
 Created by Python create_sdf_string function

 26  0  0  0  0  0  0  0  0  0999 V2000
    0.0000    0.0000    0.0000 C   0  0  0  0  0  0  0  0  0  0  0  0
   -1.9601   -1.0682   -1.8523 C   0  0  0  0  0  0  0  0  0  0  0  0
   -0.9415   -0.4784   -0.1462 C   0  0  0  0  0  0  0  0  0  0  0  0
   -0.9302    0.8863    1.2072 C   0  0  0  0  0  0  0  0  0  0  0  0
   -0.9085   -0.2443   -0.5149 C   0  0  0  0  0  0  0  0  0  0  0  0
    0.4970    1.0700    1.7515 C   0  0  0  0  0  0  0  0  0  0  0  0
    2.4066    0.9695    0.0990 C   0  0  0  0  0  0  0  0  0  0  0  0
    0.5514   -1.3533   -1.1082 C   0  0  0  0  0  0  0  0  0  0  0  0
   -0.7071   -0.6034    1.0222 C   0  0  0  0  0  0  0  0  0  0  0  0
   -1.2489   -1.5997    0.7784 C   0  0  0  0  0  0  0  0  0  0  0  0
   -0.1345    1.6489   -0.7565 C   0  0  0  0  0  0  0  0  0  0  0  0
   -0.5802    2.1605   -1.9614 C   0  0  0  0  0  0  0  0  0  0  0  0
    0.1777   -0.2231   -1.7919 C   0  0  0  0  0  0  0  0  0  0  0  0
    0.0196    1.6161   -1.4999 C   0  0  0  0  0  0  0  0  0  0  0  0
   -1.5358    0.4751    0.7733 C   0  0  0  0  0  0  0  0  0  0  0  0
   -1.8615    0.7061    0.7330 C   0  0  0  0  0  0  0  0  0  0  0  0
    1.5854    0.3714   -0.9766 C   0  0  0  0  0  0  0  0  0  0  0  0
    0.7913    1.4369   -1.1379 C   0  0  0  0  0  0  0  0  0  0  0  0
    1.0955    1.1810   -1.7383 C   0  0  0  0  0  0  0  0  0  0  0  0
   -1.0224    1.0494   -1.2658 C   0  0  0  0  0  0  0  0  0  0  0  0
    1.8041   -0.2664   -0.6423 C   0  0  0  0  0  0  0  0  0  0  0  0
    0.8946   -1.1081    0.7485 C   0  0  0  0  0  0  0  0  0  0  0  0
    1.0630    0.3472   -1.7814 C   0  0  0  0  0  0  0  0  0  0  0  0
    0.5431   -2.6426   -0.7743 C   0  0  0  0  0  0  0  0  0  0  0  0
   -0.2258    1.0333    1.1118 C   0  0  0  0  0  0  0  0  0  0  0  0
    1.1229   -1.4510    0.0944 C   0  0  0  0  0  0  0  0  0  0  0  0
M  END
$$$$

 Created by Python create_sdf_string function

 26 28  0  0  0  0  0  0  0  0999 V2000
    7.9594   -8.2092   15.9409 C   0  0  0  0  0  0  0  0  0  0  0  0
    6.0306   -7.3023   15.3357 N   0  0  0  0  0  0  0  0  0  0  0  0
    8.1651   -9.4704   17.5967 Br  0  0  0  0  0  0  0  0  0  0  0  0
    5.4483   -7.7576   17.1208 O   0  0  0  0  0  0  0  0  0  0  0  0
    7.5451   -6.5717   18.4707 N   0  0  0  0  0  0  0  0  0  0  0  0
    6.0341   -7.7902   15.9925 I   0  0  0  0  0  0  0  0  0  0  0  0
    8.4970   -5.6031   18.7425 O   0  0  0  0  0  0  0  0  0  0  0  0
    7.3410   -8.2505   17.3333 O   0  0  0  0  0  0  0  0  0  0  0  0
    6.2869   -7.5657   15.8233 P   0  0  0  0  0  0  0  0  0  0  0  0
    6.1350   -8.6274   18.0915 N   0  0  0  0  0  0  0  0  0  0  0  0
    8.6800   -9.2245   18.4561 Cl  0  0  0  0  0  0  0  0  0  0  0  0
    8.0015  -10.3622   18.3513 N   0  0  0  0  0  0  0  0  0  0  0  0
    8.5612   -6.6936   17.5384 He  0  0  0  0  0  0  0  0  0  0  0  0
    8.0461   -8.0440   17.8797 He  0  0  0  0  0  0  0  0  0  0  0  0
    9.2679   -8.0395   16.7490 He  0  0  0  0  0  0  0  0  0  0  0  0
    6.5060   -9.0629   16.8369 He  0  0  0  0  0  0  0  0  0  0  0  0
    8.0150   -6.9396   17.3536 He  0  0  0  0  0  0  0  0  0  0  0  0
    8.4532   -8.5851   15.7508 He  0  0  0  0  0  0  0  0  0  0  0  0
    8.3467   -7.7706   17.3411 He  0  0  0  0  0  0  0  0  0  0  0  0
    8.0950   -9.4479   15.0518 He  0  0  0  0  0  0  0  0  0  0  0  0
    6.8869   -8.0268   17.0253 He  0  0  0  0  0  0  0  0  0  0  0  0
    8.4762   -8.9816   18.1691 He  0  0  0  0  0  0  0  0  0  0  0  0
    5.8955   -7.2453   16.0015 He  0  0  0  0  0  0  0  0  0  0  0  0
    8.4582  -10.1217   18.8350 He  0  0  0  0  0  0  0  0  0  0  0  0
    7.8745   -6.6299   16.2571 He  0  0  0  0  0  0  0  0  0  0  0  0
    7.9409   -7.8604   17.4324 He  0  0  0  0  0  0  0  0  0  0  0  0
  1  3  3  0
  1  4  3  0
  1  5  2  0
  1  7  4  0
  2  5  1  0
  2  6  1  0
  2  9  3  0
  2 11  3  0
  2 12  1  0
  3  5  3  0
  3 10  3  0
  4  5  3  0
  4  7  3  0
  4  8  1  0
  4 10  1  0
  4 11  4  0
  5  6  4  0
  5  8  4  0
  5  9  1  0
  6 12  3  0
  7  9  3  0
  7 10  2  0
  7 11  2  0
  7 12  2  0
  8  9  3  0
  8 11  1  0
 10 11  1  0
 11 12  2  0
M  END
$$$$

 Created by Python create_sdf_string function

 26  2  0  0  0  0  0  0  0  0999 V2000
    7.9193   -7.9048   15.7421 F   0  0  0  0  0  0  0  0  0  0  0  0
    5.8215   -7.2171   15.5198 F   0  0  0  0  0  0  0  0  0  0  0  0
    9.3232   -5.6258   17.6825 F   0  0  0  0  0  0  0  0  0  0  0  0
    8.1565   -9.0475   17.5981 F   0  0  0  0  0  0  0  0  0  0  0  0
    8.5347   -7.5525   18.0542 F   0  0  0  0  0  0  0  0  0  0  0  0
    9.2508   -7.5259   17.1137 F   0  0  0  0  0  0  0  0  0  0  0  0
    6.0086   -9.2715   16.8750 F   0  0  0  0  0  0  0  0  0  0  0  0
    8.7336   -6.0402   17.4051 F   0  0  0  0  0  0  0  0  0  0  0  0
    8.3388   -8.3048   15.5914 F   0  0  0  0  0  0  0  0  0  0  0  0
    4.7754   -8.1421   17.1365 F   0  0  0  0  0  0  0  0  0  0  0  0
    8.1941   -6.0328   18.3338 F   0  0  0  0  0  0  0  0  0  0  0  0
    8.9383   -7.1907   17.6485 F   0  0  0  0  0  0  0  0  0  0  0  0
    5.2886   -7.9209   15.9814 F   0  0  0  0  0  0  0  0  0  0  0  0
    9.3523   -5.3109   18.7260 F   0  0  0  0  0  0  0  0  0  0  0  0
    7.1346   -8.1645   17.5101 F   0  0  0  0  0  0  0  0  0  0  0  0
    7.6995   -8.9225   15.4345 F   0  0  0  0  0  0  0  0  0  0  0  0
    6.4536   -7.8633   17.0276 F   0  0  0  0  0  0  0  0  0  0  0  0
    9.0377   -8.3999   18.2699 F   0  0  0  0  0  0  0  0  0  0  0  0
    5.2600   -7.2449   15.9872 F   0  0  0  0  0  0  0  0  0  0  0  0
    5.7818   -7.4360   15.7538 F   0  0  0  0  0  0  0  0  0  0  0  0
    8.5544   -9.0355   18.6641 F   0  0  0  0  0  0  0  0  0  0  0  0
    5.8124   -8.7699   18.1505 F   0  0  0  0  0  0  0  0  0  0  0  0
    9.0461   -8.4500   18.6095 F   0  0  0  0  0  0  0  0  0  0  0  0
    8.1619   -5.9771   16.1867 F   0  0  0  0  0  0  0  0  0  0  0  0
    8.2132   -7.5018   17.5034 F   0  0  0  0  0  0  0  0  0  0  0  0
    7.7913   -9.3883   18.1146 F   0  0  0  0  0  0  0  0  0  0  0  0
  1  9  1  0
  9 16  1  0
M  END
$$$$

 Created by Python create_sdf_string function

 26 35  0  0  0  0  0  0  0  0999 V2000
    6.4107   -8.0459   15.6946 S   0  0  0  0  0  0  0  0  0  0  0  0
    9.2988   -5.4019   17.2016 C   0  0  0  0  0  0  0  0  0  0  0  0
    7.0247   -9.3778   19.4934 Cl  0  0  0  0  0  0  0  0  0  0  0  0
    5.8289   -8.3199   16.1156 C   0  0  0  0  0  0  0  0  0  0  0  0
    3.3804   -8.5801   17.4951 C   0  0  0  0  0  0  0  0  0  0  0  0
    8.6577   -6.2343   17.9003 B   0  0  0  0  0  0  0  0  0  0  0  0
    7.1738   -8.7849   15.8321 O   0  0  0  0  0  0  0  0  0  0  0  0
    7.9503   -6.3349   16.6860 N   0  0  0  0  0  0  0  0  0  0  0  0
    4.3514   -7.9775   16.9165 Br  0  0  0  0  0  0  0  0  0  0  0  0
    5.6998   -6.9111   15.3810 F   0  0  0  0  0  0  0  0  0  0  0  0
    8.9543   -9.8921   18.5969 F   0  0  0  0  0  0  0  0  0  0  0  0
    5.8002   -8.4357   19.6760 O   0  0  0  0  0  0  0  0  0  0  0  0
    8.8304   -6.1358   16.0962 Cl  0  0  0  0  0  0  0  0  0  0  0  0
    8.0230   -6.6764   16.6444 F   0  0  0  0  0  0  0  0  0  0  0  0
    6.8563   -7.2316   15.7604 He  0  0  0  0  0  0  0  0  0  0  0  0
    9.0956   -8.9952   18.9990 He  0  0  0  0  0  0  0  0  0  0  0  0
    9.2285   -7.9100   15.7685 He  0  0  0  0  0  0  0  0  0  0  0  0
    6.4307  -11.2868   18.1129 He  0  0  0  0  0  0  0  0  0  0  0  0
    9.8565   -5.6708   18.0881 He  0  0  0  0  0  0  0  0  0  0  0  0
    9.6075   -9.4107   14.2990 He  0  0  0  0  0  0  0  0  0  0  0  0
    8.0090   -6.0039   19.4951 He  0  0  0  0  0  0  0  0  0  0  0  0
    9.9891   -6.6469   18.3400 He  0  0  0  0  0  0  0  0  0  0  0  0
    7.1473   -8.2101   17.7878 He  0  0  0  0  0  0  0  0  0  0  0  0
    7.5392   -8.2055   18.1967 He  0  0  0  0  0  0  0  0  0  0  0  0
    9.8813   -8.8677   18.3913 He  0  0  0  0  0  0  0  0  0  0  0  0
    9.5539   -7.9952   18.9193 He  0  0  0  0  0  0  0  0  0  0  0  0
  1  2  4  0
  1  6  3  0
  1 10  1  0
  1 11  4  0
  1 13  3  0
  1 14  1  0
  2  4  2  0
  2 11  1  0
  3  4  4  0
  3  7  1  0
  3 11  1  0
  3 12  1  0
  3 13  3  0
  3 14  3  0
  4  5  1  0
  4  8  4  0
  4 12  3  0
  5  6  3  0
  5  7  4  0
  5  8  4  0
  5  9  4  0
  5 11  1  0
  5 13  3  0
  6  7  3  0
  6  9  1  0
  6 11  4  0
  6 13  4  0
  6 14  1  0
  7  9  4  0
  8 10  4  0
  8 11  3  0
  9 12  1  0
 10 11  3  0
 10 12  2  0
 11 14  3  0
M  END
$$$$

 Created by Python create_sdf_string function

 26  1  0  0  0  0  0  0  0  0999 V2000
    6.6559   -7.0373   15.6432 F   0  0  0  0  0  0  0  0  0  0  0  0
    6.0485   -8.1018   15.6845 F   0  0  0  0  0  0  0  0  0  0  0  0
    9.6187   -4.6520   17.1004 F   0  0  0  0  0  0  0  0  0  0  0  0
    6.4705   -8.7558   18.6740 F   0  0  0  0  0  0  0  0  0  0  0  0
    8.9212   -8.0613   18.5489 F   0  0  0  0  0  0  0  0  0  0  0  0
    8.5495   -7.7679   16.0128 F   0  0  0  0  0  0  0  0  0  0  0  0
    5.6804   -9.9606   17.5469 F   0  0  0  0  0  0  0  0  0  0  0  0
   10.0482   -5.0390   18.2976 F   0  0  0  0  0  0  0  0  0  0  0  0
    8.3582   -8.3753   15.1872 F   0  0  0  0  0  0  0  0  0  0  0  0
    5.3721   -8.3534   16.2030 F   0  0  0  0  0  0  0  0  0  0  0  0
    8.8890   -5.4162   18.8731 F   0  0  0  0  0  0  0  0  0  0  0  0
   10.0188   -6.1518   18.5455 F   0  0  0  0  0  0  0  0  0  0  0  0
    4.0799   -8.8562   17.1191 F   0  0  0  0  0  0  0  0  0  0  0  0
    9.1154   -5.8302   17.9146 C   0  0  0  0  0  0  0  0  0  0  0  0
    6.8327   -8.1510   17.3560 F   0  0  0  0  0  0  0  0  0  0  0  0
    6.9385   -8.5603   15.9216 F   0  0  0  0  0  0  0  0  0  0  0  0
    7.9910   -6.0679   16.4511 F   0  0  0  0  0  0  0  0  0  0  0  0
    7.5280   -7.9449   17.8876 F   0  0  0  0  0  0  0  0  0  0  0  0
    4.4984   -8.2256   16.8672 F   0  0  0  0  0  0  0  0  0  0  0  0
    5.7349   -7.0331   15.7306 F   0  0  0  0  0  0  0  0  0  0  0  0
    8.6687   -8.5415   18.0246 F   0  0  0  0  0  0  0  0  0  0  0  0
    5.9422   -8.4094   18.7138 F   0  0  0  0  0  0  0  0  0  0  0  0
    9.6239   -7.9441   18.1453 F   0  0  0  0  0  0  0  0  0  0  0  0
    8.7974   -5.5174   16.2425 F   0  0  0  0  0  0  0  0  0  0  0  0
    7.8603   -6.4956   16.5285 F   0  0  0  0  0  0  0  0  0  0  0  0
    9.5360   -7.2633   18.6709 F   0  0  0  0  0  0  0  0  0  0  0  0
  4 22  1  0
M  END
$$$$

 Created by Python create_sdf_string function

 26 38  0  0  0  0  0  0  0  0999 V2000
    6.7143   -6.6887   15.7561 O   0  0  0  0  0  0  0  0  0  0  0  0
    7.3175   -6.6241   18.6247 C   0  0  0  0  0  0  0  0  0  0  0  0
    9.4332   -8.2938   18.0830 C   0  0  0  0  0  0  0  0  0  0  0  0
    4.3193   -9.8799   16.7445 C   0  0  0  0  0  0  0  0  0  0  0  0
    8.7793   -4.3748   20.0406 O   0  0  0  0  0  0  0  0  0  0  0  0
    8.1461   -8.3873   13.8450 S   0  0  0  0  0  0  0  0  0  0  0  0
   11.1785   -6.0837   18.6759 O   0  0  0  0  0  0  0  0  0  0  0  0
    9.5380   -6.6742   18.7316 N   0  0  0  0  0  0  0  0  0  0  0  0
    3.3727   -9.0342   16.3430 N   0  0  0  0  0  0  0  0  0  0  0  0
    5.1480   -7.4192   16.5339 N   0  0  0  0  0  0  0  0  0  0  0  0
    7.6572   -8.9263   17.0486 C   0  0  0  0  0  0  0  0  0  0  0  0
    6.5100   -4.2757   15.7226 P   0  0  0  0  0  0  0  0  0  0  0  0
    8.9541   -8.5812   18.2805 N   0  0  0  0  0  0  0  0  0  0  0  0
    8.7507   -5.4706   15.3395 S   0  0  0  0  0  0  0  0  0  0  0  0
   10.3770   -6.1945   17.2790 C   0  0  0  0  0  0  0  0  0  0  0  0
    4.8676   -7.3545   16.1928 He  0  0  0  0  0  0  0  0  0  0  0  0
    9.8952   -6.9361   15.6700 He  0  0  0  0  0  0  0  0  0  0  0  0
    8.2919   -8.1900   15.1848 He  0  0  0  0  0  0  0  0  0  0  0  0
    5.8948   -8.7358   17.4132 He  0  0  0  0  0  0  0  0  0  0  0  0
    8.2964   -6.9956   19.7686 He  0  0  0  0  0  0  0  0  0  0  0  0
    7.8048   -8.7839   16.4669 He  0  0  0  0  0  0  0  0  0  0  0  0
    4.7102   -9.3503   15.4698 He  0  0  0  0  0  0  0  0  0  0  0  0
    7.1504   -7.4344   15.5872 He  0  0  0  0  0  0  0  0  0  0  0  0
    5.2618   -8.4023   16.5770 He  0  0  0  0  0  0  0  0  0  0  0  0
    7.8579   -9.7762   16.6162 He  0  0  0  0  0  0  0  0  0  0  0  0
    7.6350   -6.4708   16.7573 He  0  0  0  0  0  0  0  0  0  0  0  0
  1  2  3  0
  1  4  3  0
  1  6  1  0
  1  8  4  0
  1 11  4  0
  1 12  4  0
  1 15  3  0
  2  7  1  0
  2 10  3  0
  2 11  1  0
  2 15  3  0
  3  4  1  0
  3  5  3  0
  3  7  2  0
  3  9  4  0
  3 10  3  0
  3 14  3  0
  3 15  3  0
  4  7  3  0
  4 11  4  0
  4 14  3  0
  5  8  2  0
  5  9  4  0
  5 13  4  0
  6  9  1  0
  6 10  4  0
  6 14  3  0
  6 15  3  0
  8 10  3  0
  8 12  3  0
  9 10  1  0
  9 11  2  0
  9 13  3  0
 10 11  3  0
 10 12  4  0
 11 15  4  0
 13 14  4  0
 14 15  3  0
M  END
$$$$

 Created by Python create_sdf_string function

 26  1  0  0  0  0  0  0  0  0999 V2000
    6.7418   -6.5598   15.7939 F   0  0  0  0  0  0  0  0  0  0  0  0
    4.5784   -7.6014   16.1988 C   0  0  0  0  0  0  0  0  0  0  0  0
    9.3485   -6.4453   16.3934 F   0  0  0  0  0  0  0  0  0  0  0  0
    7.6841   -6.7050   18.2344 F   0  0  0  0  0  0  0  0  0  0  0  0
    9.3668   -7.6513   18.0753 F   0  0  0  0  0  0  0  0  0  0  0  0
    8.0737   -8.1695   15.5687 C   0  0  0  0  0  0  0  0  0  0  0  0
    4.1441   -9.3227   17.1170 C   0  0  0  0  0  0  0  0  0  0  0  0
    9.6355   -4.7355   19.6209 F   0  0  0  0  0  0  0  0  0  0  0  0
    8.0490   -8.2818   14.9740 F   0  0  0  0  0  0  0  0  0  0  0  0
    5.6732   -8.6496   17.5925 F   0  0  0  0  0  0  0  0  0  0  0  0
   10.5127   -5.9296   18.6057 F   0  0  0  0  0  0  0  0  0  0  0  0
    9.7113   -6.0706   18.7580 C   0  0  0  0  0  0  0  0  0  0  0  0
    3.4679   -8.8767   16.6068 C   0  0  0  0  0  0  0  0  0  0  0  0
    8.9899   -6.7078   18.9287 F   0  0  0  0  0  0  0  0  0  0  0  0
    4.9394   -7.7088   16.6103 C   0  0  0  0  0  0  0  0  0  0  0  0
    7.5214   -8.5265   17.2563 C   0  0  0  0  0  0  0  0  0  0  0  0
    7.5735   -5.4515   15.6315 F   0  0  0  0  0  0  0  0  0  0  0  0
    7.8182   -8.3602   16.6471 F   0  0  0  0  0  0  0  0  0  0  0  0
    4.3179   -8.9315   16.0627 C   0  0  0  0  0  0  0  0  0  0  0  0
    7.0813   -7.2514   15.5933 C   0  0  0  0  0  0  0  0  0  0  0  0
    8.7320   -8.0498   18.0969 F   0  0  0  0  0  0  0  0  0  0  0  0
    4.9239   -8.4539   16.8225 C   0  0  0  0  0  0  0  0  0  0  0  0
    7.5242   -9.1444   16.7043 F   0  0  0  0  0  0  0  0  0  0  0  0
    8.8514   -5.2053   16.2151 F   0  0  0  0  0  0  0  0  0  0  0  0
    8.0344   -6.2530   17.0048 F   0  0  0  0  0  0  0  0  0  0  0  0
    9.9184   -5.6454   17.5406 C   0  0  0  0  0  0  0  0  0  0  0  0
  6  9  1  0
M  END
$$$$

 Created by Python create_sdf_string function

 26 27  0  0  0  0  0  0  0  0999 V2000
    3.9415   -6.7109   16.5411 N   0  0  0  0  0  0  0  0  0  0  0  0
    7.3354   -7.3079   17.3306 Se  0  0  0  0  0  0  0  0  0  0  0  0
    9.6492  -10.0242   17.7720 F   0  0  0  0  0  0  0  0  0  0  0  0
    2.1356  -10.3530   14.9364 N   0  0  0  0  0  0  0  0  0  0  0  0
    7.4708   -9.4994   16.2594 O   0  0  0  0  0  0  0  0  0  0  0  0
   10.0703   -4.6879   17.7795 F   0  0  0  0  0  0  0  0  0  0  0  0
    4.3563   -8.5394   16.9285 C   0  0  0  0  0  0  0  0  0  0  0  0
    9.7423   -5.6179   17.8075 Cl  0  0  0  0  0  0  0  0  0  0  0  0
    6.6460   -7.2233   15.8805 N   0  0  0  0  0  0  0  0  0  0  0  0
    7.8521  -10.0721   18.8037 O   0  0  0  0  0  0  0  0  0  0  0  0
    8.3198   -3.9410   15.2142 N   0  0  0  0  0  0  0  0  0  0  0  0
    7.5530   -6.9197   16.4249 P   0  0  0  0  0  0  0  0  0  0  0  0
    6.7746   -7.2447   15.3629 F   0  0  0  0  0  0  0  0  0  0  0  0
    7.8594   -9.7517   14.3687 C   0  0  0  0  0  0  0  0  0  0  0  0
    6.9796   -6.8487   14.9498 He  0  0  0  0  0  0  0  0  0  0  0  0
    8.8684   -5.3360   16.1412 He  0  0  0  0  0  0  0  0  0  0  0  0
    9.0528   -7.8494   15.2749 He  0  0  0  0  0  0  0  0  0  0  0  0
    9.4493   -5.0432   18.2011 He  0  0  0  0  0  0  0  0  0  0  0  0
    7.0998   -9.2616   17.5058 He  0  0  0  0  0  0  0  0  0  0  0  0
    9.9526   -6.3167   18.2928 He  0  0  0  0  0  0  0  0  0  0  0  0
    5.4598  -10.0287   16.1753 He  0  0  0  0  0  0  0  0  0  0  0  0
    8.4921   -7.3339   17.8763 He  0  0  0  0  0  0  0  0  0  0  0  0
    2.9840  -10.6356   17.4468 He  0  0  0  0  0  0  0  0  0  0  0  0
    8.8212   -5.3663   18.0691 He  0  0  0  0  0  0  0  0  0  0  0  0
    7.5765   -7.0353   16.3519 He  0  0  0  0  0  0  0  0  0  0  0  0
   10.7397   -3.1015   18.6869 He  0  0  0  0  0  0  0  0  0  0  0  0
  1  2  1  0
  1  3  4  0
  1  6  4  0
  1  8  3  0
  1  9  2  0
  1 10  4  0
  1 12  3  0
  2  3  3  0
  2  5  2  0
  2  6  2  0
  3  7  1  0
  3  8  4  0
  3 11  2  0
  4 12  3  0
  4 14  1  0
  5  8  1  0
  6  9  2  0
  6 10  2  0
  6 13  4  0
  7 12  3  0
  7 13  2  0
  8 14  3  0
  9 11  3  0
  9 14  4  0
 10 11  1  0
 10 13  2  0
 11 14  3  0
M  END
$$$$

 Created by Python create_sdf_string function

 26  0  0  0  0  0  0  0  0  0999 V2000
    6.7497   -6.8381   15.3891 F   0  0  0  0  0  0  0  0  0  0  0  0
    4.1979   -7.7663   16.4255 C   0  0  0  0  0  0  0  0  0  0  0  0
    9.1299   -5.0398   16.4477 C   0  0  0  0  0  0  0  0  0  0  0  0
    7.0453   -7.3327   17.4386 F   0  0  0  0  0  0  0  0  0  0  0  0
    8.8633   -8.6896   17.5507 F   0  0  0  0  0  0  0  0  0  0  0  0
    8.4313   -7.8187   15.6304 F   0  0  0  0  0  0  0  0  0  0  0  0
    2.8416   -9.2425   16.0241 C   0  0  0  0  0  0  0  0  0  0  0  0
    9.9986   -4.9873   18.4458 C   0  0  0  0  0  0  0  0  0  0  0  0
    6.9298   -8.9534   16.3997 C   0  0  0  0  0  0  0  0  0  0  0  0
    6.3012   -8.8089   17.2920 F   0  0  0  0  0  0  0  0  0  0  0  0
    9.9415   -6.1872   18.6258 F   0  0  0  0  0  0  0  0  0  0  0  0
   10.4157   -4.2545   17.8213 C   0  0  0  0  0  0  0  0  0  0  0  0
    4.1431   -8.7976   16.7777 C   0  0  0  0  0  0  0  0  0  0  0  0
   10.0398   -5.3985   18.1859 C   0  0  0  0  0  0  0  0  0  0  0  0
    6.0174   -7.4602   16.0911 F   0  0  0  0  0  0  0  0  0  0  0  0
    7.2689   -8.6536   18.1964 F   0  0  0  0  0  0  0  0  0  0  0  0
    8.9314   -4.3344   15.8847 F   0  0  0  0  0  0  0  0  0  0  0  0
    7.6618   -6.7773   16.5027 F   0  0  0  0  0  0  0  0  0  0  0  0
    5.0554   -9.4825   16.5053 C   0  0  0  0  0  0  0  0  0  0  0  0
    6.3031   -7.3642   15.6234 F   0  0  0  0  0  0  0  0  0  0  0  0
    8.7036   -7.2289   18.0067 F   0  0  0  0  0  0  0  0  0  0  0  0
    3.3829   -9.6233   17.0940 C   0  0  0  0  0  0  0  0  0  0  0  0
    7.4152   -9.0132   15.3851 F   0  0  0  0  0  0  0  0  0  0  0  0
    9.4672   -5.4725   18.2185 C   0  0  0  0  0  0  0  0  0  0  0  0
    7.6265   -6.9625   16.4752 C   0  0  0  0  0  0  0  0  0  0  0  0
   10.9257   -3.6844   18.6529 O   0  0  0  0  0  0  0  0  0  0  0  0
M  END
$$$$

 Created by Python create_sdf_string function

 26 38  0  0  0  0  0  0  0  0999 V2000
    7.0049   -7.9219   14.9226 C   0  0  0  0  0  0  0  0  0  0  0  0
    4.3882   -8.1656   15.8953 P   0  0  0  0  0  0  0  0  0  0  0  0
    8.9319   -4.3579   17.2605 F   0  0  0  0  0  0  0  0  0  0  0  0
    7.7773   -9.0791   16.2142 S   0  0  0  0  0  0  0  0  0  0  0  0
    8.9250   -5.3849   18.3007 F   0  0  0  0  0  0  0  0  0  0  0  0
    4.8970   -7.3154   17.0327 O   0  0  0  0  0  0  0  0  0  0  0  0
    9.2296   -4.5768   15.4745 F   0  0  0  0  0  0  0  0  0  0  0  0
    4.2084   -8.6563   18.4681 N   0  0  0  0  0  0  0  0  0  0  0  0
    8.9846   -4.6163   18.4382 Se  0  0  0  0  0  0  0  0  0  0  0  0
    7.5293   -8.6631   17.0033 C   0  0  0  0  0  0  0  0  0  0  0  0
    4.1979   -9.5428   14.8753 F   0  0  0  0  0  0  0  0  0  0  0  0
    6.9322   -4.9326   18.8242 C   0  0  0  0  0  0  0  0  0  0  0  0
    7.6170   -7.9023   17.5682 P   0  0  0  0  0  0  0  0  0  0  0  0
   12.1904   -3.9901   18.5829 F   0  0  0  0  0  0  0  0  0  0  0  0
    7.9673   -7.8560   17.7376 He  0  0  0  0  0  0  0  0  0  0  0  0
    7.9208   -7.0815   15.0739 He  0  0  0  0  0  0  0  0  0  0  0  0
    1.8292   -8.5040   15.6652 He  0  0  0  0  0  0  0  0  0  0  0  0
    6.6059   -7.7642   16.0741 He  0  0  0  0  0  0  0  0  0  0  0  0
   10.0673   -4.0906   19.3346 He  0  0  0  0  0  0  0  0  0  0  0  0
    6.6209  -10.5001   20.4632 He  0  0  0  0  0  0  0  0  0  0  0  0
    6.6233   -5.8000   15.7451 He  0  0  0  0  0  0  0  0  0  0  0  0
    5.3028   -5.2298   15.1177 He  0  0  0  0  0  0  0  0  0  0  0  0
    5.0952   -9.8623   14.8667 He  0  0  0  0  0  0  0  0  0  0  0  0
    5.7392   -6.6813   14.3896 He  0  0  0  0  0  0  0  0  0  0  0  0
    7.0645   -6.9559   18.1309 He  0  0  0  0  0  0  0  0  0  0  0  0
    6.6695   -9.3121   15.2004 He  0  0  0  0  0  0  0  0  0  0  0  0
  1  2  3  0
  1  3  1  0
  1  5  4  0
  1 10  3  0
  1 13  1  0
  1 14  1  0
  2  4  3  0
  2  6  4  0
  2  7  2  0
  2 11  4  0
  2 12  2  0
  3  4  3  0
  3  5  2  0
  3  6  4  0
  3  7  2  0
  3 13  1  0
  4  7  4  0
  4  8  3  0
  4  9  1  0
  4 10  4  0
  4 11  1  0
  4 14  2  0
  5  7  3  0
  5  8  4  0
  5  9  2  0
  5 10  2  0
  5 12  1  0
  5 13  4  0
  6 11  4  0
  6 13  3  0
  7 11  1  0
  8 10  2  0
  9 11  2  0
  9 12  4  0
  9 14  4  0
 10 13  3  0
 10 14  4  0
 13 14  1  0
M  END
$$$$

 Created by Python create_sdf_string function

 26  1  0  0  0  0  0  0  0  0999 V2000
    7.0330   -8.1598   15.4878 C   0  0  0  0  0  0  0  0  0  0  0  0
    4.0574   -8.3315   16.1543 C   0  0  0  0  0  0  0  0  0  0  0  0
    9.5601   -4.6969   17.0323 C   0  0  0  0  0  0  0  0  0  0  0  0
    8.3802   -7.5433   17.8617 F   0  0  0  0  0  0  0  0  0  0  0  0
    7.8202   -8.6437   16.2436 F   0  0  0  0  0  0  0  0  0  0  0  0
    8.0119   -7.1858   15.5117 F   0  0  0  0  0  0  0  0  0  0  0  0
    2.9492   -8.6827   16.0412 C   0  0  0  0  0  0  0  0  0  0  0  0
    9.4114   -5.5759   18.2858 C   0  0  0  0  0  0  0  0  0  0  0  0
    4.7465   -7.7869   16.9091 C   0  0  0  0  0  0  0  0  0  0  0  0
    6.5624   -7.8075   16.2948 C   0  0  0  0  0  0  0  0  0  0  0  0
   10.2876   -4.5016   19.3218 C   0  0  0  0  0  0  0  0  0  0  0  0
    9.3702   -4.5822   16.2182 C   0  0  0  0  0  0  0  0  0  0  0  0
    4.6846   -8.7988   17.5578 F   0  0  0  0  0  0  0  0  0  0  0  0
    9.7894   -4.9426   18.5357 C   0  0  0  0  0  0  0  0  0  0  0  0
    7.5563   -8.4460   17.1218 C   0  0  0  0  0  0  0  0  0  0  0  0
    6.2330   -8.5682   19.0011 F   0  0  0  0  0  0  0  0  0  0  0  0
    7.2362   -6.1154   15.8495 F   0  0  0  0  0  0  0  0  0  0  0  0
    5.7652   -6.3794   15.4305 F   0  0  0  0  0  0  0  0  0  0  0  0
    5.0864   -9.2723   15.5026 C   0  0  0  0  0  0  0  0  0  0  0  0
    5.6326   -7.1058   15.0395 F   0  0  0  0  0  0  0  0  0  0  0  0
    7.3654   -7.0213   17.9969 F   0  0  0  0  0  0  0  0  0  0  0  0
    4.0851   -8.9159   15.4867 C   0  0  0  0  0  0  0  0  0  0  0  0
    6.5863   -9.1320   15.5472 C   0  0  0  0  0  0  0  0  0  0  0  0
    8.3392   -5.8116   18.6906 C   0  0  0  0  0  0  0  0  0  0  0  0
    7.8693   -7.7720   17.7879 F   0  0  0  0  0  0  0  0  0  0  0  0
   10.8041   -3.8143   18.2966 C   0  0  0  0  0  0  0  0  0  0  0  0
  3 12  4  0
M  END
$$$$

 Created by Python create_sdf_string function

 26 21  0  0  0  0  0  0  0  0999 V2000
    7.2848   -7.0998   20.1645 S   0  0  0  0  0  0  0  0  0  0  0  0
    9.1043   -5.6740   15.3901 C   0  0  0  0  0  0  0  0  0  0  0  0
    3.2170   -7.3788   15.5842 N   0  0  0  0  0  0  0  0  0  0  0  0
   10.0150   -3.1792   16.5418 Br  0  0  0  0  0  0  0  0  0  0  0  0
    8.8547   -6.2836   16.5884 P   0  0  0  0  0  0  0  0  0  0  0  0
    3.7135   -9.2053   13.6239 Cl  0  0  0  0  0  0  0  0  0  0  0  0
    7.6582   -4.9929   18.9575 F   0  0  0  0  0  0  0  0  0  0  0  0
    3.9156   -9.3351   16.0873 Cl  0  0  0  0  0  0  0  0  0  0  0  0
    8.3287   -6.6229   20.1445 N   0  0  0  0  0  0  0  0  0  0  0  0
    7.7414   -8.2191   16.5995 He  0  0  0  0  0  0  0  0  0  0  0  0
    3.8713   -8.3151   16.3856 He  0  0  0  0  0  0  0  0  0  0  0  0
    7.4109   -5.1913   18.3971 He  0  0  0  0  0  0  0  0  0  0  0  0
    9.5199   -8.4581   16.2441 He  0  0  0  0  0  0  0  0  0  0  0  0
    4.5105   -8.6734   17.0714 He  0  0  0  0  0  0  0  0  0  0  0  0
   11.6561   -5.9379   20.2089 He  0  0  0  0  0  0  0  0  0  0  0  0
    7.5348   -8.3126   15.9669 He  0  0  0  0  0  0  0  0  0  0  0  0
   10.3828   -3.4746   20.5454 He  0  0  0  0  0  0  0  0  0  0  0  0
    5.9439   -8.5032   18.5724 He  0  0  0  0  0  0  0  0  0  0  0  0
   10.8041   -6.5868   20.7186 He  0  0  0  0  0  0  0  0  0  0  0  0
    6.8137   -8.7608   15.8636 He  0  0  0  0  0  0  0  0  0  0  0  0
    5.6724  -10.0685   17.6208 He  0  0  0  0  0  0  0  0  0  0  0  0
    6.9840   -6.1177   17.1199 He  0  0  0  0  0  0  0  0  0  0  0  0
    5.8076   -7.3662   12.9599 He  0  0  0  0  0  0  0  0  0  0  0  0
    7.5931   -7.8798   16.5501 He  0  0  0  0  0  0  0  0  0  0  0  0
    8.0167   -9.4443   18.4421 He  0  0  0  0  0  0  0  0  0  0  0  0
   11.1674   -3.6627   18.1107 He  0  0  0  0  0  0  0  0  0  0  0  0
  1  5  2  0
  1  6  2  0
  1  8  3  0
  2  3  1  0
  2  6  4  0
  2  7  1  0
  2  8  2  0
  3  4  2  0
  3  5  4  0
  3  6  2  0
  3  7  1  0
  3  8  3  0
  4  5  3  0
  4  6  1  0
  4  8  2  0
  5  7  3  0
  5  8  1  0
  5  9  2  0
  6  8  2  0
  6  9  2  0
  7  8  2  0
M  END
$$$$

 Created by Python create_sdf_string function

 26  2  0  0  0  0  0  0  0  0999 V2000
    7.7599   -8.1653   16.5322 C   0  0  0  0  0  0  0  0  0  0  0  0
    4.0113   -8.4741   16.4936 C   0  0  0  0  0  0  0  0  0  0  0  0
    8.6988   -5.6607   18.1491 C   0  0  0  0  0  0  0  0  0  0  0  0
    7.6010   -7.1793   18.7110 F   0  0  0  0  0  0  0  0  0  0  0  0
    8.8308   -8.1604   16.5163 F   0  0  0  0  0  0  0  0  0  0  0  0
    9.0579   -5.2624   16.2333 C   0  0  0  0  0  0  0  0  0  0  0  0
    4.6201   -8.5495   16.9907 C   0  0  0  0  0  0  0  0  0  0  0  0
   10.7357   -5.1285   19.7772 C   0  0  0  0  0  0  0  0  0  0  0  0
    3.6132   -7.9382   15.8994 C   0  0  0  0  0  0  0  0  0  0  0  0
    7.4655   -8.3148   15.9903 C   0  0  0  0  0  0  0  0  0  0  0  0
   10.6752   -4.0272   20.1693 C   0  0  0  0  0  0  0  0  0  0  0  0
   10.2289   -3.9549   16.6950 C   0  0  0  0  0  0  0  0  0  0  0  0
    6.0170   -8.4307   18.2487 F   0  0  0  0  0  0  0  0  0  0  0  0
   10.3995   -5.5871   19.9123 C   0  0  0  0  0  0  0  0  0  0  0  0
    6.5707   -8.5651   15.8840 C   0  0  0  0  0  0  0  0  0  0  0  0
    5.6234   -9.2066   17.5000 F   0  0  0  0  0  0  0  0  0  0  0  0
    9.0550   -5.7346   16.8656 C   0  0  0  0  0  0  0  0  0  0  0  0
    7.4811   -6.5216   16.8893 F   0  0  0  0  0  0  0  0  0  0  0  0
    3.9189   -8.5737   15.0446 C   0  0  0  0  0  0  0  0  0  0  0  0
    5.5960   -7.7020   14.8534 C   0  0  0  0  0  0  0  0  0  0  0  0
    9.1591   -5.3021   18.6250 C   0  0  0  0  0  0  0  0  0  0  0  0
    3.9160   -8.7587   16.4019 C   0  0  0  0  0  0  0  0  0  0  0  0
    7.6448   -7.8844   16.4931 C   0  0  0  0  0  0  0  0  0  0  0  0
    9.2753   -6.2511   19.0277 C   0  0  0  0  0  0  0  0  0  0  0  0
    7.9011   -8.3708   17.9350 F   0  0  0  0  0  0  0  0  0  0  0  0
   10.7138   -3.8823   18.0387 C   0  0  0  0  0  0  0  0  0  0  0  0
  8 14  1  0
 12 26  4  0
M  END
$$$$

 Created by Python create_sdf_string function

 26 28  0  0  0  0  0  0  0  0999 V2000
    8.6215   -7.8157   16.8650 F   0  0  0  0  0  0  0  0  0  0  0  0
    4.5802   -9.2293   18.0096 N   0  0  0  0  0  0  0  0  0  0  0  0
    6.3639   -9.9411   15.2108 C   0  0  0  0  0  0  0  0  0  0  0  0
    9.1861   -6.8169   19.0064 C   0  0  0  0  0  0  0  0  0  0  0  0
    5.8589   -8.0955   16.0016 P   0  0  0  0  0  0  0  0  0  0  0  0
    7.0470   -5.5497   18.7932 S   0  0  0  0  0  0  0  0  0  0  0  0
    4.7940   -8.7448   16.5435 C   0  0  0  0  0  0  0  0  0  0  0  0
    6.3337   -9.7080   14.3523 I   0  0  0  0  0  0  0  0  0  0  0  0
   10.4274   -6.2206   18.6046 Se  0  0  0  0  0  0  0  0  0  0  0  0
    8.9201   -6.4086   17.8244 I   0  0  0  0  0  0  0  0  0  0  0  0
    9.7843   -3.7431   19.8321 F   0  0  0  0  0  0  0  0  0  0  0  0
    7.5693   -6.8120   19.2578 F   0  0  0  0  0  0  0  0  0  0  0  0
   10.8607   -4.8929   19.1235 C   0  0  0  0  0  0  0  0  0  0  0  0
    9.2851   -7.9154   16.0369 He  0  0  0  0  0  0  0  0  0  0  0  0
    4.2209   -7.2450   15.9235 He  0  0  0  0  0  0  0  0  0  0  0  0
    9.7291   -4.9090   15.8040 He  0  0  0  0  0  0  0  0  0  0  0  0
    7.7118   -6.0207   19.2913 He  0  0  0  0  0  0  0  0  0  0  0  0
    9.9336   -6.5256   16.2695 He  0  0  0  0  0  0  0  0  0  0  0  0
   11.0323   -5.8945   20.3120 He  0  0  0  0  0  0  0  0  0  0  0  0
    2.3565   -8.4722   18.3665 He  0  0  0  0  0  0  0  0  0  0  0  0
    9.2709   -3.5470   20.6273 He  0  0  0  0  0  0  0  0  0  0  0  0
   10.3111   -2.3054   15.2251 He  0  0  0  0  0  0  0  0  0  0  0  0
    6.1683   -7.0817   17.4997 He  0  0  0  0  0  0  0  0  0  0  0  0
    5.9981   -9.4417   17.9902 He  0  0  0  0  0  0  0  0  0  0  0  0
    9.2961   -5.9834   16.2055 He  0  0  0  0  0  0  0  0  0  0  0  0
    3.8470   -8.9335   17.4832 He  0  0  0  0  0  0  0  0  0  0  0  0
  1  2  2  0
  1  8  4  0
  1 10  4  0
  2  6  1  0
  2  9  2  0
  2 10  4  0
  2 11  2  0
  2 12  4  0
  2 13  1  0
  3  5  2  0
  3  6  1  0
  3  9  3  0
  3 10  2  0
  4  5  4  0
  4  7  1  0
  4  9  2  0
  5  9  1  0
  5 11  4  0
  5 12  3  0
  5 13  1  0
  7  8  4  0
  8  9  3  0
  8 10  1  0
  9 12  1  0
 10 11  3  0
 10 13  4  0
 11 13  1  0
 12 13  2  0
M  END
$$$$

 Created by Python create_sdf_string function

 26  4  0  0  0  0  0  0  0  0999 V2000
    8.6361   -7.9917   15.9811 C   0  0  0  0  0  0  0  0  0  0  0  0
    4.4121   -7.9271   16.3009 C   0  0  0  0  0  0  0  0  0  0  0  0
    9.7290   -4.5179   16.4074 C   0  0  0  0  0  0  0  0  0  0  0  0
    8.3484   -6.1301   18.7566 C   0  0  0  0  0  0  0  0  0  0  0  0
    8.3686   -8.0137   16.7834 C   0  0  0  0  0  0  0  0  0  0  0  0
    9.4499   -5.9676   16.5793 C   0  0  0  0  0  0  0  0  0  0  0  0
    4.7024   -8.8213   17.6049 C   0  0  0  0  0  0  0  0  0  0  0  0
   10.5526   -5.2296   19.9353 C   0  0  0  0  0  0  0  0  0  0  0  0
    3.2108   -9.0781   17.1970 C   0  0  0  0  0  0  0  0  0  0  0  0
    6.5090   -9.1599   15.6452 C   0  0  0  0  0  0  0  0  0  0  0  0
   10.1676   -4.0941   20.4195 C   0  0  0  0  0  0  0  0  0  0  0  0
   10.2114   -3.7336   16.1252 C   0  0  0  0  0  0  0  0  0  0  0  0
    6.2772   -7.5100   17.4976 C   0  0  0  0  0  0  0  0  0  0  0  0
    9.4478   -6.6626   18.5660 C   0  0  0  0  0  0  0  0  0  0  0  0
    6.0567   -8.3130   16.2086 C   0  0  0  0  0  0  0  0  0  0  0  0
    6.0312   -8.6711   17.7422 C   0  0  0  0  0  0  0  0  0  0  0  0
    9.1740   -5.6165   16.4455 C   0  0  0  0  0  0  0  0  0  0  0  0
    7.6621   -6.3219   18.5283 C   0  0  0  0  0  0  0  0  0  0  0  0
    4.7770   -8.5604   16.5252 C   0  0  0  0  0  0  0  0  0  0  0  0
    6.6836   -9.3306   15.2647 C   0  0  0  0  0  0  0  0  0  0  0  0
   10.1183   -5.8829   18.4873 C   0  0  0  0  0  0  0  0  0  0  0  0
    3.8873   -8.8100   17.0662 C   0  0  0  0  0  0  0  0  0  0  0  0
    9.0385   -6.3788   17.5653 C   0  0  0  0  0  0  0  0  0  0  0  0
   10.3046   -4.1235   19.6991 C   0  0  0  0  0  0  0  0  0  0  0  0
    7.7128   -7.2022   18.3972 C   0  0  0  0  0  0  0  0  0  0  0  0
   10.6147   -4.5613   18.9986 C   0  0  0  0  0  0  0  0  0  0  0  0
  1  5  1  0
  3 12  1  0
 10 20  1  0
 11 24  1  0
M  END
$$$$

 Created by Python create_sdf_string function

 26 38  0  0  0  0  0  0  0  0999 V2000
    8.4163   -7.1225   17.0313 C   0  0  0  0  0  0  0  0  0  0  0  0
    9.5669   -7.5517   19.2560 I   0  0  0  0  0  0  0  0  0  0  0  0
    9.8881   -6.5922   16.5720 O   0  0  0  0  0  0  0  0  0  0  0  0
   10.1220   -6.6701   16.8778 Br  0  0  0  0  0  0  0  0  0  0  0  0
    8.4815   -8.8834   16.6647 S   0  0  0  0  0  0  0  0  0  0  0  0
    7.5330   -7.7838   16.1026 C   0  0  0  0  0  0  0  0  0  0  0  0
   10.1789   -7.1181   18.3443 Cl  0  0  0  0  0  0  0  0  0  0  0  0
    6.3140   -8.8227   18.3883 O   0  0  0  0  0  0  0  0  0  0  0  0
    9.0602   -5.6843   16.5712 B   0  0  0  0  0  0  0  0  0  0  0  0
    8.4791   -8.6555   15.4167 S   0  0  0  0  0  0  0  0  0  0  0  0
    8.8024   -5.4417   18.6138 C   0  0  0  0  0  0  0  0  0  0  0  0
    9.3000   -7.4080   17.4675 C   0  0  0  0  0  0  0  0  0  0  0  0
    9.5015   -6.3978   19.1128 C   0  0  0  0  0  0  0  0  0  0  0  0
   10.6957   -4.0477   19.9020 O   0  0  0  0  0  0  0  0  0  0  0  0
    5.0506   -8.0200   14.3907 He  0  0  0  0  0  0  0  0  0  0  0  0
   10.3760   -5.2359   15.3400 He  0  0  0  0  0  0  0  0  0  0  0  0
    5.0204   -8.0737   16.9519 He  0  0  0  0  0  0  0  0  0  0  0  0
   12.1220   -6.0334   19.9737 He  0  0  0  0  0  0  0  0  0  0  0  0
    2.3955   -7.9873   16.4085 He  0  0  0  0  0  0  0  0  0  0  0  0
    7.2330   -3.3048   20.6067 He  0  0  0  0  0  0  0  0  0  0  0  0
   12.0975   -4.7245   17.7147 He  0  0  0  0  0  0  0  0  0  0  0  0
    6.4926   -9.2798   16.9641 He  0  0  0  0  0  0  0  0  0  0  0  0
    6.5200   -6.7590   16.5915 He  0  0  0  0  0  0  0  0  0  0  0  0
    3.5243   -8.0004   16.6284 He  0  0  0  0  0  0  0  0  0  0  0  0
    3.6669   -9.0213   16.6889 He  0  0  0  0  0  0  0  0  0  0  0  0
    9.4127   -3.6873   21.2678 He  0  0  0  0  0  0  0  0  0  0  0  0
  1  2  2  0
  1  3  1  0
  1  4  4  0
  1  5  3  0
  1  8  4  0
  1 12  4  0
  1 14  1  0
  2  5  1  0
  2  7  3  0
  2  8  1  0
  2 10  3  0
  2 14  3  0
  3  5  2  0
  3  8  1  0
  3  9  3  0
  3 11  1  0
  3 12  2  0
  4  9  1  0
  4 11  4  0
  4 12  3  0
  5  7  4  0
  5 10  4  0
  5 13  2  0
  5 14  3  0
  6  9  4  0
  6 11  1  0
  7  9  4  0
  7 11  2  0
  7 12  4  0
  7 13  4  0
  7 14  4  0
  8  9  4  0
  8 12  3  0
  8 13  3  0
  9 10  4  0
  9 13  3  0
 10 14  1  0
 12 14  2  0
M  END
$$$$

 Created by Python create_sdf_string function

 26  2  0  0  0  0  0  0  0  0999 V2000
    8.2106   -6.9987   17.0588 C   0  0  0  0  0  0  0  0  0  0  0  0
    5.1473   -8.2076   15.5490 C   0  0  0  0  0  0  0  0  0  0  0  0
   10.0963   -4.4404   16.1372 C   0  0  0  0  0  0  0  0  0  0  0  0
    9.5621   -7.3419   18.8178 C   0  0  0  0  0  0  0  0  0  0  0  0
    9.5288   -6.0299   16.5993 C   0  0  0  0  0  0  0  0  0  0  0  0
    9.8049   -5.7570   16.9326 C   0  0  0  0  0  0  0  0  0  0  0  0
    4.9373   -8.2698   16.9066 C   0  0  0  0  0  0  0  0  0  0  0  0
   11.2867   -5.4380   19.5610 C   0  0  0  0  0  0  0  0  0  0  0  0
    3.1977   -8.4754   16.3790 C   0  0  0  0  0  0  0  0  0  0  0  0
    8.2809   -8.4299   16.6724 F   0  0  0  0  0  0  0  0  0  0  0  0
    9.4037   -4.0743   20.1778 C   0  0  0  0  0  0  0  0  0  0  0  0
   11.1775   -4.5060   17.5962 C   0  0  0  0  0  0  0  0  0  0  0  0
    7.2323   -7.9338   16.1069 C   0  0  0  0  0  0  0  0  0  0  0  0
   10.1051   -6.7101   18.4622 C   0  0  0  0  0  0  0  0  0  0  0  0
    6.2774   -8.6896   16.9371 C   0  0  0  0  0  0  0  0  0  0  0  0
    6.3212   -8.3885   17.9790 C   0  0  0  0  0  0  0  0  0  0  0  0
    9.1430   -5.2130   16.5109 C   0  0  0  0  0  0  0  0  0  0  0  0
    6.6449   -7.0265   16.5009 C   0  0  0  0  0  0  0  0  0  0  0  0
    3.8253   -8.4422   16.6112 C   0  0  0  0  0  0  0  0  0  0  0  0
    8.1216   -8.3640   15.4276 F   0  0  0  0  0  0  0  0  0  0  0  0
    9.4144   -5.2385   18.5427 C   0  0  0  0  0  0  0  0  0  0  0  0
    3.7612   -8.6561   16.7989 C   0  0  0  0  0  0  0  0  0  0  0  0
    9.1304   -7.5133   17.6162 C   0  0  0  0  0  0  0  0  0  0  0  0
   10.3185   -4.0332   20.7758 C   0  0  0  0  0  0  0  0  0  0  0  0
    9.8834   -6.0139   18.8257 C   0  0  0  0  0  0  0  0  0  0  0  0
   10.8077   -4.1312   20.1044 C   0  0  0  0  0  0  0  0  0  0  0  0
 11 24  1  0
 24 26  1  0
M  END
$$$$

 Created by Python create_sdf_string function

 26 57  0  0  0  0  0  0  0  0999 V2000
    5.2783   -6.6627   16.5001 C   0  0  0  0  0  0  0  0  0  0  0  0
   10.3992   -5.5054   14.1369 C   0  0  0  0  0  0  0  0  0  0  0  0
   10.0373   -6.1049   18.9387 I   0  0  0  0  0  0  0  0  0  0  0  0
   10.7332   -6.3292   19.1434 N   0  0  0  0  0  0  0  0  0  0  0  0
   10.3463   -4.5269   16.8299 C   0  0  0  0  0  0  0  0  0  0  0  0
    4.1891   -8.6397   17.5753 F   0  0  0  0  0  0  0  0  0  0  0  0
    4.5262   -7.7777   16.5463 F   0  0  0  0  0  0  0  0  0  0  0  0
    9.1033  -10.0259   17.5590 O   0  0  0  0  0  0  0  0  0  0  0  0
    9.4743   -2.7012   20.2875 N   0  0  0  0  0  0  0  0  0  0  0  0
    6.3412   -7.7300   15.6981 O   0  0  0  0  0  0  0  0  0  0  0  0
    5.4153   -9.6821   16.1409 N   0  0  0  0  0  0  0  0  0  0  0  0
    6.5547   -9.2210   19.1977 P   0  0  0  0  0  0  0  0  0  0  0  0
    9.2028   -4.4904   17.6307 N   0  0  0  0  0  0  0  0  0  0  0  0
    5.4700   -8.3421   16.6356 I   0  0  0  0  0  0  0  0  0  0  0  0
    7.4944   -8.3904   15.9304 O   0  0  0  0  0  0  0  0  0  0  0  0
    3.8219   -8.1098   17.0954 C   0  0  0  0  0  0  0  0  0  0  0  0
   10.5445   -5.1001   20.6254 P   0  0  0  0  0  0  0  0  0  0  0  0
   10.5972   -3.9768   19.1621 F   0  0  0  0  0  0  0  0  0  0  0  0
    8.2261   -8.0706   19.0745 He  0  0  0  0  0  0  0  0  0  0  0  0
   10.4430   -5.7497   19.0549 He  0  0  0  0  0  0  0  0  0  0  0  0
   11.0264   -4.3951   17.5485 He  0  0  0  0  0  0  0  0  0  0  0  0
   11.2111   -6.0287   18.6928 He  0  0  0  0  0  0  0  0  0  0  0  0
    6.5990   -7.0539   15.5093 He  0  0  0  0  0  0  0  0  0  0  0  0
    9.6014   -5.0352   20.6493 He  0  0  0  0  0  0  0  0  0  0  0  0
    8.5914   -6.7870   16.6293 He  0  0  0  0  0  0  0  0  0  0  0  0
    9.1257   -5.3640   18.9838 He  0  0  0  0  0  0  0  0  0  0  0  0
  1  4  2  0
  1  5  4  0
  1  6  3  0
  1  9  4  0
  1 10  2  0
  1 15  4  0
  2 10  2  0
  2 11  1  0
  2 13  4  0
  2 14  1  0
  3  5  1  0
  3  7  3  0
  3  9  2  0
  3 10  4  0
  3 13  1  0
  3 16  4  0
  3 18  3  0
  4  6  3  0
  4  7  3  0
  4  9  2  0
  4 13  3  0
  4 16  4  0
  5  6  2  0
  5  9  1  0
  5 10  2  0
  5 11  2  0
  5 12  1  0
  5 13  2  0
  6  7  1  0
  6  9  3  0
  6 12  2  0
  6 14  3  0
  6 15  3  0
  6 16  1  0
  6 17  3  0
  7  8  2  0
  7 15  1  0
  7 16  2  0
  7 18  1  0
  8 10  4  0
  8 14  4  0
  8 15  1  0
  8 17  1  0
 10 12  4  0
 11 12  1  0
 11 13  2  0
 12 13  1  0
 12 14  4  0
 12 15  3  0
 12 16  4  0
 13 16  3  0
 13 17  4  0
 13 18  3  0
 14 15  3  0
 14 16  2  0
 14 17  1  0
 14 18  3  0
M  END
$$$$

 Created by Python create_sdf_string function

 26  0  0  0  0  0  0  0  0  0999 V2000
    8.1116   -7.7533   18.2530 F   0  0  0  0  0  0  0  0  0  0  0  0
    5.7797   -7.2593   16.1448 C   0  0  0  0  0  0  0  0  0  0  0  0
    9.6734   -4.8651   15.7092 F   0  0  0  0  0  0  0  0  0  0  0  0
    9.8854   -6.2862   18.6350 C   0  0  0  0  0  0  0  0  0  0  0  0
   10.3624   -6.2549   19.0025 C   0  0  0  0  0  0  0  0  0  0  0  0
   10.2479   -4.1936   16.6477 C   0  0  0  0  0  0  0  0  0  0  0  0
    4.3713   -8.7502   17.1726 C   0  0  0  0  0  0  0  0  0  0  0  0
   10.3227   -5.5401   18.9400 C   0  0  0  0  0  0  0  0  0  0  0  0
    4.6577   -8.1409   16.5017 C   0  0  0  0  0  0  0  0  0  0  0  0
    8.6890   -8.5496   17.1167 F   0  0  0  0  0  0  0  0  0  0  0  0
   10.2646   -3.6203   20.3683 C   0  0  0  0  0  0  0  0  0  0  0  0
   10.9311   -3.9507   17.3761 C   0  0  0  0  0  0  0  0  0  0  0  0
    6.6221   -7.7367   15.8984 C   0  0  0  0  0  0  0  0  0  0  0  0
   10.7696   -5.6852   18.5704 C   0  0  0  0  0  0  0  0  0  0  0  0
    5.7745   -9.0561   16.3386 C   0  0  0  0  0  0  0  0  0  0  0  0
    6.4475   -8.4280   18.2260 C   0  0  0  0  0  0  0  0  0  0  0  0
    9.6055   -4.6851   17.0501 C   0  0  0  0  0  0  0  0  0  0  0  0
    6.9537   -7.1171   15.7632 C   0  0  0  0  0  0  0  0  0  0  0  0
    5.6656   -8.2695   16.6553 C   0  0  0  0  0  0  0  0  0  0  0  0
    7.6704   -8.0767   16.0410 C   0  0  0  0  0  0  0  0  0  0  0  0
   10.4142   -4.6290   20.5564 C   0  0  0  0  0  0  0  0  0  0  0  0
    4.1922   -8.5442   16.8423 C   0  0  0  0  0  0  0  0  0  0  0  0
    8.3630   -6.6806   16.4819 C   0  0  0  0  0  0  0  0  0  0  0  0
   10.7827   -4.8513   20.7865 C   0  0  0  0  0  0  0  0  0  0  0  0
    9.2901   -5.6630   18.4989 C   0  0  0  0  0  0  0  0  0  0  0  0
   10.8253   -3.8983   19.0005 C   0  0  0  0  0  0  0  0  0  0  0  0
M  END
$$$$

 Created by Python create_sdf_string function

 26 34  0  0  0  0  0  0  0  0999 V2000
   10.7629   -3.7547   15.6032 C   0  0  0  0  0  0  0  0  0  0  0  0
   10.6484   -6.1334   19.0092 N   0  0  0  0  0  0  0  0  0  0  0  0
    4.6533   -7.6036   16.4045 C   0  0  0  0  0  0  0  0  0  0  0  0
    9.6351   -6.6128   18.8240 O   0  0  0  0  0  0  0  0  0  0  0  0
    5.2859   -8.0101   17.4591 C   0  0  0  0  0  0  0  0  0  0  0  0
    6.5669   -8.4947   16.6728 S   0  0  0  0  0  0  0  0  0  0  0  0
   11.1728   -5.5658   19.2438 C   0  0  0  0  0  0  0  0  0  0  0  0
    8.8792   -3.1678   15.4616 F   0  0  0  0  0  0  0  0  0  0  0  0
    6.1771  -10.8100   17.5654 O   0  0  0  0  0  0  0  0  0  0  0  0
    6.6504   -7.9575   15.8427 O   0  0  0  0  0  0  0  0  0  0  0  0
    8.9727   -6.9339   17.2754 C   0  0  0  0  0  0  0  0  0  0  0  0
   10.8597   -4.3849   21.7969 C   0  0  0  0  0  0  0  0  0  0  0  0
   12.3858   -3.3776   19.2623 O   0  0  0  0  0  0  0  0  0  0  0  0
    8.4886   -7.2550   18.7599 He  0  0  0  0  0  0  0  0  0  0  0  0
    7.2624   -7.0637   18.6815 He  0  0  0  0  0  0  0  0  0  0  0  0
    8.5218   -6.6768   17.6675 He  0  0  0  0  0  0  0  0  0  0  0  0
   10.7969   -3.9826   17.5051 He  0  0  0  0  0  0  0  0  0  0  0  0
    7.8777   -8.0957   18.0201 He  0  0  0  0  0  0  0  0  0  0  0  0
   11.0660   -3.6449   19.9160 He  0  0  0  0  0  0  0  0  0  0  0  0
    9.4857   -5.3580   17.9500 He  0  0  0  0  0  0  0  0  0  0  0  0
    5.3375   -8.8652   17.4909 He  0  0  0  0  0  0  0  0  0  0  0  0
    6.3333   -8.8153   17.5595 He  0  0  0  0  0  0  0  0  0  0  0  0
    7.8751   -6.4376   17.3262 He  0  0  0  0  0  0  0  0  0  0  0  0
    9.2117   -3.8285   19.1192 He  0  0  0  0  0  0  0  0  0  0  0  0
    3.7157   -8.7239   16.2394 He  0  0  0  0  0  0  0  0  0  0  0  0
   10.3306   -4.9112   17.8310 He  0  0  0  0  0  0  0  0  0  0  0  0
  1  3  1  0
  1  4  1  0
  1  5  3  0
  1  9  2  0
  1 10  4  0
  1 11  1  0
  1 13  4  0
  2  3  2  0
  2  4  3  0
  2  5  3  0
  2 12  2  0
  3  7  2  0
  3  9  3  0
  3 10  2  0
  3 11  1  0
  4  5  3  0
  4  6  4  0
  4  8  2  0
  4 12  2  0
  5  8  3  0
  5  9  3  0
  5 11  2  0
  6  7  2  0
  6 10  3  0
  7 10  3  0
  7 12  2  0
  8 10  2  0
  8 11  2  0
  8 13  1  0
  9 10  1  0
  9 12  4  0
  9 13  2  0
 10 12  3  0
 11 12  4  0
M  END
$$$$

 Created by Python create_sdf_string function

 26  2  0  0  0  0  0  0  0  0999 V2000
    8.7035   -7.4847   18.2704 C   0  0  0  0  0  0  0  0  0  0  0  0
    7.2640   -7.3093   18.1017 C   0  0  0  0  0  0  0  0  0  0  0  0
   10.6996   -3.8556   16.3095 C   0  0  0  0  0  0  0  0  0  0  0  0
   10.4516   -5.6681   19.1158 C   0  0  0  0  0  0  0  0  0  0  0  0
    8.7075   -6.5470   17.3985 C   0  0  0  0  0  0  0  0  0  0  0  0
   10.8162   -3.9299   17.3050 C   0  0  0  0  0  0  0  0  0  0  0  0
    4.8748   -8.0908   16.4818 C   0  0  0  0  0  0  0  0  0  0  0  0
    9.8190   -6.5998   18.8085 C   0  0  0  0  0  0  0  0  0  0  0  0
    5.3547   -8.2167   17.1382 C   0  0  0  0  0  0  0  0  0  0  0  0
    7.9531   -8.2392   17.5512 C   0  0  0  0  0  0  0  0  0  0  0  0
   11.0026   -3.9448   20.2207 C   0  0  0  0  0  0  0  0  0  0  0  0
    9.7629   -5.2891   17.5924 C   0  0  0  0  0  0  0  0  0  0  0  0
    6.6692   -8.4093   16.4374 C   0  0  0  0  0  0  0  0  0  0  0  0
   10.9498   -5.2238   19.4248 C   0  0  0  0  0  0  0  0  0  0  0  0
    5.1555   -8.6465   17.3125 C   0  0  0  0  0  0  0  0  0  0  0  0
    6.3735   -8.5474   17.3659 C   0  0  0  0  0  0  0  0  0  0  0  0
    9.3668   -3.9542   15.9959 C   0  0  0  0  0  0  0  0  0  0  0  0
    8.0387   -6.4919   16.8356 C   0  0  0  0  0  0  0  0  0  0  0  0
    6.1128   -9.7971   17.0509 C   0  0  0  0  0  0  0  0  0  0  0  0
    6.8220   -8.2117   15.8996 C   0  0  0  0  0  0  0  0  0  0  0  0
   10.1487   -4.3101   19.3940 C   0  0  0  0  0  0  0  0  0  0  0  0
    3.8862   -8.6038   16.5837 O   0  0  0  0  0  0  0  0  0  0  0  0
    8.8864   -6.9117   17.0654 C   0  0  0  0  0  0  0  0  0  0  0  0
   10.9990   -4.3911   21.2428 C   0  0  0  0  0  0  0  0  0  0  0  0
   10.5619   -4.7382   17.7741 C   0  0  0  0  0  0  0  0  0  0  0  0
   11.4262   -3.5879   19.4767 C   0  0  0  0  0  0  0  0  0  0  0  0
  3  6  1  0
  3 17  1  0
M  END
$$$$

 Created by Python create_sdf_string function

 26 13  0  0  0  0  0  0  0  0999 V2000
   10.2399   -6.9655   19.9208 F   0  0  0  0  0  0  0  0  0  0  0  0
    9.7447   -5.2873   17.5340 O   0  0  0  0  0  0  0  0  0  0  0  0
    6.6107   -7.2528   16.8789 Cl  0  0  0  0  0  0  0  0  0  0  0  0
    8.1076   -4.8767   17.7585 I   0  0  0  0  0  0  0  0  0  0  0  0
   10.4440   -5.7252   19.0602 C   0  0  0  0  0  0  0  0  0  0  0  0
    7.4265   -7.7333   16.0787 C   0  0  0  0  0  0  0  0  0  0  0  0
    9.9034   -3.0910   14.6478 F   0  0  0  0  0  0  0  0  0  0  0  0
    7.8559   -6.6298   15.8328 S   0  0  0  0  0  0  0  0  0  0  0  0
   11.2859   -3.3424   20.3006 C   0  0  0  0  0  0  0  0  0  0  0  0
    4.6503   -9.9062   16.5318 C   0  0  0  0  0  0  0  0  0  0  0  0
    7.7070   -6.8954   19.0086 He  0  0  0  0  0  0  0  0  0  0  0  0
    8.9835   -4.1523   17.0112 He  0  0  0  0  0  0  0  0  0  0  0  0
   10.6045   -4.3487   19.2637 He  0  0  0  0  0  0  0  0  0  0  0  0
    9.4971   -7.1548   17.4066 He  0  0  0  0  0  0  0  0  0  0  0  0
   10.1362   -3.7765   17.2259 He  0  0  0  0  0  0  0  0  0  0  0  0
    4.7488   -9.1158   15.7050 He  0  0  0  0  0  0  0  0  0  0  0  0
    9.9754   -6.5216   16.8305 He  0  0  0  0  0  0  0  0  0  0  0  0
   10.0381   -5.4416   21.1251 He  0  0  0  0  0  0  0  0  0  0  0  0
    4.8190   -8.9610   16.4966 He  0  0  0  0  0  0  0  0  0  0  0  0
    6.6683   -8.2871   14.9765 He  0  0  0  0  0  0  0  0  0  0  0  0
    6.6895   -6.5020   17.9772 He  0  0  0  0  0  0  0  0  0  0  0  0
    8.0227  -10.8436   18.5302 He  0  0  0  0  0  0  0  0  0  0  0  0
   11.4836   -7.0234   15.7724 He  0  0  0  0  0  0  0  0  0  0  0  0
   11.8395   -5.5732   22.8892 He  0  0  0  0  0  0  0  0  0  0  0  0
   10.4673   -4.3026   17.9340 He  0  0  0  0  0  0  0  0  0  0  0  0
   10.2412   -2.3434   19.4009 He  0  0  0  0  0  0  0  0  0  0  0  0
  1  3  4  0
  1  7  1  0
  1  8  3  0
  1  9  4  0
  1 10  1  0
  2  4  1  0
  2  8  4  0
  3  4  3  0
  4 10  2  0
  5  6  4  0
  5 10  4  0
  6  7  1  0
  9 10  1  0
M  END
$$$$

 Created by Python create_sdf_string function

 26  4  0  0  0  0  0  0  0  0999 V2000
   10.1976   -6.5199   19.6601 C   0  0  0  0  0  0  0  0  0  0  0  0
    7.7568   -7.2189   18.2736 F   0  0  0  0  0  0  0  0  0  0  0  0
    9.3838   -4.3989   16.4818 C   0  0  0  0  0  0  0  0  0  0  0  0
   10.8049   -4.5625   19.5520 C   0  0  0  0  0  0  0  0  0  0  0  0
    9.1820   -7.5416   17.5887 C   0  0  0  0  0  0  0  0  0  0  0  0
   10.5224   -3.7868   16.9026 C   0  0  0  0  0  0  0  0  0  0  0  0
    4.9081   -8.7994   16.3055 C   0  0  0  0  0  0  0  0  0  0  0  0
    9.7969   -5.2550   17.4737 C   0  0  0  0  0  0  0  0  0  0  0  0
    6.5056   -7.6490   16.9695 C   0  0  0  0  0  0  0  0  0  0  0  0
    9.3285   -6.6634   17.0119 C   0  0  0  0  0  0  0  0  0  0  0  0
   10.9907   -4.8965   20.9969 C   0  0  0  0  0  0  0  0  0  0  0  0
    8.6750   -5.4398   17.1231 C   0  0  0  0  0  0  0  0  0  0  0  0
    4.8793   -8.6402   16.7229 C   0  0  0  0  0  0  0  0  0  0  0  0
   10.5046   -5.5161   19.2693 C   0  0  0  0  0  0  0  0  0  0  0  0
    7.4867   -8.0267   16.2130 C   0  0  0  0  0  0  0  0  0  0  0  0
    6.6722   -8.5928   15.7821 C   0  0  0  0  0  0  0  0  0  0  0  0
   10.0031   -3.7563   15.7148 F   0  0  0  0  0  0  0  0  0  0  0  0
    6.7803   -7.0440   17.8027 F   0  0  0  0  0  0  0  0  0  0  0  0
    7.7487   -8.8007   17.5879 C   0  0  0  0  0  0  0  0  0  0  0  0
    7.8904   -6.9311   15.9749 F   0  0  0  0  0  0  0  0  0  0  0  0
   11.1654   -3.6961   20.5768 C   0  0  0  0  0  0  0  0  0  0  0  0
    4.8218   -9.0211   16.8229 C   0  0  0  0  0  0  0  0  0  0  0  0
   10.0435   -6.3184   16.6689 F   0  0  0  0  0  0  0  0  0  0  0  0
   11.2334   -4.8520   22.1041 O   0  0  0  0  0  0  0  0  0  0  0  0
   10.5997   -4.2505   17.9833 C   0  0  0  0  0  0  0  0  0  0  0  0
   10.9929   -3.3376   19.3457 C   0  0  0  0  0  0  0  0  0  0  0  0
  4 14  4  0
  5 10  1  0
 11 24  1  0
 21 26  4  0
M  END
$$$$

 Created by Python create_sdf_string function

 26 67  0  0  0  0  0  0  0  0999 V2000
    7.3916   -9.1775   18.3397 C   0  0  0  0  0  0  0  0  0  0  0  0
    8.8809   -3.8242   16.0303 O   0  0  0  0  0  0  0  0  0  0  0  0
    9.6468   -4.6666   19.6355 I   0  0  0  0  0  0  0  0  0  0  0  0
   11.4078   -3.7193   17.5772 N   0  0  0  0  0  0  0  0  0  0  0  0
    5.6043   -9.3307   16.2716 N   0  0  0  0  0  0  0  0  0  0  0  0
    9.9314   -5.8294   17.0418 C   0  0  0  0  0  0  0  0  0  0  0  0
    5.7888   -7.3439   15.8396 O   0  0  0  0  0  0  0  0  0  0  0  0
   11.3219   -5.3228   19.7576 F   0  0  0  0  0  0  0  0  0  0  0  0
    8.4448   -3.7692   16.5062 O   0  0  0  0  0  0  0  0  0  0  0  0
    5.5194   -7.1793   16.4309 C   0  0  0  0  0  0  0  0  0  0  0  0
    5.5161   -8.5514   16.4034 N   0  0  0  0  0  0  0  0  0  0  0  0
    9.6756   -3.4986   15.6954 C   0  0  0  0  0  0  0  0  0  0  0  0
    7.2786   -6.5886   17.2037 Cl  0  0  0  0  0  0  0  0  0  0  0  0
    8.4229   -8.4688   17.5861 C   0  0  0  0  0  0  0  0  0  0  0  0
    8.2065   -7.2428   16.4690 P   0  0  0  0  0  0  0  0  0  0  0  0
   10.6772   -3.9773   20.4747 Cl  0  0  0  0  0  0  0  0  0  0  0  0
   10.6449   -2.9117   20.1474 O   0  0  0  0  0  0  0  0  0  0  0  0
   11.1352   -4.0865   18.4599 O   0  0  0  0  0  0  0  0  0  0  0  0
    9.9708   -1.5639   17.4951 P   0  0  0  0  0  0  0  0  0  0  0  0
   11.1680   -4.8278   19.6074 He  0  0  0  0  0  0  0  0  0  0  0  0
    9.6586   -7.2332   18.7743 He  0  0  0  0  0  0  0  0  0  0  0  0
    8.5015   -6.0617   15.9816 He  0  0  0  0  0  0  0  0  0  0  0  0
    6.0677  -10.2640   18.0553 He  0  0  0  0  0  0  0  0  0  0  0  0
   10.4532   -6.6516   18.5969 He  0  0  0  0  0  0  0  0  0  0  0  0
    3.9354   -9.3000   15.6003 He  0  0  0  0  0  0  0  0  0  0  0  0
   10.1750   -4.8505   16.7718 He  0  0  0  0  0  0  0  0  0  0  0  0
  1  2  4  0
  1  3  2  0
  1  7  2  0
  1 11  1  0
  1 15  1  0
  2  4  1  0
  2  5  1  0
  2 10  2  0
  2 12  3  0
  2 16  1  0
  2 17  3  0
  2 18  1  0
  3  5  1  0
  3  9  2  0
  3 11  3  0
  3 13  1  0
  3 16  4  0
  3 17  2  0
  3 18  2  0
  3 19  1  0
  4  6  2  0
  4  7  1  0
  4 10  3  0
  4 17  2  0
  4 19  4  0
  5 13  3  0
  5 15  3  0
  5 19  2  0
  6 11  2  0
  6 12  1  0
  6 13  4  0
  6 14  2  0
  6 17  4  0
  6 18  1  0
  6 19  2  0
  7  8  3  0
  7 12  4  0
  7 15  3  0
  7 16  1  0
  7 17  1  0
  7 18  4  0
  7 19  2  0
  8 11  3  0
  8 16  4  0
  9 14  1  0
  9 15  2  0
  9 18  2  0
  9 19  4  0
 10 11  4  0
 10 13  4  0
 10 14  4  0
 10 15  1  0
 10 16  1  0
 10 17  3  0
 10 18  3  0
 11 14  3  0
 12 13  3  0
 12 14  4  0
 12 17  1  0
 13 15  2  0
 13 18  2  0
 14 16  3  0
 15 16  2  0
 15 18  4  0
 15 19  3  0
 16 17  1  0
 18 19  3  0
M  END
$$$$

 Created by Python create_sdf_string function

 26  6  0  0  0  0  0  0  0  0999 V2000
   11.2052   -4.7395   19.5809 C   0  0  0  0  0  0  0  0  0  0  0  0
    7.0334   -8.5605   17.7513 C   0  0  0  0  0  0  0  0  0  0  0  0
    9.3748   -3.9866   15.9961 C   0  0  0  0  0  0  0  0  0  0  0  0
   10.2150   -4.8330   19.3891 C   0  0  0  0  0  0  0  0  0  0  0  0
    9.7153   -7.4336   18.5523 C   0  0  0  0  0  0  0  0  0  0  0  0
   11.2285   -3.7134   17.5682 C   0  0  0  0  0  0  0  0  0  0  0  0
    5.4677   -9.2550   16.4871 C   0  0  0  0  0  0  0  0  0  0  0  0
    9.7876   -5.7917   17.4619 C   0  0  0  0  0  0  0  0  0  0  0  0
    5.7111   -7.4844   16.0190 C   0  0  0  0  0  0  0  0  0  0  0  0
    8.1814   -6.1489   16.1960 C   0  0  0  0  0  0  0  0  0  0  0  0
   11.1273   -5.1744   20.1393 C   0  0  0  0  0  0  0  0  0  0  0  0
    9.0319   -4.1031   16.0549 C   0  0  0  0  0  0  0  0  0  0  0  0
    5.7306   -9.4980   17.5274 C   0  0  0  0  0  0  0  0  0  0  0  0
   10.1143   -6.6801   18.6298 C   0  0  0  0  0  0  0  0  0  0  0  0
    5.8665   -7.5905   16.4265 C   0  0  0  0  0  0  0  0  0  0  0  0
    5.3305   -8.3138   16.5722 C   0  0  0  0  0  0  0  0  0  0  0  0
   10.2325   -3.8142   15.9895 C   0  0  0  0  0  0  0  0  0  0  0  0
    7.4737   -6.9340   16.9100 C   0  0  0  0  0  0  0  0  0  0  0  0
    8.1704   -8.3440   17.3253 C   0  0  0  0  0  0  0  0  0  0  0  0
    7.9871   -7.4253   16.7552 C   0  0  0  0  0  0  0  0  0  0  0  0
   10.8869   -4.0441   20.7104 C   0  0  0  0  0  0  0  0  0  0  0  0
    4.1917   -8.8374   16.1941 O   0  0  0  0  0  0  0  0  0  0  0  0
   10.0197   -4.9488   17.0705 C   0  0  0  0  0  0  0  0  0  0  0  0
   10.9958   -3.3664   20.5322 O   0  0  0  0  0  0  0  0  0  0  0  0
   11.0284   -4.2103   18.4730 C   0  0  0  0  0  0  0  0  0  0  0  0
   11.1789   -2.9565   17.5872 C   0  0  0  0  0  0  0  0  0  0  0  0
  5 14  1  0
  6 26  4  0
  8 23  1  0
  9 15  1  0
 16 22  1  0
 21 24  1  0
M  END
$$$$

 Created by Python create_sdf_string function

 26 35  0  0  0  0  0  0  0  0999 V2000
    7.8641   -8.1899   18.7825 C   0  0  0  0  0  0  0  0  0  0  0  0
    9.7438   -4.4826   14.1913 F   0  0  0  0  0  0  0  0  0  0  0  0
   10.3537   -4.8219   18.1985 N   0  0  0  0  0  0  0  0  0  0  0  0
    8.6550   -9.2335   18.2616 C   0  0  0  0  0  0  0  0  0  0  0  0
   10.8720   -1.9396   18.0637 C   0  0  0  0  0  0  0  0  0  0  0  0
    4.8356   -8.0118   16.4649 C   0  0  0  0  0  0  0  0  0  0  0  0
    6.4549   -6.5329   17.9220 N   0  0  0  0  0  0  0  0  0  0  0  0
    6.1105   -7.8981   18.2460 P   0  0  0  0  0  0  0  0  0  0  0  0
    7.3447   -8.4655   17.2905 P   0  0  0  0  0  0  0  0  0  0  0  0
   11.6893   -6.1406   21.1967 B   0  0  0  0  0  0  0  0  0  0  0  0
    4.2805   -8.8238   15.9761 C   0  0  0  0  0  0  0  0  0  0  0  0
    9.8271   -4.0735   17.1421 P   0  0  0  0  0  0  0  0  0  0  0  0
   11.7347   -3.1458   19.2446 N   0  0  0  0  0  0  0  0  0  0  0  0
   11.0438   -4.8920   21.8710 He  0  0  0  0  0  0  0  0  0  0  0  0
    6.2759   -9.2001   16.2916 He  0  0  0  0  0  0  0  0  0  0  0  0
    9.5441   -6.2025   18.2324 He  0  0  0  0  0  0  0  0  0  0  0  0
   10.9030   -6.2118   20.1897 He  0  0  0  0  0  0  0  0  0  0  0  0
    8.1009   -3.8386   17.4774 He  0  0  0  0  0  0  0  0  0  0  0  0
    5.4009   -7.9771   16.6571 He  0  0  0  0  0  0  0  0  0  0  0  0
   12.1154   -6.4524   18.7110 He  0  0  0  0  0  0  0  0  0  0  0  0
    6.4995   -6.3405   16.2041 He  0  0  0  0  0  0  0  0  0  0  0  0
    6.3720   -8.9391   17.2964 He  0  0  0  0  0  0  0  0  0  0  0  0
   10.1361   -5.2388   18.0141 He  0  0  0  0  0  0  0  0  0  0  0  0
    7.1238   -8.3549   17.0706 He  0  0  0  0  0  0  0  0  0  0  0  0
   13.0804   -4.6248   17.6942 He  0  0  0  0  0  0  0  0  0  0  0  0
   13.3329   -2.9507   17.1990 He  0  0  0  0  0  0  0  0  0  0  0  0
  1  2  4  0
  1  4  2  0
  1  6  1  0
  1  8  2  0
  1  9  2  0
  1 12  1  0
  2  3  1  0
  2  4  4  0
  2 10  1  0
  2 12  4  0
  3  4  4  0
  3  8  3  0
  3  9  3  0
  4  5  1  0
  4  8  4  0
  4  9  2  0
  4 10  1  0
  4 11  4  0
  4 12  2  0
  4 13  3  0
  5  8  3  0
  5 12  1  0
  5 13  4  0
  6  9  1  0
  6 10  4  0
  6 11  1  0
  7 10  3  0
  7 11  3  0
  8  9  1  0
  8 10  3  0
  8 13  4  0
  9 11  3  0
  9 13  2  0
 11 13  3  0
 12 13  2  0
M  END
$$$$

 Created by Python create_sdf_string function

 26  1  0  0  0  0  0  0  0  0999 V2000
   11.0520   -4.5169   21.2023 O   0  0  0  0  0  0  0  0  0  0  0  0
    8.4194   -7.7442   18.2430 C   0  0  0  0  0  0  0  0  0  0  0  0
    9.8005   -3.9605   15.8932 C   0  0  0  0  0  0  0  0  0  0  0  0
   10.4704   -4.8634   18.1997 C   0  0  0  0  0  0  0  0  0  0  0  0
    8.8826   -8.2643   17.7384 C   0  0  0  0  0  0  0  0  0  0  0  0
   11.2477   -3.0958   17.7961 C   0  0  0  0  0  0  0  0  0  0  0  0
    6.3420   -9.0669   16.0666 C   0  0  0  0  0  0  0  0  0  0  0  0
    9.6444   -6.4504   18.2805 C   0  0  0  0  0  0  0  0  0  0  0  0
    4.8412   -8.2330   16.5643 C   0  0  0  0  0  0  0  0  0  0  0  0
    7.0333   -6.7118   17.6693 C   0  0  0  0  0  0  0  0  0  0  0  0
   10.7434   -5.6037   19.9161 C   0  0  0  0  0  0  0  0  0  0  0  0
    9.0897   -4.7728   16.6783 C   0  0  0  0  0  0  0  0  0  0  0  0
    5.2054   -8.0604   16.7799 C   0  0  0  0  0  0  0  0  0  0  0  0
   11.5102   -5.9198   18.8935 C   0  0  0  0  0  0  0  0  0  0  0  0
    7.0029   -6.6169   16.3754 C   0  0  0  0  0  0  0  0  0  0  0  0
    6.2444   -8.6938   17.0001 C   0  0  0  0  0  0  0  0  0  0  0  0
   10.1209   -5.3181   17.9743 C   0  0  0  0  0  0  0  0  0  0  0  0
    6.3464   -7.9105   17.7422 C   0  0  0  0  0  0  0  0  0  0  0  0
    7.4194   -8.2914   16.7741 C   0  0  0  0  0  0  0  0  0  0  0  0
    7.6926   -8.1147   17.1220 C   0  0  0  0  0  0  0  0  0  0  0  0
   11.2317   -5.2546   20.6889 C   0  0  0  0  0  0  0  0  0  0  0  0
    4.4304   -8.7068   16.3819 C   0  0  0  0  0  0  0  0  0  0  0  0
   10.2272   -4.1918   16.9096 C   0  0  0  0  0  0  0  0  0  0  0  0
   11.2171   -3.6135   19.4361 C   0  0  0  0  0  0  0  0  0  0  0  0
   11.9686   -4.5169   17.7668 C   0  0  0  0  0  0  0  0  0  0  0  0
   12.1085   -3.2923   16.5705 C   0  0  0  0  0  0  0  0  0  0  0  0
  9 22  1  0
M  END
$$$$

 Created by Python create_sdf_string function

 26 21  0  0  0  0  0  0  0  0999 V2000
    7.2050   -7.5793   17.7806 C   0  0  0  0  0  0  0  0  0  0  0  0
    9.9195   -4.2843   15.5942 C   0  0  0  0  0  0  0  0  0  0  0  0
   10.7324   -5.6280   18.6120 O   0  0  0  0  0  0  0  0  0  0  0  0
    6.2664   -8.9508   18.3205 Cl  0  0  0  0  0  0  0  0  0  0  0  0
    8.8096   -5.5438   19.7723 F   0  0  0  0  0  0  0  0  0  0  0  0
    9.0679   -4.3790   15.4083 C   0  0  0  0  0  0  0  0  0  0  0  0
    6.3363   -8.5998   16.5265 P   0  0  0  0  0  0  0  0  0  0  0  0
    8.5637   -9.9980   17.0752 F   0  0  0  0  0  0  0  0  0  0  0  0
    9.0914   -5.8380   17.9503 O   0  0  0  0  0  0  0  0  0  0  0  0
   12.8245   -3.1329   19.2472 C   0  0  0  0  0  0  0  0  0  0  0  0
   11.1424   -3.8725   16.2727 S   0  0  0  0  0  0  0  0  0  0  0  0
    9.4939   -4.1352   21.7464 He  0  0  0  0  0  0  0  0  0  0  0  0
    9.9729  -10.5520   17.4431 He  0  0  0  0  0  0  0  0  0  0  0  0
   11.2410   -1.8332   17.5158 He  0  0  0  0  0  0  0  0  0  0  0  0
   10.0033   -5.4691   18.5643 He  0  0  0  0  0  0  0  0  0  0  0  0
    4.7566   -8.5338   17.2145 He  0  0  0  0  0  0  0  0  0  0  0  0
    7.6706   -6.3094   16.4789 He  0  0  0  0  0  0  0  0  0  0  0  0
    6.1971   -8.4316   14.8799 He  0  0  0  0  0  0  0  0  0  0  0  0
   10.4824   -3.8842   19.8217 He  0  0  0  0  0  0  0  0  0  0  0  0
    6.2394   -6.6051   16.1823 He  0  0  0  0  0  0  0  0  0  0  0  0
    9.6847   -5.3743   19.1207 He  0  0  0  0  0  0  0  0  0  0  0  0
    5.5340   -8.5722   17.4663 He  0  0  0  0  0  0  0  0  0  0  0  0
    7.1065   -7.6870   16.3612 He  0  0  0  0  0  0  0  0  0  0  0  0
   11.7088   -5.4689   21.1054 He  0  0  0  0  0  0  0  0  0  0  0  0
    3.1183   -8.7766   17.0702 He  0  0  0  0  0  0  0  0  0  0  0  0
   12.0910   -5.7233   16.7607 He  0  0  0  0  0  0  0  0  0  0  0  0
  1  3  1  0
  1  7  4  0
  1 11  3  0
  2  3  1  0
  2  4  2  0
  2  6  3  0
  3  6  2  0
  3  7  4  0
  3  8  1  0
  4  6  2  0
  4 10  3  0
  5  6  2  0
  5  9  4  0
  5 10  3  0
  5 11  4  0
  6  7  4  0
  6 10  2  0
  6 11  1  0
  7  8  3  0
  8 10  4  0
  8 11  3  0
M  END
$$$$

 Created by Python create_sdf_string function

 26  1  0  0  0  0  0  0  0  0999 V2000
   10.4705   -4.0376   21.3102 O   0  0  0  0  0  0  0  0  0  0  0  0
    7.4522   -7.4300   17.6591 C   0  0  0  0  0  0  0  0  0  0  0  0
   10.0968   -4.0983   16.1502 C   0  0  0  0  0  0  0  0  0  0  0  0
   10.4934   -5.4574   18.5857 C   0  0  0  0  0  0  0  0  0  0  0  0
    9.2030   -8.5361   17.4522 F   0  0  0  0  0  0  0  0  0  0  0  0
   11.4919   -2.8741   17.4448 C   0  0  0  0  0  0  0  0  0  0  0  0
    5.8975   -8.4461   18.0890 C   0  0  0  0  0  0  0  0  0  0  0  0
   10.1733   -5.3961   18.5537 C   0  0  0  0  0  0  0  0  0  0  0  0
    4.8752   -8.4323   17.1348 C   0  0  0  0  0  0  0  0  0  0  0  0
    8.0071   -6.3591   16.5385 C   0  0  0  0  0  0  0  0  0  0  0  0
    9.4645   -5.3909   19.3340 C   0  0  0  0  0  0  0  0  0  0  0  0
    9.3367   -4.4435   16.1135 C   0  0  0  0  0  0  0  0  0  0  0  0
    6.3021   -8.3602   15.7897 C   0  0  0  0  0  0  0  0  0  0  0  0
   10.8212   -4.0360   20.0243 C   0  0  0  0  0  0  0  0  0  0  0  0
    6.6200   -6.8604   16.1704 C   0  0  0  0  0  0  0  0  0  0  0  0
    6.1965   -8.3686   16.4655 C   0  0  0  0  0  0  0  0  0  0  0  0
    9.9519   -5.3983   18.9759 C   0  0  0  0  0  0  0  0  0  0  0  0
    5.3645   -8.3576   17.4139 C   0  0  0  0  0  0  0  0  0  0  0  0
    7.5038   -7.5695   16.5789 C   0  0  0  0  0  0  0  0  0  0  0  0
    8.2189   -8.6654   16.8093 F   0  0  0  0  0  0  0  0  0  0  0  0
   11.1389   -4.8479   20.7800 C   0  0  0  0  0  0  0  0  0  0  0  0
    3.8936   -8.8150   16.8818 C   0  0  0  0  0  0  0  0  0  0  0  0
    8.9583   -6.0513   17.6841 C   0  0  0  0  0  0  0  0  0  0  0  0
   11.5674   -3.6308   19.2490 C   0  0  0  0  0  0  0  0  0  0  0  0
   11.3042   -4.6168   17.3317 C   0  0  0  0  0  0  0  0  0  0  0  0
   11.1208   -3.7659   16.4758 C   0  0  0  0  0  0  0  0  0  0  0  0
  3 12  1  0
M  END
$$$$

 Created by Python create_sdf_string function

 26 26  0  0  0  0  0  0  0  0999 V2000
    9.8161   -3.0300   17.4959 C   0  0  0  0  0  0  0  0  0  0  0  0
   11.8558   -6.8349   17.9748 F   0  0  0  0  0  0  0  0  0  0  0  0
    8.7242  -11.6809   17.6484 F   0  0  0  0  0  0  0  0  0  0  0  0
    6.6574   -9.4001   17.4539 P   0  0  0  0  0  0  0  0  0  0  0  0
    8.5469   -4.5621   17.0804 F   0  0  0  0  0  0  0  0  0  0  0  0
    5.7149   -6.9284   18.7190 N   0  0  0  0  0  0  0  0  0  0  0  0
    8.6361   -6.3814   17.6418 Cl  0  0  0  0  0  0  0  0  0  0  0  0
    8.1858   -6.2977   19.2321 C   0  0  0  0  0  0  0  0  0  0  0  0
    7.1578   -8.9146   16.3866 S   0  0  0  0  0  0  0  0  0  0  0  0
    7.8452   -8.4478   16.3476 P   0  0  0  0  0  0  0  0  0  0  0  0
   12.2525   -5.9883   19.9059 C   0  0  0  0  0  0  0  0  0  0  0  0
    8.3737   -7.3086   18.3168 P   0  0  0  0  0  0  0  0  0  0  0  0
   11.8632   -2.3185   18.8782 S   0  0  0  0  0  0  0  0  0  0  0  0
   11.2451   -4.9506   18.1851 C   0  0  0  0  0  0  0  0  0  0  0  0
    8.3406   -2.3944   20.5119 He  0  0  0  0  0  0  0  0  0  0  0  0
    6.1232   -7.8640   18.0321 He  0  0  0  0  0  0  0  0  0  0  0  0
   10.2965   -2.4348   15.9291 He  0  0  0  0  0  0  0  0  0  0  0  0
    9.4633   -3.8379   15.2938 He  0  0  0  0  0  0  0  0  0  0  0  0
    6.3347   -9.4211   15.4424 He  0  0  0  0  0  0  0  0  0  0  0  0
    9.9231   -5.2028   21.3543 He  0  0  0  0  0  0  0  0  0  0  0  0
    5.6859   -8.4664   16.9648 He  0  0  0  0  0  0  0  0  0  0  0  0
    7.3115   -9.4855   17.1774 He  0  0  0  0  0  0  0  0  0  0  0  0
   10.0230   -3.9223   18.9146 He  0  0  0  0  0  0  0  0  0  0  0  0
    4.8302   -6.4514   17.1194 He  0  0  0  0  0  0  0  0  0  0  0  0
    3.4222  -10.0442   18.3401 He  0  0  0  0  0  0  0  0  0  0  0  0
   10.9491   -2.8627   15.7534 He  0  0  0  0  0  0  0  0  0  0  0  0
  1  6  1  0
  1  8  4  0
  1 14  3  0
  2 10  2  0
  2 11  2  0
  2 12  4  0
  3 11  2  0
  3 13  4  0
  3 14  3  0
  4  5  2  0
  4  9  1  0
  4 13  1  0
  5  7  3  0
  6  8  2  0
  6 10  1  0
  6 11  1  0
  6 14  1  0
  7  9  3  0
  7 12  4  0
  8  9  1  0
  8 10  4  0
  8 14  2  0
  9 10  2  0
  9 13  1  0
 10 12  3  0
 11 13  4  0
M  END
$$$$

 Created by Python create_sdf_string function

 26  3  0  0  0  0  0  0  0  0999 V2000
    9.5991   -3.9274   20.3843 O   0  0  0  0  0  0  0  0  0  0  0  0
    6.3434   -7.9288   18.0128 C   0  0  0  0  0  0  0  0  0  0  0  0
   10.5006   -3.8881   17.7780 C   0  0  0  0  0  0  0  0  0  0  0  0
   10.6823   -6.5858   18.6568 F   0  0  0  0  0  0  0  0  0  0  0  0
    8.3695   -9.4369   17.1364 F   0  0  0  0  0  0  0  0  0  0  0  0
   10.8765   -3.5512   16.0870 C   0  0  0  0  0  0  0  0  0  0  0  0
    6.4746   -8.8386   17.2597 C   0  0  0  0  0  0  0  0  0  0  0  0
    9.1469   -5.0584   16.8379 C   0  0  0  0  0  0  0  0  0  0  0  0
    6.1777   -7.2175   18.4521 F   0  0  0  0  0  0  0  0  0  0  0  0
    8.7454   -6.4743   17.5976 C   0  0  0  0  0  0  0  0  0  0  0  0
    8.6639   -6.4106   18.5087 C   0  0  0  0  0  0  0  0  0  0  0  0
    9.6018   -3.9887   16.0171 C   0  0  0  0  0  0  0  0  0  0  0  0
    6.4180   -9.1369   15.7206 F   0  0  0  0  0  0  0  0  0  0  0  0
   10.5275   -4.7067   20.6382 C   0  0  0  0  0  0  0  0  0  0  0  0
    5.4127   -8.5024   16.8692 C   0  0  0  0  0  0  0  0  0  0  0  0
    7.1880   -8.8255   16.9889 C   0  0  0  0  0  0  0  0  0  0  0  0
   10.2114   -4.4886   18.9050 C   0  0  0  0  0  0  0  0  0  0  0  0
    5.1263   -7.4875   16.8083 C   0  0  0  0  0  0  0  0  0  0  0  0
    7.4170   -8.5441   16.2715 C   0  0  0  0  0  0  0  0  0  0  0  0
    8.0883   -8.1436   16.2409 C   0  0  0  0  0  0  0  0  0  0  0  0
   11.3173   -5.5603   19.5205 C   0  0  0  0  0  0  0  0  0  0  0  0
    4.4481   -9.2028   17.6830 O   0  0  0  0  0  0  0  0  0  0  0  0
    8.6571   -7.2083   18.0970 C   0  0  0  0  0  0  0  0  0  0  0  0
   11.2645   -3.0382   18.6342 O   0  0  0  0  0  0  0  0  0  0  0  0
   10.8174   -4.7461   18.3943 C   0  0  0  0  0  0  0  0  0  0  0  0
   11.1684   -3.5701   16.1256 C   0  0  0  0  0  0  0  0  0  0  0  0
  1 14  1  0
  6 26  1  0
 17 25  1  0
M  END
$$$$

 Created by Python create_sdf_string function

 26 28  0  0  0  0  0  0  0  0999 V2000
   10.9713   -4.5750   18.7833 C   0  0  0  0  0  0  0  0  0  0  0  0
   11.9031   -6.4288   18.0017 Se  0  0  0  0  0  0  0  0  0  0  0  0
    8.2555   -5.6001   17.8418 Cl  0  0  0  0  0  0  0  0  0  0  0  0
    4.5948   -6.1337   19.3956 F   0  0  0  0  0  0  0  0  0  0  0  0
    8.7123   -6.0960   18.2274 C   0  0  0  0  0  0  0  0  0  0  0  0
    9.3753   -6.3115   18.0890 N   0  0  0  0  0  0  0  0  0  0  0  0
    8.6477   -4.3580   15.4453 B   0  0  0  0  0  0  0  0  0  0  0  0
    4.0929   -7.7699   17.2019 Cl  0  0  0  0  0  0  0  0  0  0  0  0
    7.1460   -8.9683   16.1278 O   0  0  0  0  0  0  0  0  0  0  0  0
    8.4963   -7.6576   15.0979 C   0  0  0  0  0  0  0  0  0  0  0  0
   11.9206   -6.6053   20.5612 S   0  0  0  0  0  0  0  0  0  0  0  0
    8.9504   -7.9138   18.0984 N   0  0  0  0  0  0  0  0  0  0  0  0
    8.8478   -2.7216   18.7547 C   0  0  0  0  0  0  0  0  0  0  0  0
    8.0577   -3.6148   19.3598 He  0  0  0  0  0  0  0  0  0  0  0  0
    7.2053   -7.9578   18.9949 He  0  0  0  0  0  0  0  0  0  0  0  0
    8.6863   -8.7693   16.3087 He  0  0  0  0  0  0  0  0  0  0  0  0
    9.9917   -1.6201   15.4295 He  0  0  0  0  0  0  0  0  0  0  0  0
    7.3903   -8.1007   17.4471 He  0  0  0  0  0  0  0  0  0  0  0  0
    4.4761  -10.1406   17.5862 He  0  0  0  0  0  0  0  0  0  0  0  0
   10.6196   -3.2065   21.7475 He  0  0  0  0  0  0  0  0  0  0  0  0
    5.8172   -9.2018   17.0484 He  0  0  0  0  0  0  0  0  0  0  0  0
    7.4272   -8.2850   17.2469 He  0  0  0  0  0  0  0  0  0  0  0  0
   10.2472   -4.6455   18.6706 He  0  0  0  0  0  0  0  0  0  0  0  0
    3.6279   -8.4730   16.9140 He  0  0  0  0  0  0  0  0  0  0  0  0
   11.7672   -3.5348   19.2448 He  0  0  0  0  0  0  0  0  0  0  0  0
   12.3419   -2.2738   16.4866 He  0  0  0  0  0  0  0  0  0  0  0  0
  1  2  3  0
  1  4  3  0
  1  8  4  0
  2  3  4  0
  2  4  3  0
  2  5  3  0
  2  6  3  0
  2  7  4  0
  3  7  3  0
  3 11  3  0
  4 10  3  0
  4 11  3  0
  4 12  2  0
  5  6  1  0
  5  7  2  0
  5 11  3  0
  5 13  2  0
  6  7  4  0
  6  8  4  0
  6 12  2  0
  7  8  1  0
  7  9  3  0
  7 13  3  0
  8 10  3  0
  8 11  1  0
  8 13  4  0
 10 13  2  0
 11 13  4  0
M  END
$$$$

 Created by Python create_sdf_string function

 26  3  0  0  0  0  0  0  0  0999 V2000
    9.5641   -4.1619   19.7090 C   0  0  0  0  0  0  0  0  0  0  0  0
    7.4586   -7.8200   18.2628 C   0  0  0  0  0  0  0  0  0  0  0  0
   10.8335   -4.5470   18.6444 C   0  0  0  0  0  0  0  0  0  0  0  0
   11.0331   -5.8583   18.4912 C   0  0  0  0  0  0  0  0  0  0  0  0
    8.4841   -8.2784   16.1698 C   0  0  0  0  0  0  0  0  0  0  0  0
   10.4126   -3.5471   16.0310 C   0  0  0  0  0  0  0  0  0  0  0  0
    7.2852   -7.8782   17.4276 C   0  0  0  0  0  0  0  0  0  0  0  0
    8.6599   -5.9699   17.2702 C   0  0  0  0  0  0  0  0  0  0  0  0
    5.6000   -7.4931   18.3874 C   0  0  0  0  0  0  0  0  0  0  0  0
    9.0625   -6.2576   18.0524 C   0  0  0  0  0  0  0  0  0  0  0  0
    9.3243   -6.2274   17.9430 C   0  0  0  0  0  0  0  0  0  0  0  0
    9.3103   -4.4459   16.2077 C   0  0  0  0  0  0  0  0  0  0  0  0
    4.5821   -9.5036   17.5425 C   0  0  0  0  0  0  0  0  0  0  0  0
   10.7375   -3.8970   21.2032 O   0  0  0  0  0  0  0  0  0  0  0  0
    5.7586   -8.9898   16.9423 C   0  0  0  0  0  0  0  0  0  0  0  0
    6.9781   -8.2348   17.0357 C   0  0  0  0  0  0  0  0  0  0  0  0
   10.6360   -4.4746   18.5832 C   0  0  0  0  0  0  0  0  0  0  0  0
    4.3534   -8.4797   17.0691 C   0  0  0  0  0  0  0  0  0  0  0  0
    7.0513   -8.8088   15.8943 C   0  0  0  0  0  0  0  0  0  0  0  0
    8.2233   -7.9016   15.4609 C   0  0  0  0  0  0  0  0  0  0  0  0
   11.1641   -5.4168   20.2608 C   0  0  0  0  0  0  0  0  0  0  0  0
    4.0535   -8.6361   17.0281 C   0  0  0  0  0  0  0  0  0  0  0  0
    9.1260   -7.7729   18.0317 C   0  0  0  0  0  0  0  0  0  0  0  0
   10.0405   -3.6438   18.5607 C   0  0  0  0  0  0  0  0  0  0  0  0
   11.1622   -3.6979   19.1082 C   0  0  0  0  0  0  0  0  0  0  0  0
   11.5109   -3.2964   16.6301 C   0  0  0  0  0  0  0  0  0  0  0  0
  5 20  1  0
 10 11  1  0
 18 22  4  0
M  END
$$$$

 Created by Python create_sdf_string function

 26 70  0  0  0  0  0  0  0  0999 V2000
   10.0008   -4.2628   19.3012 O   0  0  0  0  0  0  0  0  0  0  0  0
    6.7668   -8.3099   18.2044 O   0  0  0  0  0  0  0  0  0  0  0  0
   11.2050   -5.2126   18.0399 C   0  0  0  0  0  0  0  0  0  0  0  0
   11.2988   -4.9821   18.0074 C   0  0  0  0  0  0  0  0  0  0  0  0
    7.3476   -8.2867   13.6781 C   0  0  0  0  0  0  0  0  0  0  0  0
   11.1923   -4.8824   15.2083 O   0  0  0  0  0  0  0  0  0  0  0  0
    9.0484   -6.8002   17.8427 P   0  0  0  0  0  0  0  0  0  0  0  0
    6.4118   -7.5269   17.9879 F   0  0  0  0  0  0  0  0  0  0  0  0
    8.6610   -5.3134   18.4990 P   0  0  0  0  0  0  0  0  0  0  0  0
   10.7598   -7.4033   18.3356 N   0  0  0  0  0  0  0  0  0  0  0  0
    7.4210   -3.2609   16.3767 P   0  0  0  0  0  0  0  0  0  0  0  0
    4.6015   -9.5991   17.0784 C   0  0  0  0  0  0  0  0  0  0  0  0
   12.0323   -3.5103   21.7864 N   0  0  0  0  0  0  0  0  0  0  0  0
    5.7302   -7.7961   15.7351 C   0  0  0  0  0  0  0  0  0  0  0  0
    7.5305   -8.6359   17.5702 C   0  0  0  0  0  0  0  0  0  0  0  0
    1.8763   -7.7948   14.6794 C   0  0  0  0  0  0  0  0  0  0  0  0
    8.9348   -7.5735   17.5723 P   0  0  0  0  0  0  0  0  0  0  0  0
   11.0941   -4.1235   18.3610 N   0  0  0  0  0  0  0  0  0  0  0  0
   11.3710   -2.8402   19.6899 C   0  0  0  0  0  0  0  0  0  0  0  0
   10.6810   -4.6504   16.9697 Cl  0  0  0  0  0  0  0  0  0  0  0  0
    7.9171   -8.3803   17.8750 He  0  0  0  0  0  0  0  0  0  0  0  0
   11.2259   -4.9926   16.4290 He  0  0  0  0  0  0  0  0  0  0  0  0
    6.5927   -9.0021   15.7225 He  0  0  0  0  0  0  0  0  0  0  0  0
    7.0415   -8.0114   15.2806 He  0  0  0  0  0  0  0  0  0  0  0  0
   11.0444   -5.5797   21.1428 He  0  0  0  0  0  0  0  0  0  0  0  0
    5.2090   -8.0554   16.7440 He  0  0  0  0  0  0  0  0  0  0  0  0
  1  8  1  0
  1  9  1  0
  1 11  3  0
  1 13  2  0
  1 14  1  0
  1 18  2  0
  1 20  1  0
  2  3  4  0
  2  4  4  0
  2  8  1  0
  2 17  1  0
  2 19  3  0
  3  5  3  0
  3  9  4  0
  3 12  3  0
  3 13  1  0
  3 17  1  0
  3 19  4  0
  4  5  4  0
  4  7  2  0
  4  8  1  0
  4  9  3  0
  4 12  2  0
  4 13  1  0
  4 16  2  0
  4 18  2  0
  5  6  1  0
  5  8  3  0
  5 16  3  0
  5 20  1  0
  6 10  3  0
  6 17  4  0
  6 18  4  0
  6 19  4  0
  7  9  3  0
  7 13  1  0
  7 16  1  0
  7 17  4  0
  7 18  1  0
  7 20  1  0
  8  9  2  0
  8 12  2  0
  8 13  1  0
  8 14  4  0
  8 18  4  0
  9 10  4  0
  9 15  1  0
  9 16  4  0
  9 18  1  0
 10 11  3  0
 10 13  4  0
 10 14  3  0
 10 17  2  0
 10 20  2  0
 11 12  3  0
 11 14  2  0
 11 17  3  0
 12 14  3  0
 13 16  3  0
 14 17  1  0
 14 19  1  0
 14 20  2  0
 15 17  1  0
 15 18  4  0
 16 18  2  0
 16 19  2  0
 16 20  3  0
 17 19  1  0
 18 20  1  0
 19 20  3  0
M  END
$$$$

 Created by Python create_sdf_string function

 26 11  0  0  0  0  0  0  0  0999 V2000
   10.1243   -4.5172   19.2862 C   0  0  0  0  0  0  0  0  0  0  0  0
    6.3731   -8.0206   18.1705 O   0  0  0  0  0  0  0  0  0  0  0  0
   10.8298   -5.1719   18.7268 C   0  0  0  0  0  0  0  0  0  0  0  0
   11.0641   -4.7338   18.3051 C   0  0  0  0  0  0  0  0  0  0  0  0
    7.5930   -8.4737   14.9906 C   0  0  0  0  0  0  0  0  0  0  0  0
   11.0932   -4.0709   15.7599 O   0  0  0  0  0  0  0  0  0  0  0  0
    7.8632   -7.9767   17.6972 C   0  0  0  0  0  0  0  0  0  0  0  0
    9.2212   -6.4754   17.7871 C   0  0  0  0  0  0  0  0  0  0  0  0
    6.3603   -7.8583   17.8419 C   0  0  0  0  0  0  0  0  0  0  0  0
    9.2934   -5.5814   18.3314 C   0  0  0  0  0  0  0  0  0  0  0  0
   10.2282   -7.0520   18.5575 C   0  0  0  0  0  0  0  0  0  0  0  0
    8.9200   -4.0621   16.0215 C   0  0  0  0  0  0  0  0  0  0  0  0
    4.4772   -8.5854   17.1319 C   0  0  0  0  0  0  0  0  0  0  0  0
   11.2921   -3.8945   21.2837 C   0  0  0  0  0  0  0  0  0  0  0  0
    5.4126   -7.9974   15.8341 C   0  0  0  0  0  0  0  0  0  0  0  0
    7.8697   -8.2395   17.2091 C   0  0  0  0  0  0  0  0  0  0  0  0
   10.8212   -4.2309   16.5343 C   0  0  0  0  0  0  0  0  0  0  0  0
    3.3634   -8.4874   15.8998 O   0  0  0  0  0  0  0  0  0  0  0  0
    6.4069   -8.5370   15.6881 C   0  0  0  0  0  0  0  0  0  0  0  0
    7.2476   -8.1944   15.5814 C   0  0  0  0  0  0  0  0  0  0  0  0
   11.0947   -4.9810   20.9960 C   0  0  0  0  0  0  0  0  0  0  0  0
    4.6868   -8.2546   16.6818 C   0  0  0  0  0  0  0  0  0  0  0  0
    8.8449   -7.5457   17.6412 C   0  0  0  0  0  0  0  0  0  0  0  0
   10.8557   -3.9910   18.6873 C   0  0  0  0  0  0  0  0  0  0  0  0
   11.1214   -3.4300   20.0337 C   0  0  0  0  0  0  0  0  0  0  0  0
   10.4245   -4.2011   16.8755 C   0  0  0  0  0  0  0  0  0  0  0  0
  2  9  1  0
  5 19  1  0
  5 20  1  0
  6 17  1  0
  7  9  1  0
  7 16  1  0
 13 22  4  0
 14 21  4  0
 14 25  4  0
 16 23  1  0
 17 26  1  0
M  END
$$$$

 Created by Python create_sdf_string function

 26 34  0  0  0  0  0  0  0  0999 V2000
   10.9018   -6.6220   20.3252 S   0  0  0  0  0  0  0  0  0  0  0  0
    8.3609   -8.4726   15.1587 F   0  0  0  0  0  0  0  0  0  0  0  0
    7.6148   -9.1240   18.1024 C   0  0  0  0  0  0  0  0  0  0  0  0
    6.7065   -7.2248   16.3845 Cl  0  0  0  0  0  0  0  0  0  0  0  0
    9.7430   -6.3342   18.1663 N   0  0  0  0  0  0  0  0  0  0  0  0
    8.7701   -5.5675   20.4166 C   0  0  0  0  0  0  0  0  0  0  0  0
    9.1500   -4.2981   17.9646 C   0  0  0  0  0  0  0  0  0  0  0  0
   11.6097   -4.1009   20.6149 Cl  0  0  0  0  0  0  0  0  0  0  0  0
    6.0571   -8.2820   16.1260 F   0  0  0  0  0  0  0  0  0  0  0  0
   11.4434   -4.4188   17.7318 N   0  0  0  0  0  0  0  0  0  0  0  0
    3.1152   -7.2191   15.9787 O   0  0  0  0  0  0  0  0  0  0  0  0
    7.4102   -9.0594   14.2018 B   0  0  0  0  0  0  0  0  0  0  0  0
    8.9277   -5.6553   18.0231 C   0  0  0  0  0  0  0  0  0  0  0  0
    9.9332   -3.7077   18.0618 F   0  0  0  0  0  0  0  0  0  0  0  0
   12.3391   -2.4972   19.2660 C   0  0  0  0  0  0  0  0  0  0  0  0
   10.7712   -6.7563   17.1194 C   0  0  0  0  0  0  0  0  0  0  0  0
   11.4890   -4.6349   17.8920 He  0  0  0  0  0  0  0  0  0  0  0  0
    7.0893   -8.4485   18.0606 He  0  0  0  0  0  0  0  0  0  0  0  0
   11.1855   -5.7721   17.9685 He  0  0  0  0  0  0  0  0  0  0  0  0
   10.9593   -3.4750   16.1526 He  0  0  0  0  0  0  0  0  0  0  0  0
    9.4625   -6.7473   18.5951 He  0  0  0  0  0  0  0  0  0  0  0  0
    5.6047   -9.6897   17.9613 He  0  0  0  0  0  0  0  0  0  0  0  0
    7.3863   -7.5027   18.4744 He  0  0  0  0  0  0  0  0  0  0  0  0
    5.5860   -8.7436   15.8662 He  0  0  0  0  0  0  0  0  0  0  0  0
    9.3127   -4.2802   22.3665 He  0  0  0  0  0  0  0  0  0  0  0  0
    5.0497  -10.1886   17.5970 He  0  0  0  0  0  0  0  0  0  0  0  0
  1  2  2  0
  1  5  4  0
  1  8  4  0
  1 11  1  0
  2  5  3  0
  2  7  4  0
  2  8  2  0
  2 13  4  0
  2 14  1  0
  3  6  1  0
  3 11  2  0
  3 13  4  0
  3 15  4  0
  4  6  1  0
  4  7  1  0
  4 13  1  0
  4 16  1  0
  5 10  2  0
  5 12  3  0
  5 15  1  0
  6  7  4  0
  6  8  3  0
  6  9  1  0
  6 16  4  0
  7  9  2  0
  8  9  4  0
  8 12  2  0
  8 13  2  0
  9 10  2  0
  9 16  2  0
 10 16  3  0
 11 12  3  0
 12 13  1  0
 13 15  2  0
M  END
$$$$

 Created by Python create_sdf_string function

 26  5  0  0  0  0  0  0  0  0999 V2000
   11.4375   -4.4471   17.9522 C   0  0  0  0  0  0  0  0  0  0  0  0
    7.0669   -8.1325   17.7640 C   0  0  0  0  0  0  0  0  0  0  0  0
   10.5645   -5.5103   19.9029 C   0  0  0  0  0  0  0  0  0  0  0  0
   10.9312   -5.4889   18.1814 C   0  0  0  0  0  0  0  0  0  0  0  0
    8.0992   -8.2069   15.6888 C   0  0  0  0  0  0  0  0  0  0  0  0
   10.9677   -3.7382   16.4266 C   0  0  0  0  0  0  0  0  0  0  0  0
    7.5824   -8.3164   17.8356 C   0  0  0  0  0  0  0  0  0  0  0  0
    9.4416   -6.9860   18.2851 C   0  0  0  0  0  0  0  0  0  0  0  0
    7.1395   -7.1328   16.5167 C   0  0  0  0  0  0  0  0  0  0  0  0
    9.6879   -6.4438   18.0840 C   0  0  0  0  0  0  0  0  0  0  0  0
    9.5470   -5.0837   19.5396 C   0  0  0  0  0  0  0  0  0  0  0  0
    9.5990   -4.5691   17.6873 C   0  0  0  0  0  0  0  0  0  0  0  0
    5.5721   -9.0074   17.8614 C   0  0  0  0  0  0  0  0  0  0  0  0
   11.1872   -4.1242   20.4144 C   0  0  0  0  0  0  0  0  0  0  0  0
    5.9566   -8.3950   16.1846 C   0  0  0  0  0  0  0  0  0  0  0  0
    7.4385   -7.6423   18.1378 C   0  0  0  0  0  0  0  0  0  0  0  0
   11.2767   -4.1895   17.5779 C   0  0  0  0  0  0  0  0  0  0  0  0
    4.1423   -8.2319   16.3782 O   0  0  0  0  0  0  0  0  0  0  0  0
    7.5209   -8.6380   15.2868 C   0  0  0  0  0  0  0  0  0  0  0  0
    5.6372   -8.6724   16.1473 C   0  0  0  0  0  0  0  0  0  0  0  0
   10.5674   -4.0779   21.3705 O   0  0  0  0  0  0  0  0  0  0  0  0
    5.0718   -9.3373   17.6897 C   0  0  0  0  0  0  0  0  0  0  0  0
    8.7699   -5.8735   17.5052 C   0  0  0  0  0  0  0  0  0  0  0  0
   10.1828   -3.7831   17.6230 C   0  0  0  0  0  0  0  0  0  0  0  0
   11.3908   -3.1118   19.3193 C   0  0  0  0  0  0  0  0  0  0  0  0
    9.8687   -6.5727   17.3372 C   0  0  0  0  0  0  0  0  0  0  0  0
  2  7  1  0
  5 19  1  0
 13 22  1  0
 14 21  1  0
 15 20  1  0
M  END
$$$$

 Created by Python create_sdf_string function

 26  7  0  0  0  0  0  0  0  0999 V2000
   11.2276   -5.3758   17.8904 F   0  0  0  0  0  0  0  0  0  0  0  0
    5.5605   -6.8630   18.2686 C   0  0  0  0  0  0  0  0  0  0  0  0
   11.8113   -5.5118   18.8679 Se  0  0  0  0  0  0  0  0  0  0  0  0
   10.9800   -5.2102   19.5772 N   0  0  0  0  0  0  0  0  0  0  0  0
    6.4327   -8.5199   16.5617 C   0  0  0  0  0  0  0  0  0  0  0  0
    5.1067   -9.6773   17.7339 C   0  0  0  0  0  0  0  0  0  0  0  0
    7.0985  -10.4559   15.5018 O   0  0  0  0  0  0  0  0  0  0  0  0
   12.9240   -2.4616   20.4961 C   0  0  0  0  0  0  0  0  0  0  0  0
   10.6695   -4.0060   20.4366 He  0  0  0  0  0  0  0  0  0  0  0  0
    7.3619   -8.0159   15.6116 He  0  0  0  0  0  0  0  0  0  0  0  0
   11.5658   -4.5988   15.8961 He  0  0  0  0  0  0  0  0  0  0  0  0
    9.2673   -9.3928   17.2234 He  0  0  0  0  0  0  0  0  0  0  0  0
    8.2277   -6.2498   19.3108 He  0  0  0  0  0  0  0  0  0  0  0  0
    6.6634   -5.6201   17.7806 He  0  0  0  0  0  0  0  0  0  0  0  0
   10.5482   -7.1641   19.4372 He  0  0  0  0  0  0  0  0  0  0  0  0
    8.7776   -2.9976   16.7346 He  0  0  0  0  0  0  0  0  0  0  0  0
    5.6663   -9.0806   18.1027 He  0  0  0  0  0  0  0  0  0  0  0  0
    9.8391   -5.6409   20.7831 He  0  0  0  0  0  0  0  0  0  0  0  0
    7.3062   -7.3868   18.3729 He  0  0  0  0  0  0  0  0  0  0  0  0
   11.9567   -4.8026   17.6915 He  0  0  0  0  0  0  0  0  0  0  0  0
    6.8433   -7.6557   15.4300 He  0  0  0  0  0  0  0  0  0  0  0  0
   10.5097   -4.3602   21.9089 He  0  0  0  0  0  0  0  0  0  0  0  0
    4.8181  -10.5749   17.6639 He  0  0  0  0  0  0  0  0  0  0  0  0
    8.7470   -4.5379   17.3521 He  0  0  0  0  0  0  0  0  0  0  0  0
    9.0135   -2.0889   17.5822 He  0  0  0  0  0  0  0  0  0  0  0  0
   11.4480   -7.2469   18.6003 He  0  0  0  0  0  0  0  0  0  0  0  0
  1  6  4  0
  1  7  4  0
  2  8  4  0
  4  7  2  0
  5  6  1  0
  5  7  2  0
  5  8  1  0
M  END
$$$$

 Created by Python create_sdf_string function

 26  9  0  0  0  0  0  0  0  0999 V2000
   10.9607   -4.9842   17.7716 C   0  0  0  0  0  0  0  0  0  0  0  0
    6.2022   -7.5902   18.2025 C   0  0  0  0  0  0  0  0  0  0  0  0
   10.8901   -4.1347   20.7024 C   0  0  0  0  0  0  0  0  0  0  0  0
   11.6356   -5.1355   18.8440 C   0  0  0  0  0  0  0  0  0  0  0  0
    7.5761   -8.2905   15.8642 C   0  0  0  0  0  0  0  0  0  0  0  0
   11.3109   -4.0436   16.3073 C   0  0  0  0  0  0  0  0  0  0  0  0
    8.9518   -8.2406   17.2760 C   0  0  0  0  0  0  0  0  0  0  0  0
    8.8760   -6.2139   18.5571 C   0  0  0  0  0  0  0  0  0  0  0  0
    7.6736   -6.2641   17.3302 C   0  0  0  0  0  0  0  0  0  0  0  0
   10.3606   -6.8201   19.0218 C   0  0  0  0  0  0  0  0  0  0  0  0
   10.8621   -4.8715   19.8451 C   0  0  0  0  0  0  0  0  0  0  0  0
    9.4624   -3.8874   16.2140 C   0  0  0  0  0  0  0  0  0  0  0  0
    5.2688   -8.9806   17.9837 C   0  0  0  0  0  0  0  0  0  0  0  0
   10.6095   -5.1460   20.2031 C   0  0  0  0  0  0  0  0  0  0  0  0
    6.5497   -8.7386   16.5332 C   0  0  0  0  0  0  0  0  0  0  0  0
    7.0896   -7.4169   17.7760 C   0  0  0  0  0  0  0  0  0  0  0  0
   11.4856   -4.7141   17.7988 C   0  0  0  0  0  0  0  0  0  0  0  0
    5.1950   -9.0759   17.6835 C   0  0  0  0  0  0  0  0  0  0  0  0
    7.0417   -9.4834   15.0555 O   0  0  0  0  0  0  0  0  0  0  0  0
    7.2357   -8.1006   16.0082 C   0  0  0  0  0  0  0  0  0  0  0  0
   10.7349   -4.1299   21.7047 C   0  0  0  0  0  0  0  0  0  0  0  0
    4.9391   -9.7495   17.5303 C   0  0  0  0  0  0  0  0  0  0  0  0
    9.3837   -4.6525   16.7678 C   0  0  0  0  0  0  0  0  0  0  0  0
   10.2223   -3.2208   17.1925 O   0  0  0  0  0  0  0  0  0  0  0  0
   11.6653   -3.2071   20.8496 C   0  0  0  0  0  0  0  0  0  0  0  0
   10.5299   -6.9898   18.6396 C   0  0  0  0  0  0  0  0  0  0  0  0
  1 17  4  0
  2 16  4  0
  3 21  1  0
  5 20  4  0
 10 26  1  0
 11 14  4  0
 12 23  1  0
 13 18  4  0
 15 20  4  0
M  END
$$$$

 Created by Python create_sdf_string function

 26 59  0  0  0  0  0  0  0  0999 V2000
    6.7213   -7.4910   18.2458 N   0  0  0  0  0  0  0  0  0  0  0  0
    9.0019   -3.8259   20.1354 C   0  0  0  0  0  0  0  0  0  0  0  0
    6.9948   -8.6210   16.2163 P   0  0  0  0  0  0  0  0  0  0  0  0
    8.8637   -7.7712   17.2052 C   0  0  0  0  0  0  0  0  0  0  0  0
    8.9881   -5.4855   20.2202 F   0  0  0  0  0  0  0  0  0  0  0  0
    8.4400   -6.6829   16.0835 C   0  0  0  0  0  0  0  0  0  0  0  0
   10.0966   -4.9503   19.0957 F   0  0  0  0  0  0  0  0  0  0  0  0
   12.5456   -5.6253   19.7058 F   0  0  0  0  0  0  0  0  0  0  0  0
    8.9195   -4.4159   15.4871 Cl  0  0  0  0  0  0  0  0  0  0  0  0
    4.3081   -8.2599   18.7154 F   0  0  0  0  0  0  0  0  0  0  0  0
   10.6376   -5.4129   18.9119 O   0  0  0  0  0  0  0  0  0  0  0  0
    5.7970   -9.1503   15.5919 C   0  0  0  0  0  0  0  0  0  0  0  0
    6.7961   -7.2374   17.3771 C   0  0  0  0  0  0  0  0  0  0  0  0
   10.2721   -4.7749   15.8675 C   0  0  0  0  0  0  0  0  0  0  0  0
    7.4574   -7.7510   16.9907 C   0  0  0  0  0  0  0  0  0  0  0  0
    5.3612   -9.5800   17.1039 C   0  0  0  0  0  0  0  0  0  0  0  0
    8.8272   -5.0822   17.8246 Se  0  0  0  0  0  0  0  0  0  0  0  0
    8.6670   -3.9536   17.5619 O   0  0  0  0  0  0  0  0  0  0  0  0
   11.1436   -2.6229   21.0045 Cl  0  0  0  0  0  0  0  0  0  0  0  0
   10.6749   -8.4916   19.5192 C   0  0  0  0  0  0  0  0  0  0  0  0
   10.2710   -4.3578   16.9684 He  0  0  0  0  0  0  0  0  0  0  0  0
   12.4106   -5.3223   19.8646 He  0  0  0  0  0  0  0  0  0  0  0  0
   12.1819   -4.3813   14.3797 He  0  0  0  0  0  0  0  0  0  0  0  0
    5.3166   -8.1406   17.0653 He  0  0  0  0  0  0  0  0  0  0  0  0
    6.2883   -7.8242   14.6662 He  0  0  0  0  0  0  0  0  0  0  0  0
   10.7854   -3.6042   22.7113 He  0  0  0  0  0  0  0  0  0  0  0  0
  1  2  2  0
  1  3  3  0
  1  4  2  0
  1  7  4  0
  1 11  2  0
  1 12  2  0
  1 14  3  0
  1 15  3  0
  2  3  1  0
  2  4  2  0
  2 12  3  0
  2 13  1  0
  2 16  1  0
  3  5  1  0
  3 14  2  0
  3 15  4  0
  4  9  1  0
  4 10  2  0
  4 11  1  0
  4 15  4  0
  4 18  2  0
  4 20  2  0
  5  6  1  0
  5  8  4  0
  5 10  1  0
  5 15  2  0
  6 10  2  0
  6 11  4  0
  6 13  2  0
  6 17  4  0
  6 18  4  0
  6 20  4  0
  7  8  3  0
  7 11  3  0
  7 18  2  0
  7 20  1  0
  8 10  4  0
  8 11  2  0
  8 13  4  0
  8 15  1  0
  9 11  3  0
  9 12  2  0
  9 13  1  0
  9 19  4  0
  9 20  4  0
 10 16  1  0
 10 19  4  0
 10 20  2  0
 11 12  2  0
 11 18  4  0
 11 19  3  0
 11 20  3  0
 12 19  2  0
 13 17  4  0
 13 18  4  0
 14 19  3  0
 15 18  1  0
 15 20  2  0
 16 20  2  0
M  END
$$$$

 Created by Python create_sdf_string function

 26  5  0  0  0  0  0  0  0  0999 V2000
   10.6700   -4.2500   16.8866 C   0  0  0  0  0  0  0  0  0  0  0  0
    6.8085   -7.5260   17.9145 C   0  0  0  0  0  0  0  0  0  0  0  0
   10.1930   -4.0859   20.4681 C   0  0  0  0  0  0  0  0  0  0  0  0
   12.1867   -5.2626   20.1458 C   0  0  0  0  0  0  0  0  0  0  0  0
    7.0896   -8.3734   16.1231 C   0  0  0  0  0  0  0  0  0  0  0  0
   11.4190   -3.7294   15.4555 C   0  0  0  0  0  0  0  0  0  0  0  0
    8.9393   -7.7075   17.6237 C   0  0  0  0  0  0  0  0  0  0  0  0
   10.0840   -4.8862   19.7956 C   0  0  0  0  0  0  0  0  0  0  0  0
    8.4090   -6.4632   16.3471 C   0  0  0  0  0  0  0  0  0  0  0  0
   10.5085   -5.0626   19.1261 C   0  0  0  0  0  0  0  0  0  0  0  0
   12.1799   -5.3208   19.9798 C   0  0  0  0  0  0  0  0  0  0  0  0
    9.3971   -4.1689   15.8471 C   0  0  0  0  0  0  0  0  0  0  0  0
    4.9652   -8.5493   17.9413 O   0  0  0  0  0  0  0  0  0  0  0  0
   10.7735   -5.3544   18.8742 C   0  0  0  0  0  0  0  0  0  0  0  0
    5.9057   -8.8377   15.7727 C   0  0  0  0  0  0  0  0  0  0  0  0
    7.1501   -7.2844   17.5190 C   0  0  0  0  0  0  0  0  0  0  0  0
   10.3577   -4.2688   16.1492 C   0  0  0  0  0  0  0  0  0  0  0  0
    5.1520   -8.5354   16.9658 C   0  0  0  0  0  0  0  0  0  0  0  0
    6.7165   -8.1204   15.4780 C   0  0  0  0  0  0  0  0  0  0  0  0
    7.8023   -7.7895   16.8286 C   0  0  0  0  0  0  0  0  0  0  0  0
   11.0864   -3.6041   22.2344 O   0  0  0  0  0  0  0  0  0  0  0  0
    5.1930   -8.9340   17.2722 C   0  0  0  0  0  0  0  0  0  0  0  0
    9.2630   -5.5725   17.5509 C   0  0  0  0  0  0  0  0  0  0  0  0
    9.5479   -4.5017   17.1109 C   0  0  0  0  0  0  0  0  0  0  0  0
   11.2213   -3.7775   21.4359 C   0  0  0  0  0  0  0  0  0  0  0  0
    9.9808   -7.7012   18.6489 C   0  0  0  0  0  0  0  0  0  0  0  0
  2 16  1  0
  4 11  4  0
  7 26  1  0
 13 22  1  0
 21 25  1  0
M  END
$$$$

 Created by Python create_sdf_string function

 26 49  0  0  0  0  0  0  0  0999 V2000
    4.9934   -8.7902   18.8018 C   0  0  0  0  0  0  0  0  0  0  0  0
   11.3379   -4.1062   14.5601 F   0  0  0  0  0  0  0  0  0  0  0  0
    9.9916   -7.5297   16.7094 C   0  0  0  0  0  0  0  0  0  0  0  0
    8.6003   -5.6823   19.9760 C   0  0  0  0  0  0  0  0  0  0  0  0
    6.7369   -6.9839   16.3551 O   0  0  0  0  0  0  0  0  0  0  0  0
   11.9525   -6.2487   19.6572 C   0  0  0  0  0  0  0  0  0  0  0  0
   10.2898   -4.4573   17.0915 C   0  0  0  0  0  0  0  0  0  0  0  0
    5.4726   -9.1248   16.4558 S   0  0  0  0  0  0  0  0  0  0  0  0
   10.4506   -5.2173   18.4691 S   0  0  0  0  0  0  0  0  0  0  0  0
    9.9007   -4.5255   17.6966 N   0  0  0  0  0  0  0  0  0  0  0  0
    5.9395   -8.8589   18.2778 N   0  0  0  0  0  0  0  0  0  0  0  0
    6.1517   -7.8050   14.2745 O   0  0  0  0  0  0  0  0  0  0  0  0
    7.0407   -5.5911   17.8171 O   0  0  0  0  0  0  0  0  0  0  0  0
   10.3708   -3.3831   22.9744 C   0  0  0  0  0  0  0  0  0  0  0  0
    5.4546   -9.8997   16.7037 P   0  0  0  0  0  0  0  0  0  0  0  0
    9.1639   -4.7434   18.0157 C   0  0  0  0  0  0  0  0  0  0  0  0
    9.0115   -4.3643   17.2529 N   0  0  0  0  0  0  0  0  0  0  0  0
   11.8268   -5.0138   21.8700 N   0  0  0  0  0  0  0  0  0  0  0  0
   10.6922   -4.3065   16.5662 He  0  0  0  0  0  0  0  0  0  0  0  0
   10.3139   -3.3117   19.7438 He  0  0  0  0  0  0  0  0  0  0  0  0
   11.9371   -5.2561   19.4140 He  0  0  0  0  0  0  0  0  0  0  0  0
    7.2665   -6.9873   14.7382 He  0  0  0  0  0  0  0  0  0  0  0  0
   12.4060   -5.0154   20.7642 He  0  0  0  0  0  0  0  0  0  0  0  0
    6.6289   -6.9976   15.7731 He  0  0  0  0  0  0  0  0  0  0  0  0
    6.4869   -8.5071   18.2792 He  0  0  0  0  0  0  0  0  0  0  0  0
    8.2589   -8.4294   19.5990 He  0  0  0  0  0  0  0  0  0  0  0  0
  1  2  3  0
  1  3  1  0
  1  5  3  0
  1 10  4  0
  1 11  4  0
  1 17  2  0
  1 18  2  0
  2  3  1  0
  2  4  4  0
  2  6  3  0
  2 11  1  0
  3  4  4  0
  3  7  3  0
  3 15  2  0
  3 17  4  0
  4  6  1  0
  4 13  1  0
  5  8  1  0
  5  9  2  0
  5 17  2  0
  6 12  2  0
  6 14  1  0
  6 18  2  0
  7  9  2  0
  7 10  1  0
  7 11  3  0
  7 13  2  0
  7 17  4  0
  8 16  1  0
  9 12  2  0
  9 13  4  0
  9 15  1  0
  9 16  3  0
  9 17  1  0
  9 18  1  0
 10 14  3  0
 10 16  4  0
 11 13  2  0
 11 15  2  0
 12 16  3  0
 12 18  1  0
 13 14  1  0
 13 15  4  0
 13 16  2  0
 13 17  4  0
 14 16  3  0
 14 17  3  0
 14 18  1  0
 17 18  1  0
M  END
$$$$

 Created by Python create_sdf_string function

 26  9  0  0  0  0  0  0  0  0999 V2000
   10.8301   -3.9170   16.1807 C   0  0  0  0  0  0  0  0  0  0  0  0
    5.7715   -8.8253   18.0503 C   0  0  0  0  0  0  0  0  0  0  0  0
   10.5825   -3.9769   20.1963 C   0  0  0  0  0  0  0  0  0  0  0  0
   11.8037   -5.3449   19.7491 C   0  0  0  0  0  0  0  0  0  0  0  0
    7.4361   -7.0234   15.4771 C   0  0  0  0  0  0  0  0  0  0  0  0
   11.0355   -3.7277   15.5359 C   0  0  0  0  0  0  0  0  0  0  0  0
    9.2513   -7.2196   16.9965 C   0  0  0  0  0  0  0  0  0  0  0  0
    9.1476   -5.9310   18.9399 C   0  0  0  0  0  0  0  0  0  0  0  0
    6.8959   -7.2480   16.4362 C   0  0  0  0  0  0  0  0  0  0  0  0
   11.9063   -5.4789   19.9132 C   0  0  0  0  0  0  0  0  0  0  0  0
   12.1122   -5.0458   20.9238 C   0  0  0  0  0  0  0  0  0  0  0  0
   10.2687   -4.3499   16.9449 C   0  0  0  0  0  0  0  0  0  0  0  0
    5.4988   -8.8351   16.4183 C   0  0  0  0  0  0  0  0  0  0  0  0
   10.3712   -4.8916   18.9869 C   0  0  0  0  0  0  0  0  0  0  0  0
    7.0235   -7.1562   15.8441 C   0  0  0  0  0  0  0  0  0  0  0  0
    6.8478   -8.0171   17.9397 C   0  0  0  0  0  0  0  0  0  0  0  0
   10.1487   -4.4710   17.4269 C   0  0  0  0  0  0  0  0  0  0  0  0
    6.1058   -8.6181   18.1072 C   0  0  0  0  0  0  0  0  0  0  0  0
    6.3738   -7.9380   15.2080 C   0  0  0  0  0  0  0  0  0  0  0  0
    7.6994   -6.3375   18.0023 C   0  0  0  0  0  0  0  0  0  0  0  0
   11.1044   -3.9503   22.3453 C   0  0  0  0  0  0  0  0  0  0  0  0
    5.3029   -9.3745   16.6360 C   0  0  0  0  0  0  0  0  0  0  0  0
    9.4642   -5.2370   17.8332 C   0  0  0  0  0  0  0  0  0  0  0  0
    9.4840   -4.6242   16.6715 C   0  0  0  0  0  0  0  0  0  0  0  0
   11.3801   -4.5102   21.8027 C   0  0  0  0  0  0  0  0  0  0  0  0
    8.2695   -7.8353   18.6425 C   0  0  0  0  0  0  0  0  0  0  0  0
  1  6  4  0
  2 18  4  0
  3 14  4  0
  4 10  4  0
  5 15  4  0
 10 11  4  0
 13 22  4  0
 16 18  1  0
 21 25  1  0
M  END
$$$$

 Created by Python create_sdf_string function

 26 38  0  0  0  0  0  0  0  0999 V2000
   10.2019   -4.8169   15.3047 C   0  0  0  0  0  0  0  0  0  0  0  0
   11.4386   -4.3789   20.1710 F   0  0  0  0  0  0  0  0  0  0  0  0
   10.9695   -5.1852   20.9641 N   0  0  0  0  0  0  0  0  0  0  0  0
    7.8413   -7.3324   14.7163 B   0  0  0  0  0  0  0  0  0  0  0  0
   10.2553   -3.2845   16.0046 C   0  0  0  0  0  0  0  0  0  0  0  0
    7.4838   -8.2012   17.0231 P   0  0  0  0  0  0  0  0  0  0  0  0
   11.6970   -5.9324   20.9018 S   0  0  0  0  0  0  0  0  0  0  0  0
    6.2994   -8.0435   16.7799 B   0  0  0  0  0  0  0  0  0  0  0  0
    6.8006   -7.6503   15.3041 C   0  0  0  0  0  0  0  0  0  0  0  0
    7.8199   -7.2602   17.9851 C   0  0  0  0  0  0  0  0  0  0  0  0
    5.9650   -7.6657   18.8959 P   0  0  0  0  0  0  0  0  0  0  0  0
    6.7355   -6.5578   16.6726 N   0  0  0  0  0  0  0  0  0  0  0  0
    8.8180   -3.6721   17.5237 Cl  0  0  0  0  0  0  0  0  0  0  0  0
   12.1567   -5.3951   21.3523 C   0  0  0  0  0  0  0  0  0  0  0  0
    7.7647   -8.0581   19.9118 S   0  0  0  0  0  0  0  0  0  0  0  0
    5.6545   -8.4093   16.7284 He  0  0  0  0  0  0  0  0  0  0  0  0
    6.9194   -6.7467   17.3336 He  0  0  0  0  0  0  0  0  0  0  0  0
    8.7086   -5.7739   18.7682 He  0  0  0  0  0  0  0  0  0  0  0  0
   12.0819   -4.3683   19.8917 He  0  0  0  0  0  0  0  0  0  0  0  0
   10.6425   -4.5861   16.2168 He  0  0  0  0  0  0  0  0  0  0  0  0
   10.8605   -4.6789   18.7136 He  0  0  0  0  0  0  0  0  0  0  0  0
    9.7574   -4.6686   18.3717 He  0  0  0  0  0  0  0  0  0  0  0  0
    5.5468   -9.0772   14.4261 He  0  0  0  0  0  0  0  0  0  0  0  0
   10.7676   -4.3265   22.4276 He  0  0  0  0  0  0  0  0  0  0  0  0
    6.0433  -10.3281   16.7529 He  0  0  0  0  0  0  0  0  0  0  0  0
    9.8582   -4.6615   18.1438 He  0  0  0  0  0  0  0  0  0  0  0  0
  1  5  1  0
  1 12  1  0
  2  4  1  0
  2  6  3  0
  2  7  3  0
  2 10  4  0
  2 14  2  0
  2 15  3  0
  3  6  1  0
  3  8  4  0
  3  9  3  0
  3 11  4  0
  3 12  1  0
  3 14  2  0
  4  5  2  0
  4  7  1  0
  4  8  3  0
  4 11  2  0
  4 12  4  0
  4 15  1  0
  5 12  4  0
  5 13  2  0
  6 10  3  0
  7  9  4  0
  7 13  2  0
  8  9  3  0
  8 13  2  0
  9 10  2  0
  9 11  4  0
  9 13  4  0
  9 15  3  0
 10 15  1  0
 11 13  3  0
 11 14  1  0
 12 15  1  0
 13 14  2  0
 13 15  3  0
 14 15  2  0
M  END
$$$$

 Created by Python create_sdf_string function

 26  5  0  0  0  0  0  0  0  0999 V2000
   10.1161   -4.4017   15.9211 C   0  0  0  0  0  0  0  0  0  0  0  0
    5.6074   -8.3365   16.8464 C   0  0  0  0  0  0  0  0  0  0  0  0
   11.2980   -4.3149   20.1017 C   0  0  0  0  0  0  0  0  0  0  0  0
   10.9164   -4.6346   21.0760 C   0  0  0  0  0  0  0  0  0  0  0  0
    7.9259   -7.5988   15.4266 C   0  0  0  0  0  0  0  0  0  0  0  0
   10.3831   -3.8927   16.0038 C   0  0  0  0  0  0  0  0  0  0  0  0
    7.4232   -6.9971   17.2032 C   0  0  0  0  0  0  0  0  0  0  0  0
    9.0968   -5.9494   18.2612 C   0  0  0  0  0  0  0  0  0  0  0  0
    7.8655   -8.2726   16.9293 C   0  0  0  0  0  0  0  0  0  0  0  0
   11.6613   -4.3946   19.9947 C   0  0  0  0  0  0  0  0  0  0  0  0
   11.4389   -4.9701   21.0193 C   0  0  0  0  0  0  0  0  0  0  0  0
   10.9096   -4.1348   16.5708 C   0  0  0  0  0  0  0  0  0  0  0  0
    6.1143   -8.0501   16.7225 C   0  0  0  0  0  0  0  0  0  0  0  0
   10.8821   -4.5557   18.7425 C   0  0  0  0  0  0  0  0  0  0  0  0
    6.8056   -7.7256   15.7390 C   0  0  0  0  0  0  0  0  0  0  0  0
    8.2173   -7.2923   17.8307 C   0  0  0  0  0  0  0  0  0  0  0  0
    9.7397   -5.1592   18.2432 C   0  0  0  0  0  0  0  0  0  0  0  0
    6.1819   -7.8933   18.3252 C   0  0  0  0  0  0  0  0  0  0  0  0
    5.9814   -8.9855   15.3719 O   0  0  0  0  0  0  0  0  0  0  0  0
    7.3201   -6.7703   16.4661 C   0  0  0  0  0  0  0  0  0  0  0  0
   11.2375   -4.3321   22.3691 C   0  0  0  0  0  0  0  0  0  0  0  0
    6.1744   -9.6505   16.6465 O   0  0  0  0  0  0  0  0  0  0  0  0
   10.0319   -4.8025   18.0624 C   0  0  0  0  0  0  0  0  0  0  0  0
    9.5487   -4.2532   17.0377 C   0  0  0  0  0  0  0  0  0  0  0  0
   12.0888   -4.6585   21.8186 C   0  0  0  0  0  0  0  0  0  0  0  0
    8.1717   -7.8710   18.4799 C   0  0  0  0  0  0  0  0  0  0  0  0
  1  6  1  0
  2 13  1  0
 16 26  1  0
 19 22  1  0
 21 25  4  0
M  END
$$$$

 Created by Python create_sdf_string function

 26 17  0  0  0  0  0  0  0  0999 V2000
    5.6576   -8.8649   16.4184 O   0  0  0  0  0  0  0  0  0  0  0  0
   12.5389   -3.3879   19.5764 B   0  0  0  0  0  0  0  0  0  0  0  0
   11.2979   -5.6074   20.9974 F   0  0  0  0  0  0  0  0  0  0  0  0
    7.9115   -7.9321   16.5627 O   0  0  0  0  0  0  0  0  0  0  0  0
    9.9424   -3.0381   17.1350 C   0  0  0  0  0  0  0  0  0  0  0  0
    8.2421   -9.4107   16.4356 P   0  0  0  0  0  0  0  0  0  0  0  0
   12.0689   -4.9661   19.3956 S   0  0  0  0  0  0  0  0  0  0  0  0
   10.4956   -6.5843   17.8420 C   0  0  0  0  0  0  0  0  0  0  0  0
    5.6795   -5.8797   15.1145 I   0  0  0  0  0  0  0  0  0  0  0  0
   10.3218   -5.2713   18.3007 C   0  0  0  0  0  0  0  0  0  0  0  0
    8.1079   -8.1937   18.0140 O   0  0  0  0  0  0  0  0  0  0  0  0
    9.8382   -4.8179   16.1602 He  0  0  0  0  0  0  0  0  0  0  0  0
    5.7894   -7.3081   17.3784 He  0  0  0  0  0  0  0  0  0  0  0  0
    8.2262   -6.0362   19.0564 He  0  0  0  0  0  0  0  0  0  0  0  0
   12.0814   -5.4719   19.2451 He  0  0  0  0  0  0  0  0  0  0  0  0
   10.2936   -3.5892   16.7043 He  0  0  0  0  0  0  0  0  0  0  0  0
    5.9492   -9.0759   15.6100 He  0  0  0  0  0  0  0  0  0  0  0  0
    9.4224   -4.9065   18.6781 He  0  0  0  0  0  0  0  0  0  0  0  0
    8.4454   -6.9130   16.4142 He  0  0  0  0  0  0  0  0  0  0  0  0
    8.1259   -7.2509   17.4116 He  0  0  0  0  0  0  0  0  0  0  0  0
    7.0185   -7.7257   18.2480 He  0  0  0  0  0  0  0  0  0  0  0  0
    5.4192   -8.5847   13.9911 He  0  0  0  0  0  0  0  0  0  0  0  0
   11.7717   -4.5572   23.6655 He  0  0  0  0  0  0  0  0  0  0  0  0
    7.3481   -9.2911   15.2270 He  0  0  0  0  0  0  0  0  0  0  0  0
    9.8440   -4.3944   17.4832 He  0  0  0  0  0  0  0  0  0  0  0  0
   12.8934   -3.2306   22.7010 He  0  0  0  0  0  0  0  0  0  0  0  0
  1  2  3  0
  1  4  4  0
  1  5  2  0
  2  3  3  0
  2  5  2  0
  2  9  3  0
  2 10  4  0
  2 11  1  0
  3  5  3  0
  3  6  2  0
  3 11  2  0
  4  6  2  0
  5  8  2  0
  6  7  1  0
  7 10  3  0
  8 10  1  0
 10 11  4  0
M  END
$$$$

 Created by Python create_sdf_string function

 26  5  0  0  0  0  0  0  0  0999 V2000
    9.5709   -4.5530   16.3121 C   0  0  0  0  0  0  0  0  0  0  0  0
    5.5142   -8.4249   16.8359 C   0  0  0  0  0  0  0  0  0  0  0  0
   11.9100   -3.9611   20.6382 C   0  0  0  0  0  0  0  0  0  0  0  0
   11.2393   -4.8846   21.4735 C   0  0  0  0  0  0  0  0  0  0  0  0
    7.8203   -8.0005   16.5786 C   0  0  0  0  0  0  0  0  0  0  0  0
   10.4928   -3.7842   16.9252 C   0  0  0  0  0  0  0  0  0  0  0  0
    5.9057   -7.6435   17.1705 C   0  0  0  0  0  0  0  0  0  0  0  0
    8.8413   -6.1455   18.6553 C   0  0  0  0  0  0  0  0  0  0  0  0
    8.1725   -8.5358   16.2573 C   0  0  0  0  0  0  0  0  0  0  0  0
   11.6834   -5.2282   19.7936 C   0  0  0  0  0  0  0  0  0  0  0  0
   11.7509   -4.9263   20.0218 C   0  0  0  0  0  0  0  0  0  0  0  0
   10.5329   -3.8141   16.7238 C   0  0  0  0  0  0  0  0  0  0  0  0
    5.8435   -8.7108   15.8247 C   0  0  0  0  0  0  0  0  0  0  0  0
   10.0734   -5.0343   18.8647 C   0  0  0  0  0  0  0  0  0  0  0  0
    8.3988   -6.5078   16.3137 C   0  0  0  0  0  0  0  0  0  0  0  0
    8.3686   -7.1376   17.4632 C   0  0  0  0  0  0  0  0  0  0  0  0
   10.1847   -6.3353   18.3530 C   0  0  0  0  0  0  0  0  0  0  0  0
    6.8702   -7.6559   17.8901 C   0  0  0  0  0  0  0  0  0  0  0  0
    5.5357   -8.5361   15.2247 C   0  0  0  0  0  0  0  0  0  0  0  0
    6.3382   -6.7312   15.5671 C   0  0  0  0  0  0  0  0  0  0  0  0
   11.5931   -4.4384   22.6913 C   0  0  0  0  0  0  0  0  0  0  0  0
    7.2876   -8.8751   15.4103 C   0  0  0  0  0  0  0  0  0  0  0  0
   10.5425   -5.2544   18.7988 C   0  0  0  0  0  0  0  0  0  0  0  0
   10.1836   -4.3124   17.2066 C   0  0  0  0  0  0  0  0  0  0  0  0
   12.5076   -3.7393   22.0477 C   0  0  0  0  0  0  0  0  0  0  0  0
    8.4448   -7.9871   17.9790 C   0  0  0  0  0  0  0  0  0  0  0  0
  4 21  4  0
  5  9  1  0
  6 12  4  0
 13 19  1  0
 17 23  1  0
M  END
$$$$

 Created by Python create_sdf_string function

 26 33  0  0  0  0  0  0  0  0999 V2000
    9.6737   -4.8426   16.4427 S   0  0  0  0  0  0  0  0  0  0  0  0
    6.3490   -7.8432   17.1142 B   0  0  0  0  0  0  0  0  0  0  0  0
   11.7220   -4.3476   20.7106 O   0  0  0  0  0  0  0  0  0  0  0  0
    7.8326   -8.1873   17.2792 O   0  0  0  0  0  0  0  0  0  0  0  0
    4.3964   -6.5361   14.8655 P   0  0  0  0  0  0  0  0  0  0  0  0
    8.7095   -5.3212   19.2499 P   0  0  0  0  0  0  0  0  0  0  0  0
    8.7247   -8.7829   17.3794 O   0  0  0  0  0  0  0  0  0  0  0  0
   10.9994   -5.5736   20.2928 C   0  0  0  0  0  0  0  0  0  0  0  0
    8.9736   -5.4209   17.9303 Br  0  0  0  0  0  0  0  0  0  0  0  0
    7.3320   -5.7238   16.3684 F   0  0  0  0  0  0  0  0  0  0  0  0
    5.7963   -6.1525   15.2281 Se  0  0  0  0  0  0  0  0  0  0  0  0
   11.2882   -3.9141   22.4110 O   0  0  0  0  0  0  0  0  0  0  0  0
   10.2552   -5.2152   18.2102 C   0  0  0  0  0  0  0  0  0  0  0  0
    9.6484   -8.2010   17.4420 Se  0  0  0  0  0  0  0  0  0  0  0  0
   12.8594   -6.8407   20.9600 He  0  0  0  0  0  0  0  0  0  0  0  0
    9.3488   -2.6865   17.0833 He  0  0  0  0  0  0  0  0  0  0  0  0
   13.1614   -4.7908   21.0987 He  0  0  0  0  0  0  0  0  0  0  0  0
    9.9136   -1.9289   16.8344 He  0  0  0  0  0  0  0  0  0  0  0  0
    4.6475   -9.3687   15.7134 He  0  0  0  0  0  0  0  0  0  0  0  0
    8.4057   -8.2294   18.4886 He  0  0  0  0  0  0  0  0  0  0  0  0
    9.4560   -5.2887   19.4500 He  0  0  0  0  0  0  0  0  0  0  0  0
    6.9633   -7.4615   18.2803 He  0  0  0  0  0  0  0  0  0  0  0  0
    6.3992   -8.0177   16.3864 He  0  0  0  0  0  0  0  0  0  0  0  0
    7.1854   -9.5458   14.1691 He  0  0  0  0  0  0  0  0  0  0  0  0
   10.4056   -5.4994   18.3097 He  0  0  0  0  0  0  0  0  0  0  0  0
   12.9119   -2.8289   22.5854 He  0  0  0  0  0  0  0  0  0  0  0  0
  1  5  1  0
  1  7  3  0
  1  9  3  0
  1 11  2  0
  1 14  3  0
  2  7  1  0
  2 12  4  0
  2 13  1  0
  3  4  3  0
  3  7  2  0
  3  8  1  0
  3 11  4  0
  3 12  2  0
  4  5  2  0
  4  6  2  0
  4  7  1  0
  4 13  2  0
  5  8  1  0
  5 10  3  0
  5 13  3  0
  5 14  2  0
  6 11  1  0
  7  9  3  0
  7 12  1  0
  8 12  4  0
  8 13  3  0
  9 11  3  0
  9 13  3  0
 10 13  1  0
 11 13  3  0
 11 14  4  0
 12 13  1  0
 12 14  3  0
M  END
$$$$

 Created by Python create_sdf_string function

 26  7  0  0  0  0  0  0  0  0999 V2000
    9.7348   -4.5258   16.4164 C   0  0  0  0  0  0  0  0  0  0  0  0
    6.5607   -7.9957   17.0302 C   0  0  0  0  0  0  0  0  0  0  0  0
   11.5526   -4.3756   21.1062 C   0  0  0  0  0  0  0  0  0  0  0  0
   12.8546   -5.2332   20.9174 C   0  0  0  0  0  0  0  0  0  0  0  0
    7.7213   -8.1396   17.0824 C   0  0  0  0  0  0  0  0  0  0  0  0
   10.1321   -3.7929   16.5484 C   0  0  0  0  0  0  0  0  0  0  0  0
    4.9240   -7.4195   15.6493 C   0  0  0  0  0  0  0  0  0  0  0  0
    9.1664   -5.4351   18.9563 C   0  0  0  0  0  0  0  0  0  0  0  0
    8.6260   -8.2775   17.3163 C   0  0  0  0  0  0  0  0  0  0  0  0
   11.1419   -4.8589   20.4743 C   0  0  0  0  0  0  0  0  0  0  0  0
   12.9775   -4.7998   21.6563 C   0  0  0  0  0  0  0  0  0  0  0  0
   10.6905   -3.4544   16.6998 C   0  0  0  0  0  0  0  0  0  0  0  0
    5.0344   -8.5827   15.8482 C   0  0  0  0  0  0  0  0  0  0  0  0
    9.2784   -5.6569   17.5507 C   0  0  0  0  0  0  0  0  0  0  0  0
    7.6900   -6.0995   16.3546 C   0  0  0  0  0  0  0  0  0  0  0  0
    8.5055   -7.7591   18.1672 F   0  0  0  0  0  0  0  0  0  0  0  0
   10.3562   -5.0348   19.5176 C   0  0  0  0  0  0  0  0  0  0  0  0
    7.3350   -7.2519   17.9584 C   0  0  0  0  0  0  0  0  0  0  0  0
    6.2779   -8.3455   16.2222 C   0  0  0  0  0  0  0  0  0  0  0  0
    5.9582   -6.8640   15.5781 C   0  0  0  0  0  0  0  0  0  0  0  0
   11.3010   -3.8970   22.3071 C   0  0  0  0  0  0  0  0  0  0  0  0
    6.9695   -9.3500   15.3679 O   0  0  0  0  0  0  0  0  0  0  0  0
   10.3512   -4.9846   18.1778 C   0  0  0  0  0  0  0  0  0  0  0  0
   10.4929   -5.2480   18.4371 C   0  0  0  0  0  0  0  0  0  0  0  0
   12.5274   -3.7502   22.5227 C   0  0  0  0  0  0  0  0  0  0  0  0
    9.3530   -7.8429   17.8668 F   0  0  0  0  0  0  0  0  0  0  0  0
  4 11  4  0
  5  9  1  0
  6 12  4  0
  7 13  4  0
  7 20  4  0
 11 25  4  0
 21 25  4  0
M  END
$$$$

 Created by Python create_sdf_string function

 26 32  0  0  0  0  0  0  0  0999 V2000
    9.2497   -4.7835   16.3541 C   0  0  0  0  0  0  0  0  0  0  0  0
    6.5066   -7.1706   17.3739 Cl  0  0  0  0  0  0  0  0  0  0  0  0
   12.0023   -4.7865   18.4359 S   0  0  0  0  0  0  0  0  0  0  0  0
   12.4739   -6.0698   22.8469 Cl  0  0  0  0  0  0  0  0  0  0  0  0
    9.3434   -7.9990   17.4166 N   0  0  0  0  0  0  0  0  0  0  0  0
   14.0839   -3.6529   20.8093 S   0  0  0  0  0  0  0  0  0  0  0  0
   10.5407   -3.1078   16.1836 C   0  0  0  0  0  0  0  0  0  0  0  0
    5.9847   -8.5924   15.2084 F   0  0  0  0  0  0  0  0  0  0  0  0
    8.3591   -7.8013   17.3240 F   0  0  0  0  0  0  0  0  0  0  0  0
    6.2964   -8.3455   17.0772 C   0  0  0  0  0  0  0  0  0  0  0  0
    7.4032   -6.7981   16.4638 Se  0  0  0  0  0  0  0  0  0  0  0  0
    6.5229   -8.5296   16.0372 O   0  0  0  0  0  0  0  0  0  0  0  0
    9.9630   -6.6131   18.1365 O   0  0  0  0  0  0  0  0  0  0  0  0
    6.2794   -8.2945   17.7615 He  0  0  0  0  0  0  0  0  0  0  0  0
   11.6299   -3.4352   16.7312 He  0  0  0  0  0  0  0  0  0  0  0  0
    4.5247   -7.6717   13.7455 He  0  0  0  0  0  0  0  0  0  0  0  0
    9.0592   -5.6589   19.1709 He  0  0  0  0  0  0  0  0  0  0  0  0
   10.9087   -5.3500   20.2823 He  0  0  0  0  0  0  0  0  0  0  0  0
    9.2920   -5.5446   17.0547 He  0  0  0  0  0  0  0  0  0  0  0  0
    6.9325   -5.5168   17.3534 He  0  0  0  0  0  0  0  0  0  0  0  0
   10.2317   -5.3968   19.9512 He  0  0  0  0  0  0  0  0  0  0  0  0
    6.1518   -7.6106   16.6332 He  0  0  0  0  0  0  0  0  0  0  0  0
   11.3514   -2.6297   21.9958 He  0  0  0  0  0  0  0  0  0  0  0  0
   10.2843   -5.6869   18.5591 He  0  0  0  0  0  0  0  0  0  0  0  0
   11.2520   -3.3488   23.0678 He  0  0  0  0  0  0  0  0  0  0  0  0
    8.5179   -7.8064   18.3886 He  0  0  0  0  0  0  0  0  0  0  0  0
  1  2  1  0
  1  3  1  0
  1  4  4  0
  1  7  3  0
  1 10  2  0
  1 11  1  0
  1 12  3  0
  2 10  3  0
  2 11  1  0
  2 13  1  0
  3 10  2  0
  3 12  4  0
  4  5  2  0
  4  6  3  0
  4 10  1  0
  5  6  1  0
  5  8  2  0
  5 12  2  0
  6  8  4  0
  6 13  4  0
  7 10  4  0
  7 13  4  0
  8  9  1  0
  8 10  3  0
  8 11  2  0
  8 12  4  0
  9 11  3  0
  9 12  4  0
 10 12  4  0
 10 13  4  0
 11 12  2  0
 11 13  2  0
M  END
$$$$

 Created by Python create_sdf_string function

 26  7  0  0  0  0  0  0  0  0999 V2000
    9.4882   -4.5249   16.4160 C   0  0  0  0  0  0  0  0  0  0  0  0
    6.6638   -7.3493   17.3019 C   0  0  0  0  0  0  0  0  0  0  0  0
   11.2247   -4.3999   18.6656 C   0  0  0  0  0  0  0  0  0  0  0  0
   11.9268   -5.0161   22.5071 C   0  0  0  0  0  0  0  0  0  0  0  0
    6.4809   -8.2560   17.8168 C   0  0  0  0  0  0  0  0  0  0  0  0
   11.1943   -3.6837   16.9105 C   0  0  0  0  0  0  0  0  0  0  0  0
    5.0479   -7.9598   15.2239 C   0  0  0  0  0  0  0  0  0  0  0  0
    9.8437   -5.6013   19.0555 C   0  0  0  0  0  0  0  0  0  0  0  0
    9.0071   -7.8456   17.5732 C   0  0  0  0  0  0  0  0  0  0  0  0
   11.1451   -4.8418   20.5473 C   0  0  0  0  0  0  0  0  0  0  0  0
   12.8347   -3.8612   21.6644 C   0  0  0  0  0  0  0  0  0  0  0  0
   10.6954   -3.7978   16.4128 C   0  0  0  0  0  0  0  0  0  0  0  0
    6.1002   -8.6024   15.7143 C   0  0  0  0  0  0  0  0  0  0  0  0
    9.4483   -5.3164   17.0982 C   0  0  0  0  0  0  0  0  0  0  0  0
    7.6346   -6.0179   16.7140 C   0  0  0  0  0  0  0  0  0  0  0  0
    8.3874   -7.9354   17.3303 C   0  0  0  0  0  0  0  0  0  0  0  0
   10.9887   -4.9292   20.3881 C   0  0  0  0  0  0  0  0  0  0  0  0
    5.9794   -7.7194   16.6451 C   0  0  0  0  0  0  0  0  0  0  0  0
    6.1494   -8.2579   16.8990 C   0  0  0  0  0  0  0  0  0  0  0  0
    7.4398   -6.7961   16.4540 C   0  0  0  0  0  0  0  0  0  0  0  0
   11.5572   -3.6197   22.0355 C   0  0  0  0  0  0  0  0  0  0  0  0
    6.6026   -8.5386   15.8904 C   0  0  0  0  0  0  0  0  0  0  0  0
    9.7822   -6.3081   18.3693 C   0  0  0  0  0  0  0  0  0  0  0  0
   10.7072   -5.0928   19.0504 C   0  0  0  0  0  0  0  0  0  0  0  0
   11.2654   -3.5180   22.7238 C   0  0  0  0  0  0  0  0  0  0  0  0
    8.5455   -7.6500   18.2510 C   0  0  0  0  0  0  0  0  0  0  0  0
  1 12  4  0
  1 14  4  0
  3 24  4  0
  6 12  4  0
  9 16  1  0
 10 17  4  0
 21 25  4  0
M  END
$$$$

 Created by Python create_sdf_string function

 26 31  0  0  0  0  0  0  0  0999 V2000
    6.1051   -7.9916   17.3287 I   0  0  0  0  0  0  0  0  0  0  0  0
   11.2116   -5.9890   22.4244 Cl  0  0  0  0  0  0  0  0  0  0  0  0
   10.4110   -3.5795   17.3439 B   0  0  0  0  0  0  0  0  0  0  0  0
    8.9664   -7.0251   17.2857 C   0  0  0  0  0  0  0  0  0  0  0  0
   10.1020   -5.9746   20.8661 F   0  0  0  0  0  0  0  0  0  0  0  0
   13.5909   -1.9221   21.1642 C   0  0  0  0  0  0  0  0  0  0  0  0
   10.4016   -1.5683   17.2963 Cl  0  0  0  0  0  0  0  0  0  0  0  0
    4.4950   -8.2534   15.4068 C   0  0  0  0  0  0  0  0  0  0  0  0
    6.5240   -6.7779   17.6601 F   0  0  0  0  0  0  0  0  0  0  0  0
    9.1552   -8.7343   16.6292 C   0  0  0  0  0  0  0  0  0  0  0  0
   11.8664   -5.5742   20.2934 C   0  0  0  0  0  0  0  0  0  0  0  0
    5.2400   -9.5837   16.0197 P   0  0  0  0  0  0  0  0  0  0  0  0
   10.0123   -5.6495   18.7624 I   0  0  0  0  0  0  0  0  0  0  0  0
    8.1486   -8.6204   20.6344 Cl  0  0  0  0  0  0  0  0  0  0  0  0
    9.9286   -3.4384   17.2482 He  0  0  0  0  0  0  0  0  0  0  0  0
   11.5061   -3.9440   17.5456 He  0  0  0  0  0  0  0  0  0  0  0  0
    5.7505   -9.6381   18.0556 He  0  0  0  0  0  0  0  0  0  0  0  0
    4.9748   -7.2956   15.0384 He  0  0  0  0  0  0  0  0  0  0  0  0
   10.9654   -5.5336   19.4849 He  0  0  0  0  0  0  0  0  0  0  0  0
    8.4541   -5.6391   17.5693 He  0  0  0  0  0  0  0  0  0  0  0  0
    6.0691   -7.2929   16.6390 He  0  0  0  0  0  0  0  0  0  0  0  0
    8.0897   -7.2479   15.9153 He  0  0  0  0  0  0  0  0  0  0  0  0
    9.6287   -5.2485   22.6246 He  0  0  0  0  0  0  0  0  0  0  0  0
    6.7457   -7.3417   16.0810 He  0  0  0  0  0  0  0  0  0  0  0  0
   11.0397   -3.4104   19.5020 He  0  0  0  0  0  0  0  0  0  0  0  0
   12.4459   -1.8333   23.1337 He  0  0  0  0  0  0  0  0  0  0  0  0
  1  4  3  0
  1  5  4  0
  1 12  1  0
  2  3  4  0
  2  4  4  0
  3  4  1  0
  3  7  1  0
  3  8  4  0
  3 11  1  0
  3 14  3  0
  4  7  1  0
  4 11  4  0
  4 12  2  0
  4 13  2  0
  5 10  4  0
  5 12  1  0
  5 14  4  0
  6  7  1  0
  6  8  1  0
  6 11  4  0
  6 13  4  0
  6 14  2  0
  7 11  1  0
  7 12  4  0
  7 14  1  0
  8 10  2  0
  8 13  3  0
  9 10  2  0
  9 13  3  0
 10 13  1  0
 11 13  3  0
M  END
$$$$

 Created by Python create_sdf_string function

 26  3  0  0  0  0  0  0  0  0999 V2000
   10.2615   -3.9755   16.8764 C   0  0  0  0  0  0  0  0  0  0  0  0
    6.1129   -8.2324   17.2572 C   0  0  0  0  0  0  0  0  0  0  0  0
   11.2262   -3.9776   18.1482 C   0  0  0  0  0  0  0  0  0  0  0  0
   11.3623   -4.8973   22.3203 C   0  0  0  0  0  0  0  0  0  0  0  0
    5.8203   -8.8182   17.9385 C   0  0  0  0  0  0  0  0  0  0  0  0
   10.5695   -3.8224   17.0808 C   0  0  0  0  0  0  0  0  0  0  0  0
    5.0906   -7.7238   15.6690 C   0  0  0  0  0  0  0  0  0  0  0  0
   10.9202   -4.8815   19.5267 C   0  0  0  0  0  0  0  0  0  0  0  0
    8.9100   -6.8222   17.4314 C   0  0  0  0  0  0  0  0  0  0  0  0
   10.7969   -5.2863   20.4619 C   0  0  0  0  0  0  0  0  0  0  0  0
   12.1827   -2.8455   21.8521 C   0  0  0  0  0  0  0  0  0  0  0  0
   11.1175   -2.8767   17.4374 O   0  0  0  0  0  0  0  0  0  0  0  0
    4.6906   -8.3756   16.0006 C   0  0  0  0  0  0  0  0  0  0  0  0
    9.0991   -5.8037   17.3527 C   0  0  0  0  0  0  0  0  0  0  0  0
    7.1121   -6.8950   17.6332 C   0  0  0  0  0  0  0  0  0  0  0  0
    8.5505   -8.1534   16.7915 C   0  0  0  0  0  0  0  0  0  0  0  0
   11.4982   -4.5147   20.4200 C   0  0  0  0  0  0  0  0  0  0  0  0
    5.1567   -8.9803   16.1999 C   0  0  0  0  0  0  0  0  0  0  0  0
    6.2204   -7.4977   16.8724 C   0  0  0  0  0  0  0  0  0  0  0  0
    8.0504   -7.2353   16.2635 C   0  0  0  0  0  0  0  0  0  0  0  0
   11.2696   -4.2834   22.1418 C   0  0  0  0  0  0  0  0  0  0  0  0
    7.0722   -7.5338   16.3296 C   0  0  0  0  0  0  0  0  0  0  0  0
    9.8941   -5.8545   18.2953 C   0  0  0  0  0  0  0  0  0  0  0  0
   11.3252   -3.5869   19.7868 C   0  0  0  0  0  0  0  0  0  0  0  0
   11.9799   -2.7082   22.5483 C   0  0  0  0  0  0  0  0  0  0  0  0
    8.2659   -8.1536   18.7654 C   0  0  0  0  0  0  0  0  0  0  0  0
  2  5  1  0
  4 21  4  0
 11 25  4  0
M  END
$$$$

 Created by Python create_sdf_string function

 26 32  0  0  0  0  0  0  0  0999 V2000
   10.1479   -2.9308   16.4835 C   0  0  0  0  0  0  0  0  0  0  0  0
    5.6860   -6.5853   17.1073 N   0  0  0  0  0  0  0  0  0  0  0  0
    9.9056   -4.9685   20.8196 Cl  0  0  0  0  0  0  0  0  0  0  0  0
   11.2777   -6.1198   18.1956 C   0  0  0  0  0  0  0  0  0  0  0  0
    9.1487   -6.3099   18.5812 F   0  0  0  0  0  0  0  0  0  0  0  0
   12.0830   -2.8771   21.1580 B   0  0  0  0  0  0  0  0  0  0  0  0
   12.0761   -1.9490   17.7885 Cl  0  0  0  0  0  0  0  0  0  0  0  0
    4.1874   -7.1859   15.2715 C   0  0  0  0  0  0  0  0  0  0  0  0
    7.5180   -6.2702   16.9029 Br  0  0  0  0  0  0  0  0  0  0  0  0
   11.0586   -6.7375   19.0702 C   0  0  0  0  0  0  0  0  0  0  0  0
    7.1564  -10.1706   16.0928 C   0  0  0  0  0  0  0  0  0  0  0  0
    7.8519   -7.6915   16.3534 O   0  0  0  0  0  0  0  0  0  0  0  0
   10.0567   -3.8682   20.1528 F   0  0  0  0  0  0  0  0  0  0  0  0
    7.7864   -8.0331   17.8549 C   0  0  0  0  0  0  0  0  0  0  0  0
   10.9895   -4.2845   17.2434 He  0  0  0  0  0  0  0  0  0  0  0  0
    5.5596   -8.0445   17.8228 He  0  0  0  0  0  0  0  0  0  0  0  0
   10.9451   -3.8891   16.4318 He  0  0  0  0  0  0  0  0  0  0  0  0
    4.9362   -7.8352   15.9824 He  0  0  0  0  0  0  0  0  0  0  0  0
   10.6936   -6.3369   21.0366 He  0  0  0  0  0  0  0  0  0  0  0  0
    8.6243   -5.8403   18.8586 He  0  0  0  0  0  0  0  0  0  0  0  0
    7.2620   -6.8829   17.1033 He  0  0  0  0  0  0  0  0  0  0  0  0
    4.9127   -7.6193   19.7114 He  0  0  0  0  0  0  0  0  0  0  0  0
    9.5242   -2.8036   22.6554 He  0  0  0  0  0  0  0  0  0  0  0  0
    7.3609   -8.4351   16.2982 He  0  0  0  0  0  0  0  0  0  0  0  0
    9.9013   -4.9701   18.4570 He  0  0  0  0  0  0  0  0  0  0  0  0
   13.9463   -2.4451   23.1395 He  0  0  0  0  0  0  0  0  0  0  0  0
  1  3  3  0
  1  4  4  0
  1  5  2  0
  1  8  2  0
  1 11  4  0
  1 14  1  0
  2  3  1  0
  2  4  4  0
  2  5  3  0
  2  7  2  0
  2  8  4  0
  2 10  3  0
  2 12  4  0
  2 14  2  0
  3  7  2  0
  4  9  3  0
  4 13  3  0
  5  6  1  0
  5  7  3  0
  5 11  2  0
  5 12  1  0
  5 14  1  0
  6  9  4  0
  7  9  2  0
  7 13  4  0
  8 14  1  0
  9 10  4  0
  9 11  4  0
  9 14  3  0
 10 12  2  0
 11 13  4  0
 12 13  1  0
M  END
$$$$

 Created by Python create_sdf_string function

 26 10  0  0  0  0  0  0  0  0999 V2000
   10.2756   -3.8002   16.3818 C   0  0  0  0  0  0  0  0  0  0  0  0
    5.9217   -7.2809   16.8279 C   0  0  0  0  0  0  0  0  0  0  0  0
   10.5470   -4.2582   17.3369 C   0  0  0  0  0  0  0  0  0  0  0  0
   10.8059   -4.4352   20.8355 C   0  0  0  0  0  0  0  0  0  0  0  0
    5.6935   -8.1561   17.5336 C   0  0  0  0  0  0  0  0  0  0  0  0
   11.0229   -3.7282   16.5777 C   0  0  0  0  0  0  0  0  0  0  0  0
    5.1528   -8.4208   16.3149 C   0  0  0  0  0  0  0  0  0  0  0  0
   10.6551   -5.6944   18.4300 C   0  0  0  0  0  0  0  0  0  0  0  0
    8.9198   -6.7208   18.1137 C   0  0  0  0  0  0  0  0  0  0  0  0
   10.8688   -5.2514   20.7071 C   0  0  0  0  0  0  0  0  0  0  0  0
   11.4895   -3.3618   21.8476 C   0  0  0  0  0  0  0  0  0  0  0  0
   11.3860   -2.6587   17.6387 O   0  0  0  0  0  0  0  0  0  0  0  0
    4.8521   -7.8284   16.1711 C   0  0  0  0  0  0  0  0  0  0  0  0
    8.9221   -6.1617   18.1785 C   0  0  0  0  0  0  0  0  0  0  0  0
    7.7499   -6.5475   16.8520 C   0  0  0  0  0  0  0  0  0  0  0  0
    7.3762   -6.9147   16.9599 C   0  0  0  0  0  0  0  0  0  0  0  0
   10.4515   -6.3063   19.0312 C   0  0  0  0  0  0  0  0  0  0  0  0
    7.0327   -9.1703   15.8223 C   0  0  0  0  0  0  0  0  0  0  0  0
    5.8158   -8.0442   18.6367 O   0  0  0  0  0  0  0  0  0  0  0  0
    8.1719   -7.9480   16.3230 C   0  0  0  0  0  0  0  0  0  0  0  0
   10.5464   -3.2771   22.6533 C   0  0  0  0  0  0  0  0  0  0  0  0
    7.3562   -8.4394   16.0119 C   0  0  0  0  0  0  0  0  0  0  0  0
   10.4563   -4.5124   18.7717 C   0  0  0  0  0  0  0  0  0  0  0  0
   10.7376   -3.8836   19.9964 C   0  0  0  0  0  0  0  0  0  0  0  0
   12.3632   -3.1499   22.4973 C   0  0  0  0  0  0  0  0  0  0  0  0
    8.0920   -7.8149   17.8150 C   0  0  0  0  0  0  0  0  0  0  0  0
  1  3  4  0
  4 10  4  0
  5 19  1  0
  6 12  1  0
  9 26  1  0
 11 21  1  0
 11 25  1  0
 18 22  1  0
 20 22  1  0
 23 24  4  0
M  END
$$$$

 Created by Python create_sdf_string function

 26 29  0  0  0  0  0  0  0  0999 V2000
    9.9722   -4.0884   16.3540 C   0  0  0  0  0  0  0  0  0  0  0  0
    6.1930   -7.3711   16.1318 Cl  0  0  0  0  0  0  0  0  0  0  0  0
   11.1812   -3.3965   16.6662 B   0  0  0  0  0  0  0  0  0  0  0  0
    6.5197   -7.9264   15.1623 C   0  0  0  0  0  0  0  0  0  0  0  0
   10.8934   -5.5790   18.0036 Br  0  0  0  0  0  0  0  0  0  0  0  0
    9.0630   -6.2178   18.0593 I   0  0  0  0  0  0  0  0  0  0  0  0
   10.6241   -5.1541   20.9954 F   0  0  0  0  0  0  0  0  0  0  0  0
   12.5136   -3.4540   21.8741 C   0  0  0  0  0  0  0  0  0  0  0  0
    9.9164   -5.1820   18.5465 C   0  0  0  0  0  0  0  0  0  0  0  0
    7.1991   -8.2682   17.6985 N   0  0  0  0  0  0  0  0  0  0  0  0
    7.0357   -5.7854   17.0872 S   0  0  0  0  0  0  0  0  0  0  0  0
   10.5056   -7.4043   18.5269 C   0  0  0  0  0  0  0  0  0  0  0  0
    7.9774   -8.0633   16.0987 C   0  0  0  0  0  0  0  0  0  0  0  0
   10.8023   -3.9757   20.1085 C   0  0  0  0  0  0  0  0  0  0  0  0
   11.7909   -2.5727   22.7078 C   0  0  0  0  0  0  0  0  0  0  0  0
   11.4910   -3.3394   16.7366 He  0  0  0  0  0  0  0  0  0  0  0  0
   10.7685   -4.0956   22.2279 He  0  0  0  0  0  0  0  0  0  0  0  0
    5.2959   -7.6410   16.7625 He  0  0  0  0  0  0  0  0  0  0  0  0
   11.7096   -3.7247   17.4666 He  0  0  0  0  0  0  0  0  0  0  0  0
    5.0794   -7.8668   16.7963 He  0  0  0  0  0  0  0  0  0  0  0  0
    6.3317   -7.9750   19.8235 He  0  0  0  0  0  0  0  0  0  0  0  0
    8.4506   -7.3444   16.9567 He  0  0  0  0  0  0  0  0  0  0  0  0
   10.7231   -2.7689   24.4289 He  0  0  0  0  0  0  0  0  0  0  0  0
    7.0206   -8.1140   17.8913 He  0  0  0  0  0  0  0  0  0  0  0  0
   10.0746   -4.5164   19.1628 He  0  0  0  0  0  0  0  0  0  0  0  0
    8.9110   -7.6466   17.6800 He  0  0  0  0  0  0  0  0  0  0  0  0
  1  4  4  0
  1 13  3  0
  1 14  2  0
  2  8  3  0
  2  9  3  0
  2 13  1  0
  2 14  1  0
  3  4  2  0
  3  5  3  0
  3  9  4  0
  3 11  2  0
  4  5  3  0
  4  7  2  0
  4  8  2  0
  4  9  4  0
  4 11  3  0
  5  9  2  0
  5 11  1  0
  5 15  3  0
  6  8  2  0
  6 10  2  0
  6 14  4  0
  6 15  4  0
  7 10  2  0
  7 13  3  0
  8 15  1  0
  9 10  4  0
 10 12  1  0
 11 12  4  0
M  END
$$$$

 Created by Python create_sdf_string function

 26 10  0  0  0  0  0  0  0  0999 V2000
    9.8180   -4.1113   16.3464 C   0  0  0  0  0  0  0  0  0  0  0  0
    6.4574   -7.8405   16.2192 C   0  0  0  0  0  0  0  0  0  0  0  0
   11.1316   -3.5399   16.6728 C   0  0  0  0  0  0  0  0  0  0  0  0
   10.9962   -3.8188   22.5079 C   0  0  0  0  0  0  0  0  0  0  0  0
    5.2700   -8.0319   16.9983 C   0  0  0  0  0  0  0  0  0  0  0  0
   11.0176   -3.6222   16.7022 C   0  0  0  0  0  0  0  0  0  0  0  0
    6.5904   -8.3177   15.6771 C   0  0  0  0  0  0  0  0  0  0  0  0
   10.4089   -5.1784   18.2307 C   0  0  0  0  0  0  0  0  0  0  0  0
    9.2581   -6.1793   17.9705 C   0  0  0  0  0  0  0  0  0  0  0  0
   10.8133   -4.5210   20.9884 C   0  0  0  0  0  0  0  0  0  0  0  0
   11.7573   -3.2405   22.0736 C   0  0  0  0  0  0  0  0  0  0  0  0
   11.1836   -3.4963   17.5183 C   0  0  0  0  0  0  0  0  0  0  0  0
    5.0388   -8.1353   16.7058 C   0  0  0  0  0  0  0  0  0  0  0  0
   10.4200   -4.9165   18.5422 C   0  0  0  0  0  0  0  0  0  0  0  0
    7.5827   -8.1356   17.5666 C   0  0  0  0  0  0  0  0  0  0  0  0
    7.6035   -6.2294   16.7869 C   0  0  0  0  0  0  0  0  0  0  0  0
    9.7015   -7.4956   18.4555 C   0  0  0  0  0  0  0  0  0  0  0  0
    7.8977   -8.1805   15.8105 C   0  0  0  0  0  0  0  0  0  0  0  0
    6.3431   -8.0557   18.4699 C   0  0  0  0  0  0  0  0  0  0  0  0
    8.2855   -7.5339   16.6367 C   0  0  0  0  0  0  0  0  0  0  0  0
   10.8728   -3.1095   23.7939 O   0  0  0  0  0  0  0  0  0  0  0  0
    6.9662   -7.9328   17.6121 C   0  0  0  0  0  0  0  0  0  0  0  0
   10.5249   -4.6833   19.2828 C   0  0  0  0  0  0  0  0  0  0  0  0
   11.1012   -4.0407   20.4991 C   0  0  0  0  0  0  0  0  0  0  0  0
   11.6044   -2.9624   22.4464 C   0  0  0  0  0  0  0  0  0  0  0  0
    8.9368   -7.7991   17.9119 C   0  0  0  0  0  0  0  0  0  0  0  0
  1  3  4  0
  2 18  1  0
  5 13  1  0
  7 18  1  0
  8 14  4  0
 10 24  1  0
 11 25  4  0
 17 26  1  0
 18 20  1  0
 19 22  1  0
M  END
$$$$

 Created by Python create_sdf_string function

 26 47  0  0  0  0  0  0  0  0999 V2000
   10.4743   -3.1196   17.2675 C   0  0  0  0  0  0  0  0  0  0  0  0
   10.5892   -3.6235   23.3986 C   0  0  0  0  0  0  0  0  0  0  0  0
    5.7733   -7.6777   16.7292 C   0  0  0  0  0  0  0  0  0  0  0  0
    9.5278   -4.7932   16.9469 C   0  0  0  0  0  0  0  0  0  0  0  0
   10.6402   -5.3058   19.3493 C   0  0  0  0  0  0  0  0  0  0  0  0
   12.0305   -5.6727   22.5515 F   0  0  0  0  0  0  0  0  0  0  0  0
   11.3907   -4.0744   21.7417 N   0  0  0  0  0  0  0  0  0  0  0  0
   11.4294   -4.5913   17.3470 P   0  0  0  0  0  0  0  0  0  0  0  0
    4.6468   -8.6357   17.5986 S   0  0  0  0  0  0  0  0  0  0  0  0
    9.2535   -5.7508   19.5591 S   0  0  0  0  0  0  0  0  0  0  0  0
    7.0208  -10.0401   17.8405 C   0  0  0  0  0  0  0  0  0  0  0  0
    6.2383   -8.3667   18.0280 O   0  0  0  0  0  0  0  0  0  0  0  0
   11.5653   -3.6634   23.4906 C   0  0  0  0  0  0  0  0  0  0  0  0
   10.5065   -4.0822   18.4791 O   0  0  0  0  0  0  0  0  0  0  0  0
   12.4545   -4.7557   21.6198 N   0  0  0  0  0  0  0  0  0  0  0  0
   11.8917   -2.7007   22.4399 O   0  0  0  0  0  0  0  0  0  0  0  0
   11.0626   -3.7074   17.1580 He  0  0  0  0  0  0  0  0  0  0  0  0
    5.6956   -8.4730   16.5577 He  0  0  0  0  0  0  0  0  0  0  0  0
    6.5062   -7.7387   16.7128 He  0  0  0  0  0  0  0  0  0  0  0  0
    8.8845   -5.3012   17.0369 He  0  0  0  0  0  0  0  0  0  0  0  0
    7.2997   -6.0267   15.9151 He  0  0  0  0  0  0  0  0  0  0  0  0
    9.2051   -6.5916   17.0432 He  0  0  0  0  0  0  0  0  0  0  0  0
    7.1688   -7.7173   15.5791 He  0  0  0  0  0  0  0  0  0  0  0  0
    7.6320   -8.1858   16.9269 He  0  0  0  0  0  0  0  0  0  0  0  0
    6.7444   -8.4541   18.2407 He  0  0  0  0  0  0  0  0  0  0  0  0
    7.6128   -9.5073   18.3482 He  0  0  0  0  0  0  0  0  0  0  0  0
  1  2  4  0
  1  6  4  0
  1  7  4  0
  1 11  1  0
  1 14  2  0
  1 16  1  0
  2  3  2  0
  2  7  1  0
  3  4  2  0
  3  6  2  0
  3  8  2  0
  3 11  1  0
  3 13  1  0
  3 15  3  0
  4  8  2  0
  4 11  1  0
  4 15  4  0
  4 16  3  0
  5  6  4  0
  5 12  4  0
  5 14  4  0
  5 15  2  0
  6  8  2  0
  6 11  4  0
  6 13  3  0
  6 14  4  0
  6 15  3  0
  7  8  4  0
  7  9  4  0
  7 11  3  0
  7 13  1  0
  7 14  3  0
  8 13  1  0
  8 15  3  0
  9 10  1  0
  9 11  1  0
  9 14  4  0
  9 15  3  0
 10 11  2  0
 10 13  2  0
 11 13  1  0
 11 16  1  0
 12 13  1  0
 12 15  4  0
 13 14  3  0
 13 15  3  0
 15 16  4  0
M  END
$$$$

 Created by Python create_sdf_string function

 26 16  0  0  0  0  0  0  0  0999 V2000
   10.9905   -3.5472   17.0066 C   0  0  0  0  0  0  0  0  0  0  0  0
    5.8250   -8.3131   16.0160 C   0  0  0  0  0  0  0  0  0  0  0  0
   10.7688   -3.6462   17.4120 C   0  0  0  0  0  0  0  0  0  0  0  0
   10.9257   -3.3716   23.3324 C   0  0  0  0  0  0  0  0  0  0  0  0
    5.5754   -8.0923   16.5873 C   0  0  0  0  0  0  0  0  0  0  0  0
    9.1735   -5.4200   16.7433 C   0  0  0  0  0  0  0  0  0  0  0  0
    6.8802   -7.4534   16.8454 C   0  0  0  0  0  0  0  0  0  0  0  0
   10.7606   -4.7612   19.7417 C   0  0  0  0  0  0  0  0  0  0  0  0
    9.2275   -5.4513   17.2361 C   0  0  0  0  0  0  0  0  0  0  0  0
   11.6675   -5.0369   22.6336 C   0  0  0  0  0  0  0  0  0  0  0  0
   11.1649   -3.8967   21.5633 C   0  0  0  0  0  0  0  0  0  0  0  0
   11.0041   -4.3860   17.6933 C   0  0  0  0  0  0  0  0  0  0  0  0
    4.8218   -8.7472   17.3885 O   0  0  0  0  0  0  0  0  0  0  0  0
    9.8667   -5.7212   19.1316 C   0  0  0  0  0  0  0  0  0  0  0  0
    6.4342   -9.3322   17.1379 C   0  0  0  0  0  0  0  0  0  0  0  0
    7.5680   -5.9880   15.8466 C   0  0  0  0  0  0  0  0  0  0  0  0
    8.8298   -6.9314   17.2374 C   0  0  0  0  0  0  0  0  0  0  0  0
    7.5900   -7.7675   15.5751 C   0  0  0  0  0  0  0  0  0  0  0  0
    6.2310   -8.1964   18.2223 C   0  0  0  0  0  0  0  0  0  0  0  0
    7.5142   -8.1229   16.4041 C   0  0  0  0  0  0  0  0  0  0  0  0
   11.2962   -3.9003   23.4897 C   0  0  0  0  0  0  0  0  0  0  0  0
    6.7905   -8.0272   18.0003 C   0  0  0  0  0  0  0  0  0  0  0  0
   10.9564   -4.0033   19.0799 C   0  0  0  0  0  0  0  0  0  0  0  0
   11.8361   -4.4420   21.7084 C   0  0  0  0  0  0  0  0  0  0  0  0
   11.3036   -2.8761   22.2461 O   0  0  0  0  0  0  0  0  0  0  0  0
    7.8569   -8.4560   17.7497 C   0  0  0  0  0  0  0  0  0  0  0  0
  1  3  1  0
  2  5  1  0
  4 21  4  0
  4 25  4  0
  5 13  1  0
  5 15  1  0
  6  9  1  0
  6 17  1  0
  7 22  1  0
  8 14  4  0
  8 23  4  0
  9 14  4  0
 10 21  4  0
 10 24  4  0
 18 20  1  0
 19 22  1  0
M  END
$$$$

 Created by Python create_sdf_string function

 26 59  0  0  0  0  0  0  0  0999 V2000
   12.5068   -4.7687   18.1279 N   0  0  0  0  0  0  0  0  0  0  0  0
    5.3357   -7.6810   15.8386 C   0  0  0  0  0  0  0  0  0  0  0  0
   11.1188   -5.6911   18.6432 P   0  0  0  0  0  0  0  0  0  0  0  0
    9.5957   -4.5737   22.8617 N   0  0  0  0  0  0  0  0  0  0  0  0
    4.9463   -7.6065   17.4224 C   0  0  0  0  0  0  0  0  0  0  0  0
    7.1435   -7.1222   17.7717 P   0  0  0  0  0  0  0  0  0  0  0  0
    9.7474   -5.6156   17.8347 O   0  0  0  0  0  0  0  0  0  0  0  0
   12.3199   -4.7210   21.9202 I   0  0  0  0  0  0  0  0  0  0  0  0
    6.5216  -10.6544   18.3034 C   0  0  0  0  0  0  0  0  0  0  0  0
    7.4463   -7.3976   16.3251 Cl  0  0  0  0  0  0  0  0  0  0  0  0
    8.0629   -7.2807   17.5496 Cl  0  0  0  0  0  0  0  0  0  0  0  0
    8.7164   -8.9160   14.0865 C   0  0  0  0  0  0  0  0  0  0  0  0
    7.4127   -7.6448   16.3037 F   0  0  0  0  0  0  0  0  0  0  0  0
   10.7034   -3.8971   23.1382 S   0  0  0  0  0  0  0  0  0  0  0  0
   10.8683   -1.7238   18.6631 Cl  0  0  0  0  0  0  0  0  0  0  0  0
   10.9806   -4.7825   22.3414 C   0  0  0  0  0  0  0  0  0  0  0  0
   10.3857   -2.2795   23.1605 N   0  0  0  0  0  0  0  0  0  0  0  0
    7.1445   -4.7326   17.5554 He  0  0  0  0  0  0  0  0  0  0  0  0
   10.1323   -4.6849   20.0563 He  0  0  0  0  0  0  0  0  0  0  0  0
   11.2935   -3.3942   22.7576 He  0  0  0  0  0  0  0  0  0  0  0  0
   10.9110   -3.7477   18.4437 He  0  0  0  0  0  0  0  0  0  0  0  0
    4.9472   -9.3403   17.8769 He  0  0  0  0  0  0  0  0  0  0  0  0
   10.2792   -4.7840   19.6915 He  0  0  0  0  0  0  0  0  0  0  0  0
    6.8445   -8.1178   17.8152 He  0  0  0  0  0  0  0  0  0  0  0  0
    6.2358   -8.9018   19.2984 He  0  0  0  0  0  0  0  0  0  0  0  0
    8.7570   -8.6958   18.1037 He  0  0  0  0  0  0  0  0  0  0  0  0
  1  2  2  0
  1  5  1  0
  1  6  3  0
  1  7  3  0
  1 10  4  0
  1 12  3  0
  1 14  3  0
  1 15  3  0
  1 16  2  0
  1 17  3  0
  2  3  1  0
  2  5  4  0
  2  8  3  0
  2  9  3  0
  2 14  2  0
  2 15  1  0
  2 16  3  0
  3  5  2  0
  3  9  1  0
  3 15  2  0
  4  8  2  0
  4 11  4  0
  4 13  1  0
  4 14  1  0
  4 17  3  0
  5 10  3  0
  5 12  4  0
  5 14  4  0
  6  8  4  0
  6  9  3  0
  6 10  1  0
  6 14  2  0
  6 17  2  0
  7 11  4  0
  7 12  2  0
  7 13  2  0
  7 14  3  0
  7 16  2  0
  8  9  2  0
  8 11  4  0
  8 14  1  0
  8 15  4  0
  9 12  4  0
  9 13  2  0
 10 11  2  0
 10 12  1  0
 10 16  3  0
 11 13  3  0
 11 14  3  0
 12 13  3  0
 12 14  1  0
 12 15  1  0
 12 17  3  0
 13 14  3  0
 13 16  4  0
 14 15  3  0
 14 16  2  0
 15 17  1  0
 16 17  1  0
M  END
$$$$

 Created by Python create_sdf_string function

 26  4  0  0  0  0  0  0  0  0999 V2000
   11.3595   -4.3957   18.0076 C   0  0  0  0  0  0  0  0  0  0  0  0
    5.6600   -7.8714   16.1143 C   0  0  0  0  0  0  0  0  0  0  0  0
   10.6405   -5.4010   18.9367 C   0  0  0  0  0  0  0  0  0  0  0  0
   10.7115   -3.7299   22.9040 C   0  0  0  0  0  0  0  0  0  0  0  0
    5.1365   -7.9718   17.0271 C   0  0  0  0  0  0  0  0  0  0  0  0
    8.2323   -5.5673   16.6779 C   0  0  0  0  0  0  0  0  0  0  0  0
    7.7921   -7.1220   17.3270 C   0  0  0  0  0  0  0  0  0  0  0  0
   10.7047   -4.5147   20.1647 C   0  0  0  0  0  0  0  0  0  0  0  0
    9.7196   -5.6591   17.8651 C   0  0  0  0  0  0  0  0  0  0  0  0
   11.7148   -4.4935   21.7472 C   0  0  0  0  0  0  0  0  0  0  0  0
   10.9921   -3.2533   22.8950 C   0  0  0  0  0  0  0  0  0  0  0  0
   10.8691   -3.8266   18.3335 C   0  0  0  0  0  0  0  0  0  0  0  0
    4.9930   -8.9370   17.7660 C   0  0  0  0  0  0  0  0  0  0  0  0
   10.4925   -4.9416   19.5724 C   0  0  0  0  0  0  0  0  0  0  0  0
    6.6023   -9.3377   17.4034 C   0  0  0  0  0  0  0  0  0  0  0  0
    7.7998   -7.4400   16.2156 C   0  0  0  0  0  0  0  0  0  0  0  0
    8.6799   -6.8823   17.4784 C   0  0  0  0  0  0  0  0  0  0  0  0
    8.0578   -8.4528   15.1283 C   0  0  0  0  0  0  0  0  0  0  0  0
    6.6248   -8.1862   17.5957 C   0  0  0  0  0  0  0  0  0  0  0  0
    7.4701   -7.8320   16.1611 C   0  0  0  0  0  0  0  0  0  0  0  0
   10.9956   -3.8296   23.4706 C   0  0  0  0  0  0  0  0  0  0  0  0
    6.1688   -8.4409   18.5159 C   0  0  0  0  0  0  0  0  0  0  0  0
   11.0537   -2.8566   18.7008 C   0  0  0  0  0  0  0  0  0  0  0  0
   11.1481   -4.4653   22.0660 C   0  0  0  0  0  0  0  0  0  0  0  0
   10.4730   -2.4549   23.2870 O   0  0  0  0  0  0  0  0  0  0  0  0
    8.7494   -8.1500   17.7328 C   0  0  0  0  0  0  0  0  0  0  0  0
  2  5  1  0
  7 16  1  0
 12 23  4  0
 16 18  1  0
M  END
$$$$

 Created by Python create_sdf_string function

 26  6  0  0  0  0  0  0  0  0999 V2000
    5.7858   -7.6626   15.0984 P   0  0  0  0  0  0  0  0  0  0  0  0
    7.0479   -7.3918   17.7323 C   0  0  0  0  0  0  0  0  0  0  0  0
    8.1933   -5.3911   15.8655 Cl  0  0  0  0  0  0  0  0  0  0  0  0
    8.0928   -7.2664   16.9264 N   0  0  0  0  0  0  0  0  0  0  0  0
   11.1744   -4.4985   21.1322 C   0  0  0  0  0  0  0  0  0  0  0  0
    6.1626   -8.9979   17.6043 C   0  0  0  0  0  0  0  0  0  0  0  0
    6.9328   -7.0622   15.8497 O   0  0  0  0  0  0  0  0  0  0  0  0
    6.8290   -7.9245   16.4730 C   0  0  0  0  0  0  0  0  0  0  0  0
    8.8680   -7.0193   18.2359 C   0  0  0  0  0  0  0  0  0  0  0  0
   11.1208   -3.6479   15.4289 He  0  0  0  0  0  0  0  0  0  0  0  0
    9.6993   -4.9709   18.1306 He  0  0  0  0  0  0  0  0  0  0  0  0
   12.0163   -3.6031   23.2011 He  0  0  0  0  0  0  0  0  0  0  0  0
   10.6602   -3.5437   20.0456 He  0  0  0  0  0  0  0  0  0  0  0  0
   10.7155   -5.0611   16.9842 He  0  0  0  0  0  0  0  0  0  0  0  0
   11.0226   -2.6983   22.6505 He  0  0  0  0  0  0  0  0  0  0  0  0
   11.8344   -4.7077   17.8393 He  0  0  0  0  0  0  0  0  0  0  0  0
    4.7852   -7.8977   18.6853 He  0  0  0  0  0  0  0  0  0  0  0  0
   10.2018   -3.9029   19.9032 He  0  0  0  0  0  0  0  0  0  0  0  0
    8.9759   -6.9722   17.4192 He  0  0  0  0  0  0  0  0  0  0  0  0
    8.2032   -8.4022   15.1756 He  0  0  0  0  0  0  0  0  0  0  0  0
    5.9018   -8.6140   16.1680 He  0  0  0  0  0  0  0  0  0  0  0  0
   10.7925   -2.8781   23.9791 He  0  0  0  0  0  0  0  0  0  0  0  0
    6.0315   -9.3086   19.2800 He  0  0  0  0  0  0  0  0  0  0  0  0
   11.8286   -2.3131   17.2319 He  0  0  0  0  0  0  0  0  0  0  0  0
   11.7038   -4.6539   22.7713 He  0  0  0  0  0  0  0  0  0  0  0  0
   10.3651   -3.8425   22.8256 He  0  0  0  0  0  0  0  0  0  0  0  0
  1  7  2  0
  1  8  3  0
  2  9  4  0
  4  6  2  0
  4  8  3  0
  6  7  3  0
M  END
$$$$

 Created by Python create_sdf_string function

 26 12  0  0  0  0  0  0  0  0999 V2000
   10.6040   -4.0511   15.9970 C   0  0  0  0  0  0  0  0  0  0  0  0
    5.9295   -7.7996   15.6076 C   0  0  0  0  0  0  0  0  0  0  0  0
   10.2847   -4.8447   18.7005 C   0  0  0  0  0  0  0  0  0  0  0  0
   11.6377   -3.9416   23.2281 C   0  0  0  0  0  0  0  0  0  0  0  0
    7.4164   -7.6809   17.8039 C   0  0  0  0  0  0  0  0  0  0  0  0
    8.8819   -5.3205   16.0204 C   0  0  0  0  0  0  0  0  0  0  0  0
    8.1381   -7.2751   16.9736 C   0  0  0  0  0  0  0  0  0  0  0  0
   10.6951   -4.0013   20.1743 C   0  0  0  0  0  0  0  0  0  0  0  0
   10.3195   -4.8905   17.3292 C   0  0  0  0  0  0  0  0  0  0  0  0
   11.1188   -4.4188   21.1912 C   0  0  0  0  0  0  0  0  0  0  0  0
   10.7833   -3.0236   22.7066 C   0  0  0  0  0  0  0  0  0  0  0  0
   11.0485   -3.7898   17.4958 C   0  0  0  0  0  0  0  0  0  0  0  0
    5.1077   -8.3948   17.8170 C   0  0  0  0  0  0  0  0  0  0  0  0
   10.5663   -4.2565   19.8867 C   0  0  0  0  0  0  0  0  0  0  0  0
    5.7134   -8.7258   17.6859 C   0  0  0  0  0  0  0  0  0  0  0  0
    7.1551   -7.0447   15.5897 C   0  0  0  0  0  0  0  0  0  0  0  0
    9.1526   -6.1888   17.1892 C   0  0  0  0  0  0  0  0  0  0  0  0
    7.9992   -8.2480   15.3478 C   0  0  0  0  0  0  0  0  0  0  0  0
    6.8638   -8.1157   16.3511 C   0  0  0  0  0  0  0  0  0  0  0  0
    6.0041   -8.6967   16.1267 C   0  0  0  0  0  0  0  0  0  0  0  0
   10.7052   -2.9421   24.0588 O   0  0  0  0  0  0  0  0  0  0  0  0
    5.9592   -8.6390   18.6338 C   0  0  0  0  0  0  0  0  0  0  0  0
   11.4467   -3.0509   17.2701 O   0  0  0  0  0  0  0  0  0  0  0  0
   11.6019   -4.5532   22.5531 C   0  0  0  0  0  0  0  0  0  0  0  0
   10.6584   -3.1699   22.8622 C   0  0  0  0  0  0  0  0  0  0  0  0
    9.1232   -6.7262   18.1280 C   0  0  0  0  0  0  0  0  0  0  0  0
  1  6  4  0
  3 14  1  0
  4 24  4  0
  6 17  4  0
  8 14  1  0
  9 17  1  0
 10 24  4  0
 11 25  4  0
 12 23  4  0
 13 15  4  0
 15 22  4  0
 17 26  1  0
M  END
$$$$

 Created by Python create_sdf_string function

 26 56  0  0  0  0  0  0  0  0999 V2000
    5.3566   -8.3230   15.5110 O   0  0  0  0  0  0  0  0  0  0  0  0
   10.0910   -5.7510   18.1658 C   0  0  0  0  0  0  0  0  0  0  0  0
   11.8364   -3.8386   25.3732 N   0  0  0  0  0  0  0  0  0  0  0  0
    9.2776   -4.4983   14.4668 Cl  0  0  0  0  0  0  0  0  0  0  0  0
   10.1519   -2.5391   20.8166 C   0  0  0  0  0  0  0  0  0  0  0  0
   10.2146   -4.8030   17.0944 F   0  0  0  0  0  0  0  0  0  0  0  0
   11.0379   -4.2085   20.7084 Cl  0  0  0  0  0  0  0  0  0  0  0  0
   11.1239   -4.0261   17.7555 F   0  0  0  0  0  0  0  0  0  0  0  0
    5.3785   -9.2451   17.3697 C   0  0  0  0  0  0  0  0  0  0  0  0
   11.4748   -5.4195   19.4815 C   0  0  0  0  0  0  0  0  0  0  0  0
    6.3487   -9.2287   16.7255 C   0  0  0  0  0  0  0  0  0  0  0  0
    6.6832   -7.7698   16.0052 N   0  0  0  0  0  0  0  0  0  0  0  0
    9.4373   -6.4370   17.0472 Cl  0  0  0  0  0  0  0  0  0  0  0  0
    6.9479   -6.8471   15.2412 O   0  0  0  0  0  0  0  0  0  0  0  0
    6.2179   -9.0693   16.4842 C   0  0  0  0  0  0  0  0  0  0  0  0
    6.8518   -8.7596   19.5551 Se  0  0  0  0  0  0  0  0  0  0  0  0
   11.8841   -5.3882   23.5591 C   0  0  0  0  0  0  0  0  0  0  0  0
    9.9754   -7.2958   17.8477 C   0  0  0  0  0  0  0  0  0  0  0  0
   10.8631   -3.3584   16.9994 He  0  0  0  0  0  0  0  0  0  0  0  0
    7.4432   -8.3020   16.9836 He  0  0  0  0  0  0  0  0  0  0  0  0
    8.1471   -7.9144   16.4702 He  0  0  0  0  0  0  0  0  0  0  0  0
   10.9402   -4.9320   23.2675 He  0  0  0  0  0  0  0  0  0  0  0  0
    7.5754   -6.7772   15.7060 He  0  0  0  0  0  0  0  0  0  0  0  0
   11.2871   -3.1419   23.7576 He  0  0  0  0  0  0  0  0  0  0  0  0
   11.5362   -3.2819   18.8698 He  0  0  0  0  0  0  0  0  0  0  0  0
    9.1717   -2.3290   22.2576 He  0  0  0  0  0  0  0  0  0  0  0  0
  1  5  3  0
  1  9  3  0
  1 11  1  0
  1 12  1  0
  1 18  3  0
  2  4  2  0
  2 10  1  0
  2 17  2  0
  2 18  4  0
  3  4  4  0
  3  6  2  0
  3  7  1  0
  3  9  4  0
  3 14  2  0
  4  6  4  0
  4 10  3  0
  4 13  3  0
  4 14  2  0
  4 15  3  0
  5  6  2  0
  5  7  3  0
  5 10  2  0
  5 16  2  0
  6  9  1  0
  6 12  3  0
  6 13  1  0
  6 14  1  0
  7  9  2  0
  7 11  3  0
  7 13  2  0
  7 14  2  0
  7 15  3  0
  7 16  2  0
  7 17  4  0
  7 18  1  0
  8  9  3  0
  8 10  4  0
  8 13  1  0
  8 14  2  0
  8 15  3  0
  8 18  2  0
  9 11  1  0
  9 13  4  0
  9 15  3  0
  9 17  2  0
  9 18  4  0
 10 13  1  0
 10 14  2  0
 11 12  1  0
 11 14  2  0
 11 16  2  0
 13 17  3  0
 13 18  4  0
 14 16  4  0
 15 16  4  0
 15 18  1  0
M  END
$$$$

 Created by Python create_sdf_string function

 26 18  0  0  0  0  0  0  0  0999 V2000
   10.6298   -3.6706   16.9865 C   0  0  0  0  0  0  0  0  0  0  0  0
    5.4163   -8.3993   15.7704 C   0  0  0  0  0  0  0  0  0  0  0  0
   10.3444   -5.5780   18.6694 C   0  0  0  0  0  0  0  0  0  0  0  0
   11.3751   -3.6819   24.9844 O   0  0  0  0  0  0  0  0  0  0  0  0
    7.7745   -8.2515   16.9094 C   0  0  0  0  0  0  0  0  0  0  0  0
    9.1999   -4.3590   15.8514 C   0  0  0  0  0  0  0  0  0  0  0  0
    8.0002   -7.3109   16.3945 C   0  0  0  0  0  0  0  0  0  0  0  0
   10.7685   -3.4826   21.5523 C   0  0  0  0  0  0  0  0  0  0  0  0
    9.7474   -4.7914   16.7890 C   0  0  0  0  0  0  0  0  0  0  0  0
   11.0670   -4.2562   20.9811 C   0  0  0  0  0  0  0  0  0  0  0  0
   11.3853   -4.7800   22.4670 C   0  0  0  0  0  0  0  0  0  0  0  0
   10.8502   -3.7374   17.9575 C   0  0  0  0  0  0  0  0  0  0  0  0
    5.3065   -9.1074   17.4029 C   0  0  0  0  0  0  0  0  0  0  0  0
   10.8667   -5.0120   19.5335 C   0  0  0  0  0  0  0  0  0  0  0  0
    5.9788   -8.7203   17.1424 C   0  0  0  0  0  0  0  0  0  0  0  0
    6.5955   -7.9952   15.9812 C   0  0  0  0  0  0  0  0  0  0  0  0
    9.1901   -6.3376   17.2157 C   0  0  0  0  0  0  0  0  0  0  0  0
    7.9194   -6.4064   15.9281 C   0  0  0  0  0  0  0  0  0  0  0  0
    6.8127   -6.2392   15.2139 O   0  0  0  0  0  0  0  0  0  0  0  0
    5.9454   -8.7743   16.5905 C   0  0  0  0  0  0  0  0  0  0  0  0
   11.1469   -3.6981   23.8990 C   0  0  0  0  0  0  0  0  0  0  0  0
    6.4715   -8.5452   18.5903 O   0  0  0  0  0  0  0  0  0  0  0  0
   11.2251   -3.5356   19.3825 N   0  0  0  0  0  0  0  0  0  0  0  0
   11.5307   -4.7941   23.0984 C   0  0  0  0  0  0  0  0  0  0  0  0
   10.4275   -2.9386   22.8167 C   0  0  0  0  0  0  0  0  0  0  0  0
    9.7116   -6.7537   18.2637 C   0  0  0  0  0  0  0  0  0  0  0  0
  1  9  4  0
  1 12  4  0
  2 16  1  0
  3 14  4  0
  3 26  4  0
  4 21  1  0
  5  7  1  0
  6  9  4  0
  7 18  1  0
  8 10  4  0
  8 25  4  0
 10 23  1  0
 11 24  4  0
 13 15  1  0
 15 16  1  0
 17 26  4  0
 21 24  4  0
 21 25  4  0
M  END
$$$$

 Created by Python create_sdf_string function

 26 22  0  0  0  0  0  0  0  0999 V2000
   11.3687   -3.7358   18.5270 C   0  0  0  0  0  0  0  0  0  0  0  0
    4.6899   -7.9512   14.6894 C   0  0  0  0  0  0  0  0  0  0  0  0
   12.2432   -4.6853   24.8548 O   0  0  0  0  0  0  0  0  0  0  0  0
   11.7873   -3.8670   22.4739 C   0  0  0  0  0  0  0  0  0  0  0  0
    9.6215   -3.7415   20.8109 P   0  0  0  0  0  0  0  0  0  0  0  0
   11.5219   -3.5077   19.1192 C   0  0  0  0  0  0  0  0  0  0  0  0
   11.7768   -4.5336   20.3067 F   0  0  0  0  0  0  0  0  0  0  0  0
    9.1624   -6.2433   16.4282 C   0  0  0  0  0  0  0  0  0  0  0  0
    6.7791   -9.1808   19.5376 O   0  0  0  0  0  0  0  0  0  0  0  0
   11.8301   -3.3907   18.0447 C   0  0  0  0  0  0  0  0  0  0  0  0
   11.5517   -5.9216   23.3930 C   0  0  0  0  0  0  0  0  0  0  0  0
    9.7099   -8.2168   17.9670 C   0  0  0  0  0  0  0  0  0  0  0  0
   12.0307   -6.0234   17.7959 He  0  0  0  0  0  0  0  0  0  0  0  0
    6.0567   -9.5196   16.2307 He  0  0  0  0  0  0  0  0  0  0  0  0
    9.0267   -4.5427   17.2075 He  0  0  0  0  0  0  0  0  0  0  0  0
    6.6625   -6.6040   17.0737 He  0  0  0  0  0  0  0  0  0  0  0  0
    8.7396   -4.1778   15.9062 He  0  0  0  0  0  0  0  0  0  0  0  0
    9.9943   -5.6719   24.2283 He  0  0  0  0  0  0  0  0  0  0  0  0
    4.4001   -8.5436   16.5846 He  0  0  0  0  0  0  0  0  0  0  0  0
    6.2900   -8.7826   16.5108 He  0  0  0  0  0  0  0  0  0  0  0  0
    5.9760   -7.2708   15.6443 He  0  0  0  0  0  0  0  0  0  0  0  0
    7.4633   -6.3969   16.3656 He  0  0  0  0  0  0  0  0  0  0  0  0
    7.2375   -5.4737   15.6884 He  0  0  0  0  0  0  0  0  0  0  0  0
    5.4588   -9.1672   16.6452 He  0  0  0  0  0  0  0  0  0  0  0  0
   10.0834   -3.9896   22.2727 He  0  0  0  0  0  0  0  0  0  0  0  0
   10.0301   -3.8570   21.7943 He  0  0  0  0  0  0  0  0  0  0  0  0
  1  2  2  0
  1  3  2  0
  1  5  1  0
  1  6  4  0
  2  9  3  0
  2 11  1  0
  3  8  2  0
  4  5  4  0
  4  6  1  0
  4  8  3  0
  5  8  2  0
  5 10  1  0
  6  9  4  0
  6 10  3  0
  7 10  3  0
  8  9  2  0
  8 10  3  0
  8 12  4  0
  9 10  1  0
  9 11  4  0
  9 12  4  0
 10 12  1  0
M  END
$$$$

 Created by Python create_sdf_string function

 26 15  0  0  0  0  0  0  0  0999 V2000
   10.9477   -4.0506   18.6490 C   0  0  0  0  0  0  0  0  0  0  0  0
    4.6990   -8.1393   15.4627 C   0  0  0  0  0  0  0  0  0  0  0  0
   10.8302   -5.6948   18.2649 C   0  0  0  0  0  0  0  0  0  0  0  0
   11.6807   -4.6635   24.6938 O   0  0  0  0  0  0  0  0  0  0  0  0
    6.0464   -9.0848   16.8004 C   0  0  0  0  0  0  0  0  0  0  0  0
    9.6656   -4.8156   16.9271 C   0  0  0  0  0  0  0  0  0  0  0  0
    7.3922   -7.3746   16.9993 C   0  0  0  0  0  0  0  0  0  0  0  0
   11.2906   -4.2165   22.1370 C   0  0  0  0  0  0  0  0  0  0  0  0
    9.3541   -4.3167   16.3120 N   0  0  0  0  0  0  0  0  0  0  0  0
   10.6021   -4.0369   20.4844 C   0  0  0  0  0  0  0  0  0  0  0  0
   11.3368   -4.8774   24.0573 C   0  0  0  0  0  0  0  0  0  0  0  0
   11.0421   -3.8295   18.9971 C   0  0  0  0  0  0  0  0  0  0  0  0
    4.3661   -8.7125   16.4994 C   0  0  0  0  0  0  0  0  0  0  0  0
   11.5937   -4.9006   20.4680 C   0  0  0  0  0  0  0  0  0  0  0  0
    6.6493   -8.0640   16.4985 C   0  0  0  0  0  0  0  0  0  0  0  0
    5.7812   -7.5479   15.5770 C   0  0  0  0  0  0  0  0  0  0  0  0
    8.9177   -5.9390   16.8159 C   0  0  0  0  0  0  0  0  0  0  0  0
    8.0075   -6.6432   16.7158 C   0  0  0  0  0  0  0  0  0  0  0  0
    7.5835   -5.5729   15.7207 O   0  0  0  0  0  0  0  0  0  0  0  0
    5.1438   -9.0705   17.1175 C   0  0  0  0  0  0  0  0  0  0  0  0
   10.6844   -3.8638   22.3535 C   0  0  0  0  0  0  0  0  0  0  0  0
    6.9032   -8.6303   18.3266 O   0  0  0  0  0  0  0  0  0  0  0  0
   10.9548   -3.7688   17.6546 C   0  0  0  0  0  0  0  0  0  0  0  0
   11.7517   -5.3341   23.0874 C   0  0  0  0  0  0  0  0  0  0  0  0
   10.6836   -3.8234   22.3492 C   0  0  0  0  0  0  0  0  0  0  0  0
    9.0516   -7.7430   17.8362 C   0  0  0  0  0  0  0  0  0  0  0  0
  1 12  4  0
  2 13  1  0
  2 16  1  0
  4 11  2  0
  5 20  1  0
  6  9  1  0
  6 17  4  0
  7 15  1  0
  7 18  1  0
  8 25  4  0
 11 24  4  0
 13 20  1  0
 15 16  1  0
 17 18  1  0
 21 25  4  0
M  END
$$$$

 Created by Python create_sdf_string function

 26 34  0  0  0  0  0  0  0  0999 V2000
   11.1337   -4.2701   19.2082 C   0  0  0  0  0  0  0  0  0  0  0  0
    5.2336   -8.5184   14.3891 C   0  0  0  0  0  0  0  0  0  0  0  0
   12.5709   -3.7629   24.2615 O   0  0  0  0  0  0  0  0  0  0  0  0
    7.5002   -6.9536   16.0471 C   0  0  0  0  0  0  0  0  0  0  0  0
    7.9508   -4.1428   16.6066 N   0  0  0  0  0  0  0  0  0  0  0  0
   10.5716   -4.4959   20.4311 C   0  0  0  0  0  0  0  0  0  0  0  0
    3.4299   -8.1391   16.2769 C   0  0  0  0  0  0  0  0  0  0  0  0
    4.7488   -7.7038   15.2597 O   0  0  0  0  0  0  0  0  0  0  0  0
    7.5811   -6.5760   17.1119 N   0  0  0  0  0  0  0  0  0  0  0  0
    6.9010   -6.1249   15.4731 N   0  0  0  0  0  0  0  0  0  0  0  0
    5.2842   -9.4827   17.3777 C   0  0  0  0  0  0  0  0  0  0  0  0
   10.1016   -4.5483   23.2107 C   0  0  0  0  0  0  0  0  0  0  0  0
    6.6102   -7.4334   19.4662 F   0  0  0  0  0  0  0  0  0  0  0  0
   10.5074   -4.0905   17.4977 C   0  0  0  0  0  0  0  0  0  0  0  0
   12.8909   -6.2469   21.9779 C   0  0  0  0  0  0  0  0  0  0  0  0
    7.4925   -8.2735   18.9836 O   0  0  0  0  0  0  0  0  0  0  0  0
   11.4600   -7.1997   18.3000 He  0  0  0  0  0  0  0  0  0  0  0  0
    5.0072   -9.4459   17.1188 He  0  0  0  0  0  0  0  0  0  0  0  0
    9.2271   -4.8400   16.4331 He  0  0  0  0  0  0  0  0  0  0  0  0
   10.8343   -3.3631   20.9111 He  0  0  0  0  0  0  0  0  0  0  0  0
   11.4769   -5.1243   23.7367 He  0  0  0  0  0  0  0  0  0  0  0  0
   11.1036   -3.9976   19.3115 He  0  0  0  0  0  0  0  0  0  0  0  0
   12.0474   -5.2389   21.2007 He  0  0  0  0  0  0  0  0  0  0  0  0
    6.2742   -8.9235   16.4381 He  0  0  0  0  0  0  0  0  0  0  0  0
    8.4741   -6.0666   16.9473 He  0  0  0  0  0  0  0  0  0  0  0  0
   10.2979   -5.1740   21.7631 He  0  0  0  0  0  0  0  0  0  0  0  0
  1  3  1  0
  2  3  1  0
  2  5  4  0
  2  6  2  0
  3  4  1  0
  3  8  1  0
  3 10  1  0
  3 11  4  0
  3 13  2  0
  4  5  2  0
  4  6  2  0
  4 13  1  0
  5  6  1  0
  5  7  2  0
  5  9  1  0
  5 14  1  0
  5 16  3  0
  6  8  4  0
  6 11  2  0
  6 15  1  0
  6 16  1  0
  7 16  1  0
  8 12  2  0
  8 13  4  0
  8 14  2  0
  9 15  2  0
 10 12  1  0
 10 14  3  0
 10 15  2  0
 11 13  3  0
 11 15  4  0
 12 13  3  0
 12 14  4  0
 12 15  2  0
M  END
$$$$

 Created by Python create_sdf_string function

 26 19  0  0  0  0  0  0  0  0999 V2000
   10.7539   -4.6894   18.7235 C   0  0  0  0  0  0  0  0  0  0  0  0
    5.4235   -8.3797   15.4269 C   0  0  0  0  0  0  0  0  0  0  0  0
   10.3570   -6.6081   18.5128 C   0  0  0  0  0  0  0  0  0  0  0  0
   12.2194   -4.4385   24.4224 O   0  0  0  0  0  0  0  0  0  0  0  0
    5.2899   -9.0991   17.4114 C   0  0  0  0  0  0  0  0  0  0  0  0
    9.1074   -4.8385   16.4071 C   0  0  0  0  0  0  0  0  0  0  0  0
    7.4837   -7.4217   16.4330 C   0  0  0  0  0  0  0  0  0  0  0  0
   10.7743   -3.9631   20.8175 C   0  0  0  0  0  0  0  0  0  0  0  0
    9.1376   -4.5354   16.3509 N   0  0  0  0  0  0  0  0  0  0  0  0
   10.7474   -4.4368   20.3821 C   0  0  0  0  0  0  0  0  0  0  0  0
   11.9157   -4.6728   23.4765 C   0  0  0  0  0  0  0  0  0  0  0  0
   10.9197   -4.1203   19.6672 C   0  0  0  0  0  0  0  0  0  0  0  0
    3.9533   -8.6227   16.4486 C   0  0  0  0  0  0  0  0  0  0  0  0
   12.2998   -5.2227   21.2245 C   0  0  0  0  0  0  0  0  0  0  0  0
    6.3425   -8.3441   16.0179 C   0  0  0  0  0  0  0  0  0  0  0  0
    4.8881   -7.7493   15.5174 C   0  0  0  0  0  0  0  0  0  0  0  0
    8.1708   -6.2765   16.9729 N   0  0  0  0  0  0  0  0  0  0  0  0
    8.8764   -6.4071   17.2198 C   0  0  0  0  0  0  0  0  0  0  0  0
    7.1162   -6.3278   15.5484 C   0  0  0  0  0  0  0  0  0  0  0  0
    5.0638   -9.0350   17.4941 C   0  0  0  0  0  0  0  0  0  0  0  0
   10.7595   -3.9845   23.4630 C   0  0  0  0  0  0  0  0  0  0  0  0
    7.0210   -7.9008   18.0526 C   0  0  0  0  0  0  0  0  0  0  0  0
   10.4494   -4.1087   17.4689 C   0  0  0  0  0  0  0  0  0  0  0  0
   12.7061   -5.2631   22.0667 C   0  0  0  0  0  0  0  0  0  0  0  0
   10.9640   -4.3287   21.9751 C   0  0  0  0  0  0  0  0  0  0  0  0
    7.6898   -8.1049   18.3399 O   0  0  0  0  0  0  0  0  0  0  0  0
  1  3  1  0
  1 23  1  0
  2 15  1  0
  2 16  1  0
  4 11  2  0
  5 20  1  0
  6  9  1  0
  7 15  1  0
  7 18  1  0
  7 19  1  0
  8 10  4  0
  8 12  4  0
  8 25  4  0
  9 23  1  0
 11 21  1  0
 11 24  4  0
 14 24  4  0
 17 18  1  0
 22 26  1  0
M  END
$$$$

 Created by Python create_sdf_string function

 26 46  0  0  0  0  0  0  0  0999 V2000
   11.4541   -4.2172   19.2270 F   0  0  0  0  0  0  0  0  0  0  0  0
    5.0599   -7.8857   14.9768 F   0  0  0  0  0  0  0  0  0  0  0  0
   10.3244   -6.7200   17.9648 S   0  0  0  0  0  0  0  0  0  0  0  0
   11.9868   -4.9618   24.4050 O   0  0  0  0  0  0  0  0  0  0  0  0
    6.0250   -8.5969   18.3096 S   0  0  0  0  0  0  0  0  0  0  0  0
    9.2750   -3.9204   16.2514 C   0  0  0  0  0  0  0  0  0  0  0  0
    8.0498   -7.2055   16.9821 O   0  0  0  0  0  0  0  0  0  0  0  0
   11.1158   -3.5868   21.1747 O   0  0  0  0  0  0  0  0  0  0  0  0
    9.7341   -4.2111   14.7473 N   0  0  0  0  0  0  0  0  0  0  0  0
   10.8113   -4.1316   20.3429 P   0  0  0  0  0  0  0  0  0  0  0  0
    3.6515   -8.5431   15.9061 C   0  0  0  0  0  0  0  0  0  0  0  0
   11.6208   -5.0819   21.8870 N   0  0  0  0  0  0  0  0  0  0  0  0
    8.1131   -7.4994   16.7050 N   0  0  0  0  0  0  0  0  0  0  0  0
    8.2380   -6.2833   16.8132 C   0  0  0  0  0  0  0  0  0  0  0  0
    7.5936   -6.9579   16.3789 B   0  0  0  0  0  0  0  0  0  0  0  0
    5.3898   -9.5978   16.6384 P   0  0  0  0  0  0  0  0  0  0  0  0
    9.6020   -4.0279   17.7309 C   0  0  0  0  0  0  0  0  0  0  0  0
   13.2281   -4.4793   21.5294 O   0  0  0  0  0  0  0  0  0  0  0  0
   10.9802   -3.2210   21.9016 C   0  0  0  0  0  0  0  0  0  0  0  0
    6.2376   -8.3269   16.9126 F   0  0  0  0  0  0  0  0  0  0  0  0
   12.5196   -4.1574   23.4126 He  0  0  0  0  0  0  0  0  0  0  0  0
   10.4350   -3.2759   18.7835 He  0  0  0  0  0  0  0  0  0  0  0  0
    8.5129  -10.1152   16.2746 He  0  0  0  0  0  0  0  0  0  0  0  0
    4.7658   -8.8364   15.5180 He  0  0  0  0  0  0  0  0  0  0  0  0
   10.9705   -4.1864   21.9813 He  0  0  0  0  0  0  0  0  0  0  0  0
    6.8808   -9.0628   17.5604 He  0  0  0  0  0  0  0  0  0  0  0  0
  1  5  3  0
  1  7  4  0
  2  3  4  0
  2  5  1  0
  2  6  3  0
  2 13  2  0
  2 15  1  0
  3  8  2  0
  3 12  4  0
  3 13  3  0
  3 14  3  0
  3 16  4  0
  3 20  1  0
  4  7  3  0
  4 13  4  0
  4 14  1  0
  5  6  4  0
  5  8  4  0
  5 11  2  0
  5 16  1  0
  5 19  2  0
  6  8  3  0
  6 11  1  0
  6 14  3  0
  7 13  3  0
  7 15  3  0
  7 20  2  0
  8 10  4  0
  8 15  4  0
  8 17  4  0
  8 19  4  0
  9 16  2  0
  9 18  3  0
  9 19  3  0
 10 13  1  0
 10 18  4  0
 11 12  4  0
 11 15  3  0
 11 17  4  0
 11 20  3  0
 12 16  2  0
 12 18  2  0
 13 15  2  0
 14 15  2  0
 14 16  2  0
 15 17  3  0
M  END
$$$$

 Created by Python create_sdf_string function

 26 17  0  0  0  0  0  0  0  0999 V2000
   11.0429   -4.1038   19.0414 C   0  0  0  0  0  0  0  0  0  0  0  0
    5.3582   -7.7422   15.5658 C   0  0  0  0  0  0  0  0  0  0  0  0
    9.8062   -6.2309   18.3252 S   0  0  0  0  0  0  0  0  0  0  0  0
   12.1345   -4.7611   24.4483 O   0  0  0  0  0  0  0  0  0  0  0  0
    5.7509   -8.8080   17.7412 C   0  0  0  0  0  0  0  0  0  0  0  0
    9.5083   -4.2981   16.3095 C   0  0  0  0  0  0  0  0  0  0  0  0
    8.1252   -7.3146   16.7567 C   0  0  0  0  0  0  0  0  0  0  0  0
   10.9393   -3.6275   21.0600 C   0  0  0  0  0  0  0  0  0  0  0  0
    9.3956   -3.9345   15.8341 N   0  0  0  0  0  0  0  0  0  0  0  0
   11.4649   -4.3594   20.4648 C   0  0  0  0  0  0  0  0  0  0  0  0
   11.9721   -4.5990   23.4318 C   0  0  0  0  0  0  0  0  0  0  0  0
   10.4785   -4.4387   18.2990 C   0  0  0  0  0  0  0  0  0  0  0  0
    3.8730   -8.7700   16.3388 C   0  0  0  0  0  0  0  0  0  0  0  0
   12.1465   -4.8991   21.7848 C   0  0  0  0  0  0  0  0  0  0  0  0
    8.1206   -8.6409   16.0884 C   0  0  0  0  0  0  0  0  0  0  0  0
    4.4410   -8.4801   16.0246 C   0  0  0  0  0  0  0  0  0  0  0  0
    7.9880   -7.3174   16.8588 N   0  0  0  0  0  0  0  0  0  0  0  0
    8.9534   -5.9651   16.9365 C   0  0  0  0  0  0  0  0  0  0  0  0
    7.5194   -6.5083   16.0727 C   0  0  0  0  0  0  0  0  0  0  0  0
    5.0319   -9.3944   17.3464 C   0  0  0  0  0  0  0  0  0  0  0  0
   10.9983   -3.8224   22.7425 C   0  0  0  0  0  0  0  0  0  0  0  0
    6.9153   -8.3589   17.5752 C   0  0  0  0  0  0  0  0  0  0  0  0
   10.2193   -4.1506   17.6543 C   0  0  0  0  0  0  0  0  0  0  0  0
   12.6927   -4.9094   21.7523 C   0  0  0  0  0  0  0  0  0  0  0  0
   10.7462   -3.4317   22.1078 C   0  0  0  0  0  0  0  0  0  0  0  0
    5.9889   -8.4144   16.6487 C   0  0  0  0  0  0  0  0  0  0  0  0
  1 12  1  0
  2 16  1  0
  3 12  4  0
  3 18  4  0
  4 11  2  0
  5 20  1  0
  6  9  4  0
  7 15  1  0
  8 10  4  0
  8 25  4  0
 11 21  4  0
 11 24  4  0
 12 23  4  0
 13 16  1  0
 14 24  4  0
 17 22  1  0
 21 25  4  0
M  END
$$$$

 Created by Python create_sdf_string function

 26 69  0  0  0  0  0  0  0  0999 V2000
   10.2831   -5.1638   18.7541 F   0  0  0  0  0  0  0  0  0  0  0  0
    5.6262   -7.4022   16.8692 C   0  0  0  0  0  0  0  0  0  0  0  0
    9.5742   -6.3199   17.6564 C   0  0  0  0  0  0  0  0  0  0  0  0
    8.1234   -6.6627   16.5357 C   0  0  0  0  0  0  0  0  0  0  0  0
   10.6330   -4.6810   21.1120 B   0  0  0  0  0  0  0  0  0  0  0  0
    8.3521   -4.9209   16.4056 F   0  0  0  0  0  0  0  0  0  0  0  0
   10.3937   -4.6273   21.1773 C   0  0  0  0  0  0  0  0  0  0  0  0
   10.6708   -3.6019   24.8899 F   0  0  0  0  0  0  0  0  0  0  0  0
    9.8837   -5.0392   17.3531 C   0  0  0  0  0  0  0  0  0  0  0  0
    3.5046   -8.6487   15.9767 C   0  0  0  0  0  0  0  0  0  0  0  0
   12.3875   -3.7254   20.9880 C   0  0  0  0  0  0  0  0  0  0  0  0
    8.7837   -9.0724   16.0093 Cl  0  0  0  0  0  0  0  0  0  0  0  0
    4.9899   -7.9727   16.2270 O   0  0  0  0  0  0  0  0  0  0  0  0
    7.4331   -7.1080   15.8919 B   0  0  0  0  0  0  0  0  0  0  0  0
    9.8217   -6.4777   17.8598 F   0  0  0  0  0  0  0  0  0  0  0  0
    7.5427   -6.7516   14.5642 N   0  0  0  0  0  0  0  0  0  0  0  0
    4.3762  -10.1472   16.3063 O   0  0  0  0  0  0  0  0  0  0  0  0
   11.1439   -2.8503   23.2058 C   0  0  0  0  0  0  0  0  0  0  0  0
    6.3686   -7.3085   16.6876 F   0  0  0  0  0  0  0  0  0  0  0  0
    9.5450   -4.3374   17.9359 C   0  0  0  0  0  0  0  0  0  0  0  0
   12.4834   -6.3500   20.7096 C   0  0  0  0  0  0  0  0  0  0  0  0
   10.7792   -2.7196   21.7554 C   0  0  0  0  0  0  0  0  0  0  0  0
   11.6682   -6.3934   25.0581 He  0  0  0  0  0  0  0  0  0  0  0  0
    4.9742   -7.8817   16.8034 He  0  0  0  0  0  0  0  0  0  0  0  0
    9.9784   -3.8551   14.9212 He  0  0  0  0  0  0  0  0  0  0  0  0
    6.3623   -7.7662   17.9677 He  0  0  0  0  0  0  0  0  0  0  0  0
  1  5  1  0
  1  7  3  0
  1  8  4  0
  1  9  1  0
  1 10  3  0
  1 11  2  0
  1 13  1  0
  1 16  1  0
  1 19  4  0
  1 21  3  0
  1 22  3  0
  2  3  3  0
  2  4  4  0
  2 10  2  0
  2 15  3  0
  2 17  4  0
  2 19  2  0
  2 21  3  0
  3  4  3  0
  3 17  4  0
  3 19  2  0
  3 21  3  0
  4  9  2  0
  4 10  2  0
  4 14  1  0
  4 16  1  0
  4 19  3  0
  4 20  1  0
  4 22  2  0
  5 12  1  0
  5 16  3  0
  5 18  4  0
  6 10  3  0
  6 13  1  0
  6 16  2  0
  7  8  2  0
  7 11  2  0
  7 16  3  0
  7 17  1  0
  7 20  1  0
  7 21  2  0
  8  9  4  0
  8 10  2  0
  9 11  4  0
  9 14  4  0
  9 18  3  0
  9 19  3  0
  9 20  4  0
 10 11  3  0
 10 13  4  0
 10 14  2  0
 11 15  4  0
 11 17  3  0
 11 20  1  0
 12 13  2  0
 12 16  1  0
 12 19  1  0
 13 15  4  0
 13 18  1  0
 14 16  1  0
 14 17  2  0
 15 16  2  0
 15 21  4  0
 15 22  3  0
 16 20  4  0
 17 22  4  0
 18 22  4  0
 19 21  2  0
 21 22  3  0
M  END
$$$$

 Created by Python create_sdf_string function

 26 16  0  0  0  0  0  0  0  0999 V2000
   10.6907   -5.0987   19.3351 C   0  0  0  0  0  0  0  0  0  0  0  0
    5.3004   -8.2059   16.9997 C   0  0  0  0  0  0  0  0  0  0  0  0
    9.3607   -6.3197   17.8815 C   0  0  0  0  0  0  0  0  0  0  0  0
   11.6385   -5.0087   23.9289 O   0  0  0  0  0  0  0  0  0  0  0  0
    5.2265   -8.0121   16.9276 C   0  0  0  0  0  0  0  0  0  0  0  0
    9.7721   -3.9418   16.0656 C   0  0  0  0  0  0  0  0  0  0  0  0
    8.2958   -6.5182   16.7227 C   0  0  0  0  0  0  0  0  0  0  0  0
   10.7384   -4.1833   21.0364 C   0  0  0  0  0  0  0  0  0  0  0  0
    8.8492   -4.7499   15.9717 C   0  0  0  0  0  0  0  0  0  0  0  0
   10.9411   -4.3517   21.2754 C   0  0  0  0  0  0  0  0  0  0  0  0
   11.0358   -3.8483   24.5395 O   0  0  0  0  0  0  0  0  0  0  0  0
   10.0638   -4.9672   17.9542 C   0  0  0  0  0  0  0  0  0  0  0  0
    3.6655   -8.8219   16.2490 C   0  0  0  0  0  0  0  0  0  0  0  0
   12.0050   -4.4186   21.6447 C   0  0  0  0  0  0  0  0  0  0  0  0
    8.4407   -8.5063   16.0940 C   0  0  0  0  0  0  0  0  0  0  0  0
    4.3324   -8.1935   16.0279 C   0  0  0  0  0  0  0  0  0  0  0  0
    7.3824   -7.0608   16.3108 C   0  0  0  0  0  0  0  0  0  0  0  0
    9.9124   -6.6464   18.5489 C   0  0  0  0  0  0  0  0  0  0  0  0
    7.7144   -6.8400   15.3453 N   0  0  0  0  0  0  0  0  0  0  0  0
    4.0693   -9.3287   16.8948 C   0  0  0  0  0  0  0  0  0  0  0  0
   10.9926   -3.5377   23.4423 C   0  0  0  0  0  0  0  0  0  0  0  0
    6.2660   -7.7469   16.5918 C   0  0  0  0  0  0  0  0  0  0  0  0
   10.1794   -4.2391   17.4931 C   0  0  0  0  0  0  0  0  0  0  0  0
   11.8842   -5.2057   20.9380 C   0  0  0  0  0  0  0  0  0  0  0  0
   10.8185   -3.3293   22.4481 C   0  0  0  0  0  0  0  0  0  0  0  0
    7.2666   -7.9248   17.7071 C   0  0  0  0  0  0  0  0  0  0  0  0
  1 12  1  0
  2  5  4  0
  2 20  4  0
  3  7  4  0
  3 18  4  0
  6  9  4  0
  6 23  4  0
  7 17  1  0
  8 10  4  0
 11 21  1  0
 12 23  4  0
 13 16  4  0
 13 20  4  0
 14 24  4  0
 17 19  1  0
 21 25  4  0
M  END
$$$$

 Created by Python create_sdf_string function

 26 41  0  0  0  0  0  0  0  0999 V2000
   11.6174   -3.6369   19.4884 C   0  0  0  0  0  0  0  0  0  0  0  0
   11.0712   -5.9916   25.0454 O   0  0  0  0  0  0  0  0  0  0  0  0
    9.6938   -4.2118   15.3621 Br  0  0  0  0  0  0  0  0  0  0  0  0
    8.4886   -6.4101   16.7538 C   0  0  0  0  0  0  0  0  0  0  0  0
    9.0729   -6.3802   15.4750 O   0  0  0  0  0  0  0  0  0  0  0  0
   10.0776   -3.6757   25.3113 C   0  0  0  0  0  0  0  0  0  0  0  0
   10.8057   -3.9407   18.4420 C   0  0  0  0  0  0  0  0  0  0  0  0
    1.6416   -8.9936   16.4995 C   0  0  0  0  0  0  0  0  0  0  0  0
   12.7090   -4.5110   21.6656 I   0  0  0  0  0  0  0  0  0  0  0  0
    8.0806   -7.7093   16.5882 C   0  0  0  0  0  0  0  0  0  0  0  0
    4.0209   -7.6636   16.0878 C   0  0  0  0  0  0  0  0  0  0  0  0
   11.7043   -3.0196   24.4582 N   0  0  0  0  0  0  0  0  0  0  0  0
    5.6721   -8.2744   15.0714 C   0  0  0  0  0  0  0  0  0  0  0  0
    9.5445   -2.8127   17.6983 C   0  0  0  0  0  0  0  0  0  0  0  0
   12.1419   -4.9181   19.9895 C   0  0  0  0  0  0  0  0  0  0  0  0
   11.0520   -3.4706   22.6196 N   0  0  0  0  0  0  0  0  0  0  0  0
    7.3959   -8.0294   17.1728 Se  0  0  0  0  0  0  0  0  0  0  0  0
    5.5903   -8.0380   16.0985 He  0  0  0  0  0  0  0  0  0  0  0  0
    8.5129   -6.0834   18.0097 He  0  0  0  0  0  0  0  0  0  0  0  0
    5.6501   -7.9579   17.1612 He  0  0  0  0  0  0  0  0  0  0  0  0
   11.3669   -4.2186   20.2479 He  0  0  0  0  0  0  0  0  0  0  0  0
   11.2917   -3.5955   21.0478 He  0  0  0  0  0  0  0  0  0  0  0  0
    6.0826   -6.5960   15.8545 He  0  0  0  0  0  0  0  0  0  0  0  0
   10.3668   -6.8473   18.3235 He  0  0  0  0  0  0  0  0  0  0  0  0
    8.2913   -5.2867   16.3702 He  0  0  0  0  0  0  0  0  0  0  0  0
    4.5356  -10.6467   16.4528 He  0  0  0  0  0  0  0  0  0  0  0  0
  1  4  1  0
  1  5  1  0
  1  7  1  0
  1 13  4  0
  1 17  4  0
  2  3  4  0
  2  5  4  0
  2  7  1  0
  2 12  2  0
  2 14  3  0
  2 15  4  0
  2 16  3  0
  3  7  3  0
  3 11  1  0
  3 16  1  0
  4  5  3  0
  4 10  1  0
  4 11  4  0
  4 13  3  0
  4 14  2  0
  4 16  4  0
  5  8  4  0
  5 10  2  0
  5 12  4  0
  5 15  3  0
  6 15  4  0
  6 17  1  0
  7 12  2  0
  7 14  4  0
  8 10  1  0
  8 11  4  0
  9 10  3  0
  9 12  2  0
  9 13  2  0
  9 15  4  0
 11 13  1  0
 11 16  1  0
 12 15  2  0
 13 15  1  0
 14 16  1  0
 15 17  2  0
M  END
$$$$

 Created by Python create_sdf_string function

 26 15  0  0  0  0  0  0  0  0999 V2000
   10.9597   -4.0840   19.7409 C   0  0  0  0  0  0  0  0  0  0  0  0
    5.3775   -8.3674   16.5909 C   0  0  0  0  0  0  0  0  0  0  0  0
    8.9958   -5.9369   17.6745 C   0  0  0  0  0  0  0  0  0  0  0  0
   11.5576   -5.0411   24.2855 O   0  0  0  0  0  0  0  0  0  0  0  0
    5.6028   -8.4215   16.7245 C   0  0  0  0  0  0  0  0  0  0  0  0
    9.7960   -4.0999   16.2044 C   0  0  0  0  0  0  0  0  0  0  0  0
    8.5537   -6.5376   17.1449 C   0  0  0  0  0  0  0  0  0  0  0  0
   11.1316   -4.5128   20.5769 C   0  0  0  0  0  0  0  0  0  0  0  0
    8.8664   -6.4867   15.7173 O   0  0  0  0  0  0  0  0  0  0  0  0
   11.1337   -3.5217   21.0347 C   0  0  0  0  0  0  0  0  0  0  0  0
   10.3901   -3.3313   24.8795 C   0  0  0  0  0  0  0  0  0  0  0  0
   10.6251   -4.2803   18.5538 C   0  0  0  0  0  0  0  0  0  0  0  0
    3.1490   -9.1912   16.5023 C   0  0  0  0  0  0  0  0  0  0  0  0
   12.2148   -4.7314   21.6199 C   0  0  0  0  0  0  0  0  0  0  0  0
    8.0896   -7.7646   16.7812 C   0  0  0  0  0  0  0  0  0  0  0  0
    3.6048   -8.2772   15.9327 C   0  0  0  0  0  0  0  0  0  0  0  0
    6.6063   -6.7210   15.9061 C   0  0  0  0  0  0  0  0  0  0  0  0
   10.0850   -6.3248   18.6064 C   0  0  0  0  0  0  0  0  0  0  0  0
    8.5986   -5.4028   16.3224 C   0  0  0  0  0  0  0  0  0  0  0  0
    4.1627   -9.6438   17.2019 C   0  0  0  0  0  0  0  0  0  0  0  0
   11.1551   -4.0096   23.9307 C   0  0  0  0  0  0  0  0  0  0  0  0
    5.2096   -8.0173   15.7921 C   0  0  0  0  0  0  0  0  0  0  0  0
   10.2681   -4.0385   17.5008 C   0  0  0  0  0  0  0  0  0  0  0  0
   11.8542   -5.0682   20.5040 C   0  0  0  0  0  0  0  0  0  0  0  0
   11.0248   -3.5309   22.6294 N   0  0  0  0  0  0  0  0  0  0  0  0
    7.0763   -8.3068   17.3378 C   0  0  0  0  0  0  0  0  0  0  0  0
  1 10  4  0
  1 12  1  0
  2  5  4  0
  3  7  1  0
  4 21  2  0
  5 22  4  0
  6 23  4  0
  7 15  1  0
 11 21  1  0
 12 23  4  0
 13 16  4  0
 13 20  4  0
 14 24  4  0
 16 22  4  0
 21 25  1  0
M  END
$$$$

 Created by Python create_sdf_string function

 26 25  0  0  0  0  0  0  0  0999 V2000
   10.5635   -5.1490   20.0435 F   0  0  0  0  0  0  0  0  0  0  0  0
    5.0440   -7.5321   16.8241 C   0  0  0  0  0  0  0  0  0  0  0  0
    8.8212   -5.0373   19.1685 C   0  0  0  0  0  0  0  0  0  0  0  0
   11.8125   -5.0709   23.5375 P   0  0  0  0  0  0  0  0  0  0  0  0
   10.8136   -3.3669   17.2353 C   0  0  0  0  0  0  0  0  0  0  0  0
    7.6138   -5.9308   15.1970 O   0  0  0  0  0  0  0  0  0  0  0  0
   10.4662   -2.4862   21.7609 C   0  0  0  0  0  0  0  0  0  0  0  0
    3.0299   -8.5385   16.1855 C   0  0  0  0  0  0  0  0  0  0  0  0
    7.2005   -8.6336   15.8999 C   0  0  0  0  0  0  0  0  0  0  0  0
    3.8848   -8.7994   15.6166 P   0  0  0  0  0  0  0  0  0  0  0  0
   11.1501   -6.3549   19.7549 C   0  0  0  0  0  0  0  0  0  0  0  0
    5.0318   -8.3846   17.3308 C   0  0  0  0  0  0  0  0  0  0  0  0
   10.4627   -4.3497   15.8338 Cl  0  0  0  0  0  0  0  0  0  0  0  0
   10.9221   -5.5851   20.0574 F   0  0  0  0  0  0  0  0  0  0  0  0
   11.2228   -3.3595   23.2093 F   0  0  0  0  0  0  0  0  0  0  0  0
    5.8789   -6.9232   15.8038 He  0  0  0  0  0  0  0  0  0  0  0  0
    8.2990   -5.4664   17.1446 He  0  0  0  0  0  0  0  0  0  0  0  0
   11.3868   -4.8470   20.6938 He  0  0  0  0  0  0  0  0  0  0  0  0
   10.3353   -3.4596   25.7372 He  0  0  0  0  0  0  0  0  0  0  0  0
   10.9788   -3.9910   18.3301 He  0  0  0  0  0  0  0  0  0  0  0  0
   11.8170   -4.6014   20.3109 He  0  0  0  0  0  0  0  0  0  0  0  0
    6.4297   -6.9062   15.6176 He  0  0  0  0  0  0  0  0  0  0  0  0
    9.0048   -4.2014   15.3155 He  0  0  0  0  0  0  0  0  0  0  0  0
   11.2349   -5.0010   23.8601 He  0  0  0  0  0  0  0  0  0  0  0  0
    5.5238   -7.4103   15.2788 He  0  0  0  0  0  0  0  0  0  0  0  0
    6.4965   -7.2836   15.5471 He  0  0  0  0  0  0  0  0  0  0  0  0
  1  4  1  0
  1  5  2  0
  1  7  1  0
  1  8  3  0
  1  9  3  0
  1 11  3  0
  1 13  1  0
  1 14  2  0
  3  7  1  0
  3 12  1  0
  3 14  3  0
  4 12  1  0
  5 11  1  0
  5 12  3  0
  5 13  2  0
  5 15  4  0
  6  9  4  0
  6 11  4  0
  8  9  2  0
 10 11  1  0
 10 13  2  0
 11 13  3  0
 11 14  3  0
 12 13  1  0
 14 15  3  0
M  END
$$$$

 Created by Python create_sdf_string function

 26 19  0  0  0  0  0  0  0  0999 V2000
   10.7465   -4.6625   20.3094 C   0  0  0  0  0  0  0  0  0  0  0  0
    5.3834   -8.0529   17.1158 C   0  0  0  0  0  0  0  0  0  0  0  0
    9.6016   -5.5216   18.1111 C   0  0  0  0  0  0  0  0  0  0  0  0
   11.7732   -5.1464   23.5198 C   0  0  0  0  0  0  0  0  0  0  0  0
    5.7345   -7.5332   15.9990 C   0  0  0  0  0  0  0  0  0  0  0  0
   10.8311   -3.8079   17.3643 C   0  0  0  0  0  0  0  0  0  0  0  0
    8.7917   -5.9127   16.9772 N   0  0  0  0  0  0  0  0  0  0  0  0
   11.2452   -4.6485   21.4431 C   0  0  0  0  0  0  0  0  0  0  0  0
    7.4508   -5.5642   15.3408 O   0  0  0  0  0  0  0  0  0  0  0  0
   10.6831   -3.3702   22.1919 C   0  0  0  0  0  0  0  0  0  0  0  0
   10.7990   -3.6996   25.1359 O   0  0  0  0  0  0  0  0  0  0  0  0
   10.6565   -4.2914   18.2616 C   0  0  0  0  0  0  0  0  0  0  0  0
    3.4291   -8.7901   16.5595 C   0  0  0  0  0  0  0  0  0  0  0  0
   11.5748   -4.9263   21.0520 C   0  0  0  0  0  0  0  0  0  0  0  0
    7.9327   -7.7853   16.4335 C   0  0  0  0  0  0  0  0  0  0  0  0
    3.5590   -8.5291   15.8398 C   0  0  0  0  0  0  0  0  0  0  0  0
    7.5530   -7.1073   16.4015 C   0  0  0  0  0  0  0  0  0  0  0  0
   10.5862   -5.8539   19.5046 C   0  0  0  0  0  0  0  0  0  0  0  0
    9.0642   -4.5391   15.9612 C   0  0  0  0  0  0  0  0  0  0  0  0
    4.5387   -8.6774   17.4100 C   0  0  0  0  0  0  0  0  0  0  0  0
   11.2765   -4.3474   24.0944 C   0  0  0  0  0  0  0  0  0  0  0  0
    4.9060   -7.6430   15.2902 C   0  0  0  0  0  0  0  0  0  0  0  0
   10.0689   -3.9346   16.1804 C   0  0  0  0  0  0  0  0  0  0  0  0
   10.9224   -5.0270   20.0451 C   0  0  0  0  0  0  0  0  0  0  0  0
   10.9231   -3.5567   22.8896 C   0  0  0  0  0  0  0  0  0  0  0  0
    6.6430   -7.0304   15.7154 C   0  0  0  0  0  0  0  0  0  0  0  0
  2  5  4  0
  2 20  4  0
  3  7  4  0
  3 12  4  0
  4 21  4  0
  5 22  4  0
  5 26  4  0
  6 12  4  0
  6 23  4  0
  7 19  4  0
 10 25  4  0
 11 21  1  0
 13 16  4  0
 13 20  4  0
 14 24  4  0
 15 17  1  0
 16 22  4  0
 19 23  4  0
 21 25  4  0
M  END
$$$$

 Created by Python create_sdf_string function

 26 43  0  0  0  0  0  0  0  0999 V2000
   11.1360   -4.1169   20.2140 C   0  0  0  0  0  0  0  0  0  0  0  0
    5.7647   -9.0857   15.5882 C   0  0  0  0  0  0  0  0  0  0  0  0
   11.5890   -5.1447   23.7633 Cl  0  0  0  0  0  0  0  0  0  0  0  0
    5.8476   -7.9776   16.8348 Br  0  0  0  0  0  0  0  0  0  0  0  0
   10.6158   -4.7486   18.1125 P   0  0  0  0  0  0  0  0  0  0  0  0
    8.7920   -6.9780   16.6591 P   0  0  0  0  0  0  0  0  0  0  0  0
    9.4126   -4.2345   21.8839 S   0  0  0  0  0  0  0  0  0  0  0  0
    9.6040   -3.2302   22.1544 Se  0  0  0  0  0  0  0  0  0  0  0  0
   11.8294   -3.5024   25.7555 N   0  0  0  0  0  0  0  0  0  0  0  0
   10.7646   -4.5056   20.3462 F   0  0  0  0  0  0  0  0  0  0  0  0
    6.8175   -8.0905   15.6330 C   0  0  0  0  0  0  0  0  0  0  0  0
    3.2517   -9.0657   15.1572 F   0  0  0  0  0  0  0  0  0  0  0  0
    7.5200   -7.6419   15.1287 C   0  0  0  0  0  0  0  0  0  0  0  0
    9.5411   -4.9064   16.6029 Br  0  0  0  0  0  0  0  0  0  0  0  0
    4.4822   -8.1591   18.0596 Se  0  0  0  0  0  0  0  0  0  0  0  0
   11.4176   -3.3410   23.9483 C   0  0  0  0  0  0  0  0  0  0  0  0
    9.4897   -4.1557   16.7457 C   0  0  0  0  0  0  0  0  0  0  0  0
   10.7373   -4.2538   17.3920 He  0  0  0  0  0  0  0  0  0  0  0  0
    7.6439   -5.9720   14.8956 He  0  0  0  0  0  0  0  0  0  0  0  0
   11.4484   -5.3013   18.4944 He  0  0  0  0  0  0  0  0  0  0  0  0
    4.6747   -8.8935   18.4344 He  0  0  0  0  0  0  0  0  0  0  0  0
   10.2124   -6.0681   20.0255 He  0  0  0  0  0  0  0  0  0  0  0  0
    3.3566   -8.8382   15.7530 He  0  0  0  0  0  0  0  0  0  0  0  0
   10.7053   -3.0906   19.4256 He  0  0  0  0  0  0  0  0  0  0  0  0
   11.0185   -2.6862   22.7082 He  0  0  0  0  0  0  0  0  0  0  0  0
    7.4313   -7.7182   15.8141 He  0  0  0  0  0  0  0  0  0  0  0  0
  1  5  3  0
  1 11  1  0
  1 17  1  0
  2  4  4  0
  2  5  1  0
  2  6  2  0
  2  7  1  0
  2  8  2  0
  2 15  1  0
  3  5  1  0
  3  8  4  0
  3 13  2  0
  3 14  2  0
  3 16  4  0
  3 17  3  0
  4 10  1  0
  4 11  3  0
  4 13  2  0
  4 15  1  0
  4 17  3  0
  5  6  4  0
  5  8  1  0
  6  7  2  0
  6  8  4  0
  6 11  4  0
  6 14  1  0
  7  9  3  0
  7 16  2  0
  7 17  3  0
  8  9  4  0
  8 11  2  0
  8 17  3  0
  9 12  2  0
  9 15  4  0
  9 16  3  0
 10 11  3  0
 10 12  3  0
 10 17  3  0
 11 16  3  0
 12 16  1  0
 13 14  2  0
 14 16  4  0
 16 17  4  0
M  END
$$$$

 Created by Python create_sdf_string function

 26 19  0  0  0  0  0  0  0  0999 V2000
   11.0641   -4.5108   20.7104 C   0  0  0  0  0  0  0  0  0  0  0  0
    5.3679   -8.7311   15.5522 C   0  0  0  0  0  0  0  0  0  0  0  0
   10.7478   -3.8590   17.5253 C   0  0  0  0  0  0  0  0  0  0  0  0
   11.4199   -4.7821   23.4723 C   0  0  0  0  0  0  0  0  0  0  0  0
    5.8110   -8.4222   16.5891 C   0  0  0  0  0  0  0  0  0  0  0  0
   10.6157   -4.6149   17.9736 C   0  0  0  0  0  0  0  0  0  0  0  0
    8.9090   -6.9143   17.0076 C   0  0  0  0  0  0  0  0  0  0  0  0
   10.6450   -3.8317   21.7222 C   0  0  0  0  0  0  0  0  0  0  0  0
    7.6642   -5.5495   15.5371 O   0  0  0  0  0  0  0  0  0  0  0  0
   10.3860   -2.9990   22.7878 C   0  0  0  0  0  0  0  0  0  0  0  0
   11.3971   -3.6201   25.3815 N   0  0  0  0  0  0  0  0  0  0  0  0
   10.8310   -5.4264   18.8292 C   0  0  0  0  0  0  0  0  0  0  0  0
    4.6108   -8.9423   17.6827 C   0  0  0  0  0  0  0  0  0  0  0  0
   11.0041   -4.2008   20.3272 C   0  0  0  0  0  0  0  0  0  0  0  0
    7.3078   -7.9699   16.2127 C   0  0  0  0  0  0  0  0  0  0  0  0
    3.5278   -8.9885   16.0303 C   0  0  0  0  0  0  0  0  0  0  0  0
    7.6364   -7.9563   15.5874 C   0  0  0  0  0  0  0  0  0  0  0  0
   10.4890   -6.2218   19.3319 C   0  0  0  0  0  0  0  0  0  0  0  0
    8.9126   -5.4755   16.3417 C   0  0  0  0  0  0  0  0  0  0  0  0
    5.1015   -8.5898   17.7211 C   0  0  0  0  0  0  0  0  0  0  0  0
   11.2104   -3.9052   24.2011 C   0  0  0  0  0  0  0  0  0  0  0  0
    3.7443   -8.9385   16.1198 C   0  0  0  0  0  0  0  0  0  0  0  0
    9.3202   -4.6067   16.3477 C   0  0  0  0  0  0  0  0  0  0  0  0
   10.9845   -3.2301   19.0106 C   0  0  0  0  0  0  0  0  0  0  0  0
   10.7426   -2.8329   22.9741 C   0  0  0  0  0  0  0  0  0  0  0  0
    7.7835   -7.4537   15.8678 C   0  0  0  0  0  0  0  0  0  0  0  0
  1  8  4  0
  1 14  4  0
  2  5  4  0
  3  6  1  0
  3 24  4  0
  4 21  4  0
  5 20  4  0
  7 15  4  0
  7 19  1  0
  9 19  4  0
 10 25  4  0
 11 21  1  0
 12 18  4  0
 13 20  4  0
 14 24  4  0
 15 17  1  0
 16 22  4  0
 17 26  1  0
 19 23  1  0
M  END
$$$$

 Created by Python create_sdf_string function

 26 37  0  0  0  0  0  0  0  0999 V2000
   10.7194   -4.9469   20.4783 C   0  0  0  0  0  0  0  0  0  0  0  0
   11.0474   -4.5891   23.4248 C   0  0  0  0  0  0  0  0  0  0  0  0
    5.8225   -8.7018   16.0014 O   0  0  0  0  0  0  0  0  0  0  0  0
    8.5033   -7.7688   17.6290 Cl  0  0  0  0  0  0  0  0  0  0  0  0
   10.1930   -3.7646   21.6010 N   0  0  0  0  0  0  0  0  0  0  0  0
   10.4975   -3.0295   22.5409 N   0  0  0  0  0  0  0  0  0  0  0  0
   10.3695   -3.2376   25.3420 N   0  0  0  0  0  0  0  0  0  0  0  0
   10.6056   -4.8261   19.8894 C   0  0  0  0  0  0  0  0  0  0  0  0
    5.1264   -9.7984   17.9432 C   0  0  0  0  0  0  0  0  0  0  0  0
   12.1932   -5.0204   19.3728 C   0  0  0  0  0  0  0  0  0  0  0  0
    8.3330   -8.2847   16.4733 P   0  0  0  0  0  0  0  0  0  0  0  0
    2.9712   -9.4778   16.5219 F   0  0  0  0  0  0  0  0  0  0  0  0
    8.8042   -8.5569   15.8594 C   0  0  0  0  0  0  0  0  0  0  0  0
   11.0135   -5.5358   19.6360 Cl  0  0  0  0  0  0  0  0  0  0  0  0
    3.4367   -9.5584   16.9498 C   0  0  0  0  0  0  0  0  0  0  0  0
    9.2438   -4.7970   16.8521 P   0  0  0  0  0  0  0  0  0  0  0  0
   10.8595   -3.9183   22.8880 Br  0  0  0  0  0  0  0  0  0  0  0  0
    5.2320   -7.9676   15.4713 He  0  0  0  0  0  0  0  0  0  0  0  0
   11.4370   -4.4945   17.3344 He  0  0  0  0  0  0  0  0  0  0  0  0
   10.1214   -3.9767   17.4034 He  0  0  0  0  0  0  0  0  0  0  0  0
    7.7063   -6.1528   16.2662 He  0  0  0  0  0  0  0  0  0  0  0  0
    7.9038   -6.3616   15.3796 He  0  0  0  0  0  0  0  0  0  0  0  0
    4.7608   -7.8469   17.1757 He  0  0  0  0  0  0  0  0  0  0  0  0
   11.7058   -3.6828   23.4824 He  0  0  0  0  0  0  0  0  0  0  0  0
   11.8067   -2.0396   18.6093 He  0  0  0  0  0  0  0  0  0  0  0  0
    8.0670   -7.5433   15.1055 He  0  0  0  0  0  0  0  0  0  0  0  0
  1  3  3  0
  1  4  1  0
  1  5  4  0
  1 11  4  0
  2  3  3  0
  2  4  4  0
  2  8  2  0
  2 15  4  0
  2 16  3  0
  3  8  4  0
  3 10  3  0
  3 12  2  0
  3 13  1  0
  3 15  2  0
  3 16  1  0
  4  5  1  0
  4  7  4  0
  5  8  2  0
  5  9  2  0
  5 10  2  0
  5 11  1  0
  6 11  2  0
  6 14  1  0
  7 13  3  0
  8 10  4  0
  8 17  3  0
  9 10  3  0
  9 12  1  0
  9 15  1  0
  9 16  4  0
 10 12  4  0
 10 13  2  0
 10 14  2  0
 11 13  1  0
 11 17  3  0
 12 13  1  0
 13 14  1  0
M  END
$$$$

 Created by Python create_sdf_string function

 26 16  0  0  0  0  0  0  0  0999 V2000
   10.7625   -4.2971   21.0053 C   0  0  0  0  0  0  0  0  0  0  0  0
    5.4039   -8.3433   15.8659 C   0  0  0  0  0  0  0  0  0  0  0  0
   10.8963   -4.2254   17.4156 C   0  0  0  0  0  0  0  0  0  0  0  0
   11.2260   -4.5931   23.4010 C   0  0  0  0  0  0  0  0  0  0  0  0
    5.8508   -8.5945   16.2918 C   0  0  0  0  0  0  0  0  0  0  0  0
    9.9970   -4.4994   17.4847 C   0  0  0  0  0  0  0  0  0  0  0  0
    9.0151   -7.3217   17.6576 C   0  0  0  0  0  0  0  0  0  0  0  0
   10.8317   -4.2177   21.6825 C   0  0  0  0  0  0  0  0  0  0  0  0
    7.7448   -5.8852   15.9217 C   0  0  0  0  0  0  0  0  0  0  0  0
   10.3509   -2.9003   22.8258 N   0  0  0  0  0  0  0  0  0  0  0  0
   10.6007   -3.2444   25.1808 N   0  0  0  0  0  0  0  0  0  0  0  0
   10.7782   -4.5110   19.7053 C   0  0  0  0  0  0  0  0  0  0  0  0
    5.0198   -9.3787   17.6730 C   0  0  0  0  0  0  0  0  0  0  0  0
   11.4954   -4.5488   19.4745 C   0  0  0  0  0  0  0  0  0  0  0  0
    8.2074   -8.2543   16.8737 C   0  0  0  0  0  0  0  0  0  0  0  0
    3.3559   -9.1669   16.8030 C   0  0  0  0  0  0  0  0  0  0  0  0
    7.8654   -8.2748   16.1940 C   0  0  0  0  0  0  0  0  0  0  0  0
   10.4354   -5.3770   18.7422 C   0  0  0  0  0  0  0  0  0  0  0  0
    7.8861   -5.9722   15.9648 C   0  0  0  0  0  0  0  0  0  0  0  0
    5.1945   -8.3570   17.5080 C   0  0  0  0  0  0  0  0  0  0  0  0
   10.9772   -4.0323   23.9789 C   0  0  0  0  0  0  0  0  0  0  0  0
    3.8380   -8.9246   16.7374 C   0  0  0  0  0  0  0  0  0  0  0  0
    9.2931   -5.2978   16.7140 C   0  0  0  0  0  0  0  0  0  0  0  0
   11.2660   -2.9824   18.5087 N   0  0  0  0  0  0  0  0  0  0  0  0
   10.5721   -3.2865   22.7549 C   0  0  0  0  0  0  0  0  0  0  0  0
    7.6541   -7.4193   15.4525 C   0  0  0  0  0  0  0  0  0  0  0  0
  1  8  4  0
  2  5  4  0
  3 24  4  0
  4 21  4  0
  5 17  1  0
  7 15  4  0
  9 19  2  0
 10 25  4  0
 11 21  1  0
 12 14  4  0
 13 20  4  0
 14 24  4  0
 15 17  1  0
 16 22  4  0
 17 26  1  0
 19 23  4  0
M  END
$$$$

 Created by Python create_sdf_string function

 26 44  0  0  0  0  0  0  0  0999 V2000
    5.6196   -8.5577   15.4818 C   0  0  0  0  0  0  0  0  0  0  0  0
   10.6953   -5.1883   23.7878 O   0  0  0  0  0  0  0  0  0  0  0  0
    5.0724   -8.2337   15.9550 N   0  0  0  0  0  0  0  0  0  0  0  0
   10.4506   -3.3080   21.6658 C   0  0  0  0  0  0  0  0  0  0  0  0
    8.2635   -7.0675   15.9840 C   0  0  0  0  0  0  0  0  0  0  0  0
   11.1100   -2.8723   23.0846 F   0  0  0  0  0  0  0  0  0  0  0  0
    9.8137   -2.9823   25.6542 C   0  0  0  0  0  0  0  0  0  0  0  0
   10.9686   -4.6037   19.7901 C   0  0  0  0  0  0  0  0  0  0  0  0
    5.4106   -8.7427   17.5659 C   0  0  0  0  0  0  0  0  0  0  0  0
   11.1166   -4.7728   20.2519 C   0  0  0  0  0  0  0  0  0  0  0  0
    9.8524   -8.1961   17.2878 C   0  0  0  0  0  0  0  0  0  0  0  0
    3.5404   -8.2079   17.6313 N   0  0  0  0  0  0  0  0  0  0  0  0
    9.4515   -4.1359   17.4598 C   0  0  0  0  0  0  0  0  0  0  0  0
    4.7850   -8.5353   17.2833 S   0  0  0  0  0  0  0  0  0  0  0  0
   10.3874   -4.7680   24.1694 C   0  0  0  0  0  0  0  0  0  0  0  0
    9.2733   -5.1503   16.5199 C   0  0  0  0  0  0  0  0  0  0  0  0
   11.5248   -4.7107   17.7031 N   0  0  0  0  0  0  0  0  0  0  0  0
   11.7120   -4.0245   22.6312 F   0  0  0  0  0  0  0  0  0  0  0  0
   10.2051   -4.8814   19.7620 He  0  0  0  0  0  0  0  0  0  0  0  0
   10.6581   -4.7795   17.3351 He  0  0  0  0  0  0  0  0  0  0  0  0
    9.1479   -4.3598   15.9257 He  0  0  0  0  0  0  0  0  0  0  0  0
    8.2534   -6.8315   18.1876 He  0  0  0  0  0  0  0  0  0  0  0  0
    7.4919   -6.9045   16.8842 He  0  0  0  0  0  0  0  0  0  0  0  0
    8.2745   -7.0908   16.8356 He  0  0  0  0  0  0  0  0  0  0  0  0
    2.7711   -8.1842   16.4119 He  0  0  0  0  0  0  0  0  0  0  0  0
    7.5694   -8.9366   15.2511 He  0  0  0  0  0  0  0  0  0  0  0  0
  1  6  2  0
  1  7  1  0
  1  9  1  0
  1 12  3  0
  1 14  4  0
  1 15  4  0
  1 18  2  0
  2  7  1  0
  2  9  2  0
  2 13  3  0
  2 15  2  0
  2 16  2  0
  2 18  3  0
  3  4  1  0
  3  5  1  0
  3  7  3  0
  3  8  3  0
  3  9  2  0
  3 12  1  0
  3 13  2  0
  3 14  2  0
  4  9  1  0
  4 11  3  0
  4 18  2  0
  5 11  3  0
  5 12  2  0
  5 16  2  0
  6  7  3  0
  6 10  4  0
  6 16  3  0
  6 18  4  0
  7 13  3  0
  7 16  3  0
  8 10  4  0
  8 16  1  0
  9 10  1  0
  9 11  2  0
 10 12  1  0
 10 13  2  0
 10 17  4  0
 11 14  2  0
 12 14  1  0
 13 15  1  0
 15 17  1  0
M  END
$$$$

 Created by Python create_sdf_string function

 26 19  0  0  0  0  0  0  0  0999 V2000
   10.2209   -4.3765   20.2934 C   0  0  0  0  0  0  0  0  0  0  0  0
    5.5645   -8.5125   16.0132 C   0  0  0  0  0  0  0  0  0  0  0  0
   10.6053   -4.5493   17.9904 C   0  0  0  0  0  0  0  0  0  0  0  0
   11.0916   -4.5298   24.1031 O   0  0  0  0  0  0  0  0  0  0  0  0
    4.9456   -8.3810   15.8861 C   0  0  0  0  0  0  0  0  0  0  0  0
    9.5000   -3.9433   16.0837 O   0  0  0  0  0  0  0  0  0  0  0  0
    8.8032   -7.1312   17.9765 C   0  0  0  0  0  0  0  0  0  0  0  0
   10.6511   -4.0759   21.5243 C   0  0  0  0  0  0  0  0  0  0  0  0
    8.2555   -6.6298   16.0967 C   0  0  0  0  0  0  0  0  0  0  0  0
   10.7839   -3.0043   23.3318 N   0  0  0  0  0  0  0  0  0  0  0  0
   10.2693   -3.1427   25.0908 C   0  0  0  0  0  0  0  0  0  0  0  0
   10.5898   -4.6189   19.7157 C   0  0  0  0  0  0  0  0  0  0  0  0
    5.6769   -8.4141   17.2332 C   0  0  0  0  0  0  0  0  0  0  0  0
   11.6850   -4.5933   19.9296 C   0  0  0  0  0  0  0  0  0  0  0  0
    9.0458   -7.8578   17.7093 C   0  0  0  0  0  0  0  0  0  0  0  0
    3.5499   -8.5808   16.9285 N   0  0  0  0  0  0  0  0  0  0  0  0
    7.5629   -7.6465   16.7786 C   0  0  0  0  0  0  0  0  0  0  0  0
    9.9727   -4.2821   17.0740 C   0  0  0  0  0  0  0  0  0  0  0  0
    8.2187   -6.9320   16.5173 C   0  0  0  0  0  0  0  0  0  0  0  0
    4.6443   -8.3170   17.4537 C   0  0  0  0  0  0  0  0  0  0  0  0
   10.7615   -4.1013   24.4613 C   0  0  0  0  0  0  0  0  0  0  0  0
    3.1572   -8.4424   16.3439 C   0  0  0  0  0  0  0  0  0  0  0  0
    9.1960   -5.4095   16.6115 C   0  0  0  0  0  0  0  0  0  0  0  0
   11.3596   -4.3073   18.3196 N   0  0  0  0  0  0  0  0  0  0  0  0
   10.9958   -3.8452   22.4418 C   0  0  0  0  0  0  0  0  0  0  0  0
    7.6780   -8.5199   15.4204 C   0  0  0  0  0  0  0  0  0  0  0  0
  1  8  4  0
  1 12  4  0
  2  5  4  0
  2 13  1  0
  3 24  4  0
  4 21  4  0
  4 25  4  0
  6 18  1  0
  7 15  4  0
  8 25  1  0
  9 19  4  0
  9 23  4  0
 10 11  4  0
 10 25  4  0
 11 21  4  0
 12 14  4  0
 13 20  4  0
 14 24  4  0
 16 22  4  0
M  END
$$$$

 Created by Python create_sdf_string function

 26 25  0  0  0  0  0  0  0  0999 V2000
   10.6667   -3.7504   20.3363 N   0  0  0  0  0  0  0  0  0  0  0  0
    6.2531   -9.4113   15.3360 C   0  0  0  0  0  0  0  0  0  0  0  0
    9.7903   -4.3369   24.7715 O   0  0  0  0  0  0  0  0  0  0  0  0
    4.7742   -7.8815   16.3663 N   0  0  0  0  0  0  0  0  0  0  0  0
    8.8487   -8.0955   17.8639 S   0  0  0  0  0  0  0  0  0  0  0  0
   11.1454   -3.9548   20.3065 C   0  0  0  0  0  0  0  0  0  0  0  0
    5.1989   -9.2348   18.2049 C   0  0  0  0  0  0  0  0  0  0  0  0
    8.6795   -6.7313   16.4260 Cl  0  0  0  0  0  0  0  0  0  0  0  0
    7.8142   -8.0852   16.5067 Cl  0  0  0  0  0  0  0  0  0  0  0  0
   10.3854   -3.6750   17.2464 C   0  0  0  0  0  0  0  0  0  0  0  0
    4.2937   -9.2505   17.3234 N   0  0  0  0  0  0  0  0  0  0  0  0
   11.4628   -4.7341   24.7958 C   0  0  0  0  0  0  0  0  0  0  0  0
    3.4179   -7.8183   16.6746 I   0  0  0  0  0  0  0  0  0  0  0  0
   11.9076   -4.0570   17.6547 I   0  0  0  0  0  0  0  0  0  0  0  0
    6.7655   -7.8246   14.5768 C   0  0  0  0  0  0  0  0  0  0  0  0
   10.4580   -4.5466   17.6494 He  0  0  0  0  0  0  0  0  0  0  0  0
    9.9652   -4.7786   14.9598 He  0  0  0  0  0  0  0  0  0  0  0  0
    7.5576   -6.8990   15.9965 He  0  0  0  0  0  0  0  0  0  0  0  0
    9.4997   -2.9115   24.5664 He  0  0  0  0  0  0  0  0  0  0  0  0
   10.3886   -2.9427   25.6396 He  0  0  0  0  0  0  0  0  0  0  0  0
   10.1125   -6.0320   18.8483 He  0  0  0  0  0  0  0  0  0  0  0  0
   12.0672   -5.2063   19.8675 He  0  0  0  0  0  0  0  0  0  0  0  0
    2.9295   -8.3255   16.8765 He  0  0  0  0  0  0  0  0  0  0  0  0
    8.5787   -7.4218   16.3737 He  0  0  0  0  0  0  0  0  0  0  0  0
    9.1796   -4.8969   15.7962 He  0  0  0  0  0  0  0  0  0  0  0  0
   11.3118   -4.2293   21.9442 He  0  0  0  0  0  0  0  0  0  0  0  0
  1  3  3  0
  1  6  1  0
  2  4  4  0
  2  6  2  0
  2  7  1  0
  2 15  3  0
  3  6  4  0
  3  8  2  0
  3 12  4  0
  4  7  1  0
  4  8  3  0
  4  9  3  0
  5 11  4  0
  5 12  2  0
  5 13  1  0
  5 14  4  0
  7  9  2  0
  7 11  4  0
  7 14  1  0
  8  9  1  0
  8 10  3  0
 10 11  3  0
 11 13  4  0
 11 14  1  0
 13 14  1  0
M  END
$$$$

 Created by Python create_sdf_string function

 26 23  0  0  0  0  0  0  0  0999 V2000
   10.5386   -4.0249   20.5204 N   0  0  0  0  0  0  0  0  0  0  0  0
    5.7843   -8.6107   16.0993 C   0  0  0  0  0  0  0  0  0  0  0  0
   10.2634   -5.2671   17.9192 C   0  0  0  0  0  0  0  0  0  0  0  0
   10.8067   -4.0637   24.2854 O   0  0  0  0  0  0  0  0  0  0  0  0
    4.8564   -8.2027   15.8891 N   0  0  0  0  0  0  0  0  0  0  0  0
    9.6307   -4.2624   15.9645 C   0  0  0  0  0  0  0  0  0  0  0  0
    9.1442   -8.0040   17.8926 S   0  0  0  0  0  0  0  0  0  0  0  0
   10.9452   -4.1187   21.2338 C   0  0  0  0  0  0  0  0  0  0  0  0
    7.6606   -6.2140   15.8242 C   0  0  0  0  0  0  0  0  0  0  0  0
   10.3762   -2.9724   23.7027 C   0  0  0  0  0  0  0  0  0  0  0  0
   10.5243   -3.0401   25.0821 C   0  0  0  0  0  0  0  0  0  0  0  0
   10.4586   -5.7623   19.0657 C   0  0  0  0  0  0  0  0  0  0  0  0
    5.4391   -8.9290   17.6628 C   0  0  0  0  0  0  0  0  0  0  0  0
   11.4533   -4.9635   20.2647 O   0  0  0  0  0  0  0  0  0  0  0  0
    8.6751   -7.0415   16.7750 C   0  0  0  0  0  0  0  0  0  0  0  0
    3.3060   -8.3914   16.4737 C   0  0  0  0  0  0  0  0  0  0  0  0
    7.7976   -7.7772   16.1598 C   0  0  0  0  0  0  0  0  0  0  0  0
   10.7896   -3.7253   16.9373 C   0  0  0  0  0  0  0  0  0  0  0  0
    9.1595   -6.4245   17.0307 C   0  0  0  0  0  0  0  0  0  0  0  0
    4.3480   -9.0098   17.7771 N   0  0  0  0  0  0  0  0  0  0  0  0
   11.0416   -4.2276   24.5547 C   0  0  0  0  0  0  0  0  0  0  0  0
    3.4427   -8.6327   16.8425 C   0  0  0  0  0  0  0  0  0  0  0  0
    8.9296   -5.0592   16.1585 C   0  0  0  0  0  0  0  0  0  0  0  0
   10.9702   -3.7463   17.8157 C   0  0  0  0  0  0  0  0  0  0  0  0
   11.0447   -3.9526   22.4048 C   0  0  0  0  0  0  0  0  0  0  0  0
    7.0410   -8.3352   15.4264 C   0  0  0  0  0  0  0  0  0  0  0  0
  1  8  1  0
  2  5  4  0
  2 13  4  0
  2 26  1  0
  3 12  4  0
  3 19  4  0
  3 24  4  0
  4 21  4  0
  5 16  4  0
  6 18  4  0
  6 23  4  0
  8 25  1  0
  9 23  4  0
 10 11  4  0
 11 21  4  0
 12 14  4  0
 13 20  4  0
 15 17  1  0
 15 19  4  0
 16 22  4  0
 17 26  1  0
 18 24  4  0
 20 22  4  0
M  END
$$$$

 Created by Python create_sdf_string function

 26 65  0  0  0  0  0  0  0  0999 V2000
    9.9772   -3.8241   20.1544 S   0  0  0  0  0  0  0  0  0  0  0  0
    6.4331   -7.8127   16.4116 C   0  0  0  0  0  0  0  0  0  0  0  0
   11.1024   -4.2282   17.6863 C   0  0  0  0  0  0  0  0  0  0  0  0
   10.7254   -4.6215   24.9399 O   0  0  0  0  0  0  0  0  0  0  0  0
    4.2757   -7.4825   15.7327 O   0  0  0  0  0  0  0  0  0  0  0  0
    9.0235   -3.3398   15.3641 C   0  0  0  0  0  0  0  0  0  0  0  0
    9.2370   -8.3991   17.8981 F   0  0  0  0  0  0  0  0  0  0  0  0
   10.5682   -4.5376   20.9295 C   0  0  0  0  0  0  0  0  0  0  0  0
    8.0181   -6.8121   15.9597 C   0  0  0  0  0  0  0  0  0  0  0  0
   11.2029   -3.5530   25.4532 O   0  0  0  0  0  0  0  0  0  0  0  0
    6.7807   -8.8181   17.4467 F   0  0  0  0  0  0  0  0  0  0  0  0
    2.6728   -8.1722   17.2310 C   0  0  0  0  0  0  0  0  0  0  0  0
    8.3807   -7.9648   14.4954 Cl  0  0  0  0  0  0  0  0  0  0  0  0
   11.0330   -3.5630   15.9348 C   0  0  0  0  0  0  0  0  0  0  0  0
    9.4329   -5.1116   17.6610 Cl  0  0  0  0  0  0  0  0  0  0  0  0
   10.3179   -3.9920   24.5215 N   0  0  0  0  0  0  0  0  0  0  0  0
    8.3297   -4.7950   15.7463 F   0  0  0  0  0  0  0  0  0  0  0  0
   10.8413   -4.5676   17.0260 C   0  0  0  0  0  0  0  0  0  0  0  0
   11.0653   -3.1222   24.2518 C   0  0  0  0  0  0  0  0  0  0  0  0
    6.9793   -7.8120   14.4161 C   0  0  0  0  0  0  0  0  0  0  0  0
   10.3368   -2.1207   23.2850 He  0  0  0  0  0  0  0  0  0  0  0  0
    9.5743   -6.5991   19.3976 He  0  0  0  0  0  0  0  0  0  0  0  0
   12.0148   -3.6869   20.2900 He  0  0  0  0  0  0  0  0  0  0  0  0
    9.3337   -5.5730   17.3331 He  0  0  0  0  0  0  0  0  0  0  0  0
    4.1582   -8.4514   17.3401 He  0  0  0  0  0  0  0  0  0  0  0  0
    4.3347   -8.7636   17.0672 He  0  0  0  0  0  0  0  0  0  0  0  0
  1  3  2  0
  1  4  1  0
  1  5  1  0
  1  9  2  0
  1 12  4  0
  1 14  3  0
  1 18  2  0
  2  4  3  0
  2  5  2  0
  2  7  1  0
  2 11  4  0
  2 13  1  0
  3 12  1  0
  3 13  2  0
  3 15  4  0
  3 16  3  0
  3 18  4  0
  4 10  2  0
  4 13  2  0
  4 15  4  0
  5  6  3  0
  5  8  2  0
  5 10  2  0
  5 12  4  0
  5 13  3  0
  5 14  1  0
  5 16  2  0
  5 19  1  0
  5 20  3  0
  6  9  2  0
  6 10  3  0
  6 13  3  0
  6 15  1  0
  6 17  4  0
  7  9  4  0
  7 10  3  0
  7 11  2  0
  7 13  2  0
  7 17  2  0
  7 18  4  0
  8  9  2  0
  8 14  4  0
  8 15  1  0
  8 19  1  0
  9 10  3  0
  9 15  3  0
  9 17  4  0
  9 18  3  0
  9 20  2  0
 10 13  1  0
 10 14  3  0
 10 16  4  0
 10 19  3  0
 10 20  1  0
 11 12  3  0
 11 13  2  0
 11 14  1  0
 11 16  1  0
 11 20  1  0
 13 20  1  0
 14 18  4  0
 15 17  1  0
 15 18  4  0
 18 19  2  0
 18 20  3  0
M  END
$$$$

 Created by Python create_sdf_string function

 26 21  0  0  0  0  0  0  0  0999 V2000
   10.4584   -4.2306   20.1265 C   0  0  0  0  0  0  0  0  0  0  0  0
    6.4447   -7.9668   16.6664 C   0  0  0  0  0  0  0  0  0  0  0  0
   10.8066   -4.1424   18.2853 C   0  0  0  0  0  0  0  0  0  0  0  0
   11.0024   -4.2075   24.8757 O   0  0  0  0  0  0  0  0  0  0  0  0
    4.8745   -7.6838   15.7325 C   0  0  0  0  0  0  0  0  0  0  0  0
    9.4865   -3.7216   15.5741 C   0  0  0  0  0  0  0  0  0  0  0  0
    8.5725   -7.9785   17.6216 C   0  0  0  0  0  0  0  0  0  0  0  0
   10.8366   -4.1132   21.5529 C   0  0  0  0  0  0  0  0  0  0  0  0
    8.1244   -6.8614   16.6380 C   0  0  0  0  0  0  0  0  0  0  0  0
   10.5278   -2.8379   23.2107 C   0  0  0  0  0  0  0  0  0  0  0  0
   10.7775   -3.8630   24.8533 C   0  0  0  0  0  0  0  0  0  0  0  0
   10.1190   -5.9677   19.3262 C   0  0  0  0  0  0  0  0  0  0  0  0
    6.8089   -8.1879   17.4462 C   0  0  0  0  0  0  0  0  0  0  0  0
   11.3236   -3.8939   20.7672 C   0  0  0  0  0  0  0  0  0  0  0  0
    9.4061   -5.8583   17.8284 C   0  0  0  0  0  0  0  0  0  0  0  0
    3.6686   -8.2839   16.6077 C   0  0  0  0  0  0  0  0  0  0  0  0
    8.1394   -8.0051   15.2297 C   0  0  0  0  0  0  0  0  0  0  0  0
   10.6590   -3.5244   16.1627 N   0  0  0  0  0  0  0  0  0  0  0  0
    9.8226   -5.1136   17.6716 C   0  0  0  0  0  0  0  0  0  0  0  0
    4.3390   -8.6959   17.2930 C   0  0  0  0  0  0  0  0  0  0  0  0
   10.4614   -3.4206   24.4458 N   0  0  0  0  0  0  0  0  0  0  0  0
    4.5292   -8.7086   17.3985 C   0  0  0  0  0  0  0  0  0  0  0  0
    8.6921   -4.6117   15.7394 C   0  0  0  0  0  0  0  0  0  0  0  0
   10.7560   -4.0357   17.4276 C   0  0  0  0  0  0  0  0  0  0  0  0
   10.9447   -3.5579   23.1627 C   0  0  0  0  0  0  0  0  0  0  0  0
    6.9073   -7.7299   15.4729 C   0  0  0  0  0  0  0  0  0  0  0  0
  1  8  1  0
  2 13  4  0
  2 26  4  0
  3 24  4  0
  4 11  4  0
  5 16  4  0
  6 18  4  0
  6 23  4  0
  7  9  4  0
  8 14  1  0
  8 25  1  0
 10 21  4  0
 10 25  4  0
 11 21  4  0
 12 15  4  0
 15 19  4  0
 16 20  4  0
 17 26  1  0
 18 24  4  0
 19 24  4  0
 20 22  4  0
M  END
$$$$

 Created by Python create_sdf_string function

 26 61  0  0  0  0  0  0  0  0999 V2000
   10.2484   -5.2949   19.0164 C   0  0  0  0  0  0  0  0  0  0  0  0
    6.0620   -8.0046   16.1910 O   0  0  0  0  0  0  0  0  0  0  0  0
   11.1733   -3.2525   17.9334 N   0  0  0  0  0  0  0  0  0  0  0  0
   11.3400   -4.6617   24.5033 F   0  0  0  0  0  0  0  0  0  0  0  0
    4.8033   -8.5679   14.9009 C   0  0  0  0  0  0  0  0  0  0  0  0
    9.3047   -4.1306   15.6948 Cl  0  0  0  0  0  0  0  0  0  0  0  0
   10.6959   -3.8903   22.0380 C   0  0  0  0  0  0  0  0  0  0  0  0
    7.7221   -6.8147   16.3098 C   0  0  0  0  0  0  0  0  0  0  0  0
   10.6532   -3.3985   22.0875 C   0  0  0  0  0  0  0  0  0  0  0  0
    9.6349   -2.6025   24.7642 C   0  0  0  0  0  0  0  0  0  0  0  0
    9.5525   -6.2561   20.2610 C   0  0  0  0  0  0  0  0  0  0  0  0
    5.0521   -7.8977   16.8271 C   0  0  0  0  0  0  0  0  0  0  0  0
    9.6159   -5.8423   17.6819 F   0  0  0  0  0  0  0  0  0  0  0  0
    8.4888   -7.6634   15.8467 C   0  0  0  0  0  0  0  0  0  0  0  0
    9.1889   -4.3539   16.6742 N   0  0  0  0  0  0  0  0  0  0  0  0
    9.0183   -4.9815   17.8123 C   0  0  0  0  0  0  0  0  0  0  0  0
    5.0895   -9.3879   17.2025 C   0  0  0  0  0  0  0  0  0  0  0  0
   10.6560   -2.8317   25.1731 C   0  0  0  0  0  0  0  0  0  0  0  0
   10.5103   -4.2590   16.2125 C   0  0  0  0  0  0  0  0  0  0  0  0
   11.0989   -4.5589   22.6173 C   0  0  0  0  0  0  0  0  0  0  0  0
    6.4174   -7.7382   16.5637 F   0  0  0  0  0  0  0  0  0  0  0  0
    9.3738   -8.0476   18.7829 He  0  0  0  0  0  0  0  0  0  0  0  0
   11.1151   -3.0825   21.1605 He  0  0  0  0  0  0  0  0  0  0  0  0
    3.0892   -8.4028   16.3912 He  0  0  0  0  0  0  0  0  0  0  0  0
    3.8023   -8.1434   17.9040 He  0  0  0  0  0  0  0  0  0  0  0  0
    8.8823   -4.3432   16.2843 He  0  0  0  0  0  0  0  0  0  0  0  0
  1  3  4  0
  1  7  1  0
  1 12  2  0
  2  5  2  0
  2 10  1  0
  2 13  4  0
  2 17  1  0
  3  8  4  0
  3 17  1  0
  3 19  4  0
  4  7  4  0
  4 10  4  0
  4 11  1  0
  4 16  3  0
  4 17  2  0
  4 19  1  0
  5  9  4  0
  5 12  1  0
  5 13  1  0
  5 14  3  0
  5 19  1  0
  6  8  4  0
  6 10  1  0
  6 11  1  0
  6 12  3  0
  6 15  4  0
  6 18  4  0
  6 19  1  0
  7  9  3  0
  7 10  1  0
  7 13  2  0
  7 14  2  0
  7 16  4  0
  7 19  4  0
  7 20  1  0
  8 14  2  0
  8 16  2  0
  8 18  1  0
  8 19  1  0
  9 10  1  0
  9 12  4  0
  9 20  4  0
 10 11  2  0
 10 14  1  0
 10 15  1  0
 10 20  3  0
 11 12  1  0
 11 13  1  0
 11 14  3  0
 11 16  3  0
 11 20  1  0
 12 17  2  0
 14 16  1  0
 14 18  2  0
 14 19  1  0
 15 19  4  0
 16 18  3  0
 16 19  4  0
 17 20  3  0
 18 19  1  0
 20 21  1  0
M  END
$$$$

 Created by Python create_sdf_string function

 26 21  0  0  0  0  0  0  0  0999 V2000
   10.6923   -4.4820   19.3566 C   0  0  0  0  0  0  0  0  0  0  0  0
    6.1391   -8.0738   16.1047 C   0  0  0  0  0  0  0  0  0  0  0  0
   10.9605   -3.6253   18.3226 N   0  0  0  0  0  0  0  0  0  0  0  0
   11.1381   -4.3799   24.1395 C   0  0  0  0  0  0  0  0  0  0  0  0
    4.5680   -8.4328   15.4879 C   0  0  0  0  0  0  0  0  0  0  0  0
    8.9320   -4.1613   15.7739 C   0  0  0  0  0  0  0  0  0  0  0  0
    9.1625   -7.7131   18.1903 C   0  0  0  0  0  0  0  0  0  0  0  0
   10.9536   -4.0123   22.2838 C   0  0  0  0  0  0  0  0  0  0  0  0
    8.1441   -6.6827   16.4023 C   0  0  0  0  0  0  0  0  0  0  0  0
   10.6310   -2.9235   22.6120 C   0  0  0  0  0  0  0  0  0  0  0  0
   10.4925   -3.1269   24.4083 C   0  0  0  0  0  0  0  0  0  0  0  0
   10.2667   -5.6784   19.5358 C   0  0  0  0  0  0  0  0  0  0  0  0
    5.0676   -8.2336   16.5521 C   0  0  0  0  0  0  0  0  0  0  0  0
   11.0434   -3.6064   20.9842 C   0  0  0  0  0  0  0  0  0  0  0  0
    9.6453   -6.1532   18.1962 C   0  0  0  0  0  0  0  0  0  0  0  0
    3.4460   -8.7863   16.3043 C   0  0  0  0  0  0  0  0  0  0  0  0
    8.2218   -7.6032   16.5037 C   0  0  0  0  0  0  0  0  0  0  0  0
    9.4752   -4.3644   16.3602 N   0  0  0  0  0  0  0  0  0  0  0  0
    9.6233   -5.4965   17.4788 C   0  0  0  0  0  0  0  0  0  0  0  0
    5.1683   -8.9104   17.4734 C   0  0  0  0  0  0  0  0  0  0  0  0
   10.2845   -2.7454   24.7218 C   0  0  0  0  0  0  0  0  0  0  0  0
    4.2137   -8.6685   17.3028 C   0  0  0  0  0  0  0  0  0  0  0  0
    8.7367   -4.5965   15.8223 C   0  0  0  0  0  0  0  0  0  0  0  0
   10.3450   -4.0792   17.2991 C   0  0  0  0  0  0  0  0  0  0  0  0
   10.9455   -4.2153   22.4403 C   0  0  0  0  0  0  0  0  0  0  0  0
    6.7950   -8.1340   16.5706 C   0  0  0  0  0  0  0  0  0  0  0  0
  1  3  4  0
  1 12  4  0
  2 26  1  0
  3 24  4  0
  4  8  4  0
  4 11  4  0
  5 16  4  0
  6 18  4  0
  6 23  2  0
  7 15  4  0
  8 14  1  0
  8 25  4  0
  9 17  1  0
 10 25  4  0
 11 21  4  0
 12 15  4  0
 15 19  4  0
 17 26  1  0
 18 24  4  0
 19 24  4  0
 20 22  4  0
M  END
$$$$

 Created by Python create_sdf_string function

 26 43  0  0  0  0  0  0  0  0999 V2000
   11.1609   -3.2705   18.8484 O   0  0  0  0  0  0  0  0  0  0  0  0
    6.7652   -8.1161   16.8092 C   0  0  0  0  0  0  0  0  0  0  0  0
   10.3100   -3.9303   17.6779 N   0  0  0  0  0  0  0  0  0  0  0  0
   10.7294   -4.4710   24.5314 C   0  0  0  0  0  0  0  0  0  0  0  0
    8.6733   -3.3309   15.5866 C   0  0  0  0  0  0  0  0  0  0  0  0
    9.4218   -7.6808   17.3145 N   0  0  0  0  0  0  0  0  0  0  0  0
   10.1453   -4.1828   22.3363 N   0  0  0  0  0  0  0  0  0  0  0  0
    8.3051   -7.5757   16.7583 C   0  0  0  0  0  0  0  0  0  0  0  0
   10.3045   -5.4777   19.5657 C   0  0  0  0  0  0  0  0  0  0  0  0
    5.4427   -7.9008   15.3436 C   0  0  0  0  0  0  0  0  0  0  0  0
    9.5171   -6.2185   18.2587 C   0  0  0  0  0  0  0  0  0  0  0  0
    4.9575   -8.0208   16.0276 N   0  0  0  0  0  0  0  0  0  0  0  0
    8.4276   -8.5839   16.3304 O   0  0  0  0  0  0  0  0  0  0  0  0
    8.6068   -3.0614   15.9475 N   0  0  0  0  0  0  0  0  0  0  0  0
    9.9739   -5.4549   16.7967 N   0  0  0  0  0  0  0  0  0  0  0  0
    4.7120   -9.2182   18.5042 C   0  0  0  0  0  0  0  0  0  0  0  0
   10.3078   -1.9441   23.8559 C   0  0  0  0  0  0  0  0  0  0  0  0
    9.2541   -4.0104   15.7012 Br  0  0  0  0  0  0  0  0  0  0  0  0
   11.2504   -4.4663   17.1797 C   0  0  0  0  0  0  0  0  0  0  0  0
    6.2814   -7.3603   15.5039 C   0  0  0  0  0  0  0  0  0  0  0  0
    4.3245   -8.3869   15.8686 He  0  0  0  0  0  0  0  0  0  0  0  0
    9.4187   -1.8335   21.6579 He  0  0  0  0  0  0  0  0  0  0  0  0
   10.0276   -3.2348   23.9335 He  0  0  0  0  0  0  0  0  0  0  0  0
   11.2773   -3.9620   21.5186 He  0  0  0  0  0  0  0  0  0  0  0  0
    4.5567   -8.5428   16.5625 He  0  0  0  0  0  0  0  0  0  0  0  0
   11.7620   -3.8517   21.9652 He  0  0  0  0  0  0  0  0  0  0  0  0
  1  3  4  0
  1 13  3  0
  1 14  1  0
  1 18  1  0
  2  5  3  0
  2 15  4  0
  2 20  1  0
  3  7  3  0
  3  8  3  0
  3 12  3  0
  3 16  1  0
  4  5  2  0
  4 16  1  0
  5  8  2  0
  5  9  2  0
  5 10  2  0
  5 13  3  0
  5 15  2  0
  5 18  2  0
  5 19  1  0
  6 14  2  0
  6 15  3  0
  7  8  4  0
  7 11  1  0
  7 12  3  0
  7 13  3  0
  7 14  3  0
  7 17  3  0
  8 10  3  0
  8 13  1  0
  8 16  4  0
  8 18  3  0
  8 19  3  0
  9 11  4  0
  9 16  3  0
  9 20  3  0
 10 12  2  0
 11 15  4  0
 12 20  1  0
 13 19  4  0
 15 19  4  0
 17 18  1  0
 18 19  2  0
M  END
$$$$

 Created by Python create_sdf_string function

 26 23  0  0  0  0  0  0  0  0999 V2000
   11.0536   -3.6041   19.3857 C   0  0  0  0  0  0  0  0  0  0  0  0
    6.7179   -7.9530   16.9004 C   0  0  0  0  0  0  0  0  0  0  0  0
   10.7756   -3.6345   18.2417 N   0  0  0  0  0  0  0  0  0  0  0  0
   10.9838   -4.1526   24.0245 C   0  0  0  0  0  0  0  0  0  0  0  0
    3.8767   -8.5042   16.3157 C   0  0  0  0  0  0  0  0  0  0  0  0
    9.3724   -3.8389   15.9089 C   0  0  0  0  0  0  0  0  0  0  0  0
    9.1416   -7.2740   17.9131 N   0  0  0  0  0  0  0  0  0  0  0  0
   10.8737   -4.0104   22.0160 C   0  0  0  0  0  0  0  0  0  0  0  0
    8.5469   -7.6784   16.9935 C   0  0  0  0  0  0  0  0  0  0  0  0
   10.3581   -2.3974   22.3746 C   0  0  0  0  0  0  0  0  0  0  0  0
   10.4856   -3.0965   24.2504 C   0  0  0  0  0  0  0  0  0  0  0  0
   10.3782   -5.7645   19.6125 C   0  0  0  0  0  0  0  0  0  0  0  0
    4.8852   -7.9804   15.5236 C   0  0  0  0  0  0  0  0  0  0  0  0
   10.9235   -4.2771   20.9070 C   0  0  0  0  0  0  0  0  0  0  0  0
    9.8826   -6.0511   18.4904 C   0  0  0  0  0  0  0  0  0  0  0  0
    5.5714   -7.8115   15.9170 C   0  0  0  0  0  0  0  0  0  0  0  0
    8.5761   -8.3189   16.1230 C   0  0  0  0  0  0  0  0  0  0  0  0
    9.0585   -3.4739   15.7468 N   0  0  0  0  0  0  0  0  0  0  0  0
    9.7059   -5.4098   17.2877 C   0  0  0  0  0  0  0  0  0  0  0  0
    5.2639   -8.8008   17.7883 C   0  0  0  0  0  0  0  0  0  0  0  0
   10.0919   -2.0907   23.8679 C   0  0  0  0  0  0  0  0  0  0  0  0
    4.4498   -8.8117   17.1556 C   0  0  0  0  0  0  0  0  0  0  0  0
    9.5741   -4.2794   15.6858 O   0  0  0  0  0  0  0  0  0  0  0  0
   10.2879   -4.2048   17.5838 C   0  0  0  0  0  0  0  0  0  0  0  0
   11.0848   -4.1898   22.3294 C   0  0  0  0  0  0  0  0  0  0  0  0
    6.4025   -7.5110   15.9070 C   0  0  0  0  0  0  0  0  0  0  0  0
  1  3  4  0
  2 26  1  0
  3 24  4  0
  4 11  4  0
  4 25  4  0
  5 13  4  0
  5 22  4  0
  6 18  1  0
  6 23  2  0
  6 24  1  0
  7  9  1  0
  7 15  1  0
  8 14  1  0
  8 25  4  0
  9 17  1  0
 10 21  4  0
 11 21  4  0
 12 15  4  0
 13 16  4  0
 15 19  4  0
 16 26  4  0
 19 24  4  0
 20 22  4  0
M  END
$$$$

 Created by Python create_sdf_string function

 26 45  0  0  0  0  0  0  0  0999 V2000
   11.1860   -3.8433   19.7813 C   0  0  0  0  0  0  0  0  0  0  0  0
    5.9782   -6.6662   16.5084 C   0  0  0  0  0  0  0  0  0  0  0  0
   10.9537   -3.4946   17.9518 N   0  0  0  0  0  0  0  0  0  0  0  0
   11.3739   -2.8115   24.8030 C   0  0  0  0  0  0  0  0  0  0  0  0
    8.9755   -3.9477   15.6454 C   0  0  0  0  0  0  0  0  0  0  0  0
   11.1675   -4.0453   22.5586 C   0  0  0  0  0  0  0  0  0  0  0  0
    8.0097   -8.3462   16.3120 C   0  0  0  0  0  0  0  0  0  0  0  0
   11.0436   -2.1493   22.3622 C   0  0  0  0  0  0  0  0  0  0  0  0
   10.1318   -2.9950   23.2155 C   0  0  0  0  0  0  0  0  0  0  0  0
    9.8069   -5.9536   19.0835 C   0  0  0  0  0  0  0  0  0  0  0  0
   10.1551   -3.0001   19.4314 C   0  0  0  0  0  0  0  0  0  0  0  0
    9.8185   -6.2533   18.3561 C   0  0  0  0  0  0  0  0  0  0  0  0
    8.2204   -7.6366   16.2141 S   0  0  0  0  0  0  0  0  0  0  0  0
    9.5643   -4.0095   15.9117 F   0  0  0  0  0  0  0  0  0  0  0  0
    9.3146   -4.7099   17.1404 C   0  0  0  0  0  0  0  0  0  0  0  0
    5.5353   -8.9298   16.9943 C   0  0  0  0  0  0  0  0  0  0  0  0
    9.6097   -3.6312   14.7484 O   0  0  0  0  0  0  0  0  0  0  0  0
    9.5120   -4.1849   17.7921 C   0  0  0  0  0  0  0  0  0  0  0  0
   10.6879   -3.6413   22.2174 C   0  0  0  0  0  0  0  0  0  0  0  0
    3.5430   -7.1750   16.3865 He  0  0  0  0  0  0  0  0  0  0  0  0
    9.4877   -7.8592   18.1473 He  0  0  0  0  0  0  0  0  0  0  0  0
    4.8555   -7.6065   15.0162 He  0  0  0  0  0  0  0  0  0  0  0  0
    4.9240   -6.5384   16.6731 He  0  0  0  0  0  0  0  0  0  0  0  0
   10.1859   -2.0932   24.0509 He  0  0  0  0  0  0  0  0  0  0  0  0
    4.1714   -9.8942   16.7253 He  0  0  0  0  0  0  0  0  0  0  0  0
    6.0547   -9.0520   15.3661 He  0  0  0  0  0  0  0  0  0  0  0  0
  1  3  3  0
  1  6  1  0
  1  7  3  0
  1  8  1  0
  2  5  1  0
  2  6  3  0
  2 10  2  0
  2 18  2  0
  2 19  4  0
  3  9  1  0
  3 16  3  0
  3 18  1  0
  4  9  2  0
  4 13  4  0
  4 14  2  0
  5 14  1  0
  5 17  2  0
  5 18  1  0
  6 10  3  0
  6 11  1  0
  6 17  3  0
  6 19  4  0
  7 12  3  0
  7 13  4  0
  7 15  4  0
  7 19  3  0
  8 10  1  0
  8 13  1  0
  8 19  3  0
  9 16  2  0
 10 11  4  0
 10 13  2  0
 10 14  3  0
 10 15  2  0
 10 18  4  0
 11 15  4  0
 11 17  1  0
 11 18  4  0
 12 15  4  0
 12 16  2  0
 12 19  3  0
 13 14  2  0
 13 18  2  0
 15 18  4  0
 16 19  1  0
M  END
$$$$

 Created by Python create_sdf_string function

 26 26  0  0  0  0  0  0  0  0999 V2000
   11.0678   -3.7033   20.2215 C   0  0  0  0  0  0  0  0  0  0  0  0
    6.6200   -6.9525   15.9369 C   0  0  0  0  0  0  0  0  0  0  0  0
   10.7461   -3.2568   18.1380 N   0  0  0  0  0  0  0  0  0  0  0  0
   10.7447   -2.8785   24.6154 C   0  0  0  0  0  0  0  0  0  0  0  0
    3.5570   -8.0619   16.5241 C   0  0  0  0  0  0  0  0  0  0  0  0
    9.5284   -3.8806   15.8811 C   0  0  0  0  0  0  0  0  0  0  0  0
    9.3207   -7.9138   18.1909 S   0  0  0  0  0  0  0  0  0  0  0  0
   10.8535   -3.6150   21.9831 C   0  0  0  0  0  0  0  0  0  0  0  0
    8.3779   -8.1773   16.7716 C   0  0  0  0  0  0  0  0  0  0  0  0
   11.0235   -2.3945   22.3440 C   0  0  0  0  0  0  0  0  0  0  0  0
   10.5190   -3.1701   24.0894 C   0  0  0  0  0  0  0  0  0  0  0  0
   10.0679   -5.7392   19.4310 C   0  0  0  0  0  0  0  0  0  0  0  0
    5.1577   -7.6254   15.6437 C   0  0  0  0  0  0  0  0  0  0  0  0
   10.4414   -4.5307   19.4930 C   0  0  0  0  0  0  0  0  0  0  0  0
    9.5104   -6.4101   18.2301 C   0  0  0  0  0  0  0  0  0  0  0  0
    4.5416   -7.1868   16.1776 C   0  0  0  0  0  0  0  0  0  0  0  0
    7.9664   -7.3948   16.1560 C   0  0  0  0  0  0  0  0  0  0  0  0
    9.1306   -4.2811   15.7387 O   0  0  0  0  0  0  0  0  0  0  0  0
    9.5245   -5.4822   17.3718 C   0  0  0  0  0  0  0  0  0  0  0  0
    5.3794   -9.2177   16.8014 C   0  0  0  0  0  0  0  0  0  0  0  0
   10.3447   -1.8815   23.6666 C   0  0  0  0  0  0  0  0  0  0  0  0
    4.0133   -9.1985   16.9145 C   0  0  0  0  0  0  0  0  0  0  0  0
    9.6767   -3.2866   15.4310 O   0  0  0  0  0  0  0  0  0  0  0  0
   10.1260   -4.2650   17.6661 C   0  0  0  0  0  0  0  0  0  0  0  0
   10.8127   -3.8725   22.5952 C   0  0  0  0  0  0  0  0  0  0  0  0
    6.0096   -8.6198   16.1302 C   0  0  0  0  0  0  0  0  0  0  0  0
  1  8  1  0
  1 14  1  0
  2 17  1  0
  3 24  4  0
  4 11  4  0
  5 16  4  0
  5 22  4  0
  6 18  1  0
  6 23  2  0
  7  9  1  0
  7 15  1  0
  8 10  4  0
  8 25  4  0
  9 17  1  0
 10 21  4  0
 11 21  4  0
 11 25  4  0
 12 14  4  0
 12 15  4  0
 13 16  4  0
 13 26  4  0
 14 24  4  0
 15 19  4  0
 19 24  4  0
 20 22  4  0
 20 26  4  0
M  END
$$$$

 Created by Python create_sdf_string function

 26 31  0  0  0  0  0  0  0  0999 V2000
   10.8745   -3.5938   21.2006 C   0  0  0  0  0  0  0  0  0  0  0  0
    6.9454   -6.3838   15.6943 F   0  0  0  0  0  0  0  0  0  0  0  0
   10.2104   -2.4410   17.9622 C   0  0  0  0  0  0  0  0  0  0  0  0
    4.2188   -8.2031   16.0209 C   0  0  0  0  0  0  0  0  0  0  0  0
    9.8839   -4.5972   15.4470 C   0  0  0  0  0  0  0  0  0  0  0  0
    9.5604   -7.0116   17.9692 S   0  0  0  0  0  0  0  0  0  0  0  0
   10.9192   -3.6836   22.7011 N   0  0  0  0  0  0  0  0  0  0  0  0
   10.9578   -3.3181   24.7522 C   0  0  0  0  0  0  0  0  0  0  0  0
   10.4941   -6.0623   19.5512 C   0  0  0  0  0  0  0  0  0  0  0  0
   10.2335   -6.9976   18.3586 O   0  0  0  0  0  0  0  0  0  0  0  0
    7.5318   -8.0947   17.0643 C   0  0  0  0  0  0  0  0  0  0  0  0
    9.6978   -4.6738   15.6463 C   0  0  0  0  0  0  0  0  0  0  0  0
    9.7007   -1.6312   24.0665 N   0  0  0  0  0  0  0  0  0  0  0  0
    4.7305   -9.4592   16.6285 B   0  0  0  0  0  0  0  0  0  0  0  0
   10.4431   -4.4873   17.6472 C   0  0  0  0  0  0  0  0  0  0  0  0
   10.2384   -4.6274   23.6852 C   0  0  0  0  0  0  0  0  0  0  0  0
    6.4746   -8.1149   16.2503 S   0  0  0  0  0  0  0  0  0  0  0  0
   10.5150   -2.1882   24.5354 He  0  0  0  0  0  0  0  0  0  0  0  0
    8.4048   -8.3513   17.0878 He  0  0  0  0  0  0  0  0  0  0  0  0
   10.9357   -2.8155   22.6171 He  0  0  0  0  0  0  0  0  0  0  0  0
    5.2896   -8.6353   13.7633 He  0  0  0  0  0  0  0  0  0  0  0  0
    9.4282   -5.3465   19.4557 He  0  0  0  0  0  0  0  0  0  0  0  0
    3.8057   -6.6685   15.5154 He  0  0  0  0  0  0  0  0  0  0  0  0
    9.5861   -4.9141   17.9628 He  0  0  0  0  0  0  0  0  0  0  0  0
    5.9576   -8.4272   17.6325 He  0  0  0  0  0  0  0  0  0  0  0  0
   10.2580   -3.7074   16.0779 He  0  0  0  0  0  0  0  0  0  0  0  0
  1  5  2  0
  1  7  2  0
  1 11  3  0
  1 16  4  0
  1 17  3  0
  2  6  3  0
  2  8  4  0
  2 11  1  0
  2 12  2  0
  2 14  2  0
  3 10  3  0
  3 11  3  0
  3 15  4  0
  4 10  1  0
  4 16  3  0
  5  8  2  0
  5 12  4  0
  5 16  1  0
  6 10  1  0
  6 14  1  0
  7 16  1  0
  8 14  4  0
  8 15  4  0
  8 16  4  0
  9 10  2  0
  9 13  3  0
 10 14  4  0
 11 12  2  0
 15 16  4  0
 15 17  1  0
 16 17  2  0
M  END
$$$$

 Created by Python create_sdf_string function

 26 26  0  0  0  0  0  0  0  0999 V2000
   10.7669   -3.9443   20.7956 C   0  0  0  0  0  0  0  0  0  0  0  0
    7.7368   -6.8563   15.7868 N   0  0  0  0  0  0  0  0  0  0  0  0
   10.7218   -3.2016   18.0542 C   0  0  0  0  0  0  0  0  0  0  0  0
   10.4018   -2.4171   24.8302 C   0  0  0  0  0  0  0  0  0  0  0  0
    3.8432   -8.3754   16.4875 C   0  0  0  0  0  0  0  0  0  0  0  0
    9.6085   -4.3512   16.0598 C   0  0  0  0  0  0  0  0  0  0  0  0
    9.1539   -7.2614   17.9405 C   0  0  0  0  0  0  0  0  0  0  0  0
   10.7224   -3.6672   22.2668 N   0  0  0  0  0  0  0  0  0  0  0  0
    8.0749   -8.3021   17.1963 C   0  0  0  0  0  0  0  0  0  0  0  0
   10.5278   -2.5184   22.6182 C   0  0  0  0  0  0  0  0  0  0  0  0
   10.7313   -3.6439   24.6760 C   0  0  0  0  0  0  0  0  0  0  0  0
   10.3754   -6.0443   19.7466 C   0  0  0  0  0  0  0  0  0  0  0  0
    5.4572   -7.4788   15.0559 C   0  0  0  0  0  0  0  0  0  0  0  0
   10.3501   -4.7764   19.8298 C   0  0  0  0  0  0  0  0  0  0  0  0
    9.7767   -6.5900   18.5797 C   0  0  0  0  0  0  0  0  0  0  0  0
    4.1736   -7.6870   15.3142 C   0  0  0  0  0  0  0  0  0  0  0  0
    8.1242   -7.7706   16.9814 C   0  0  0  0  0  0  0  0  0  0  0  0
    9.0879   -5.0794   16.0298 C   0  0  0  0  0  0  0  0  0  0  0  0
   10.0334   -5.1394   18.2447 C   0  0  0  0  0  0  0  0  0  0  0  0
    6.0274   -8.4540   16.9787 C   0  0  0  0  0  0  0  0  0  0  0  0
   10.2343   -1.8020   23.8766 N   0  0  0  0  0  0  0  0  0  0  0  0
    4.7096   -8.8226   17.2735 C   0  0  0  0  0  0  0  0  0  0  0  0
   10.5874   -3.4936   16.3307 C   0  0  0  0  0  0  0  0  0  0  0  0
   10.3205   -4.3025   18.0532 C   0  0  0  0  0  0  0  0  0  0  0  0
   10.9470   -4.2735   23.4085 C   0  0  0  0  0  0  0  0  0  0  0  0
    6.4200   -7.8083   15.9493 C   0  0  0  0  0  0  0  0  0  0  0  0
  1  8  1  0
  1 14  1  0
  2 17  1  0
  2 26  4  0
  3 23  4  0
  3 24  4  0
  4 11  4  0
  4 21  4  0
  5 16  4  0
  5 22  4  0
  6 18  4  0
  6 23  4  0
  7 15  1  0
  8 10  4  0
  8 25  4  0
  9 17  1  0
 10 21  4  0
 11 25  4  0
 12 15  4  0
 13 16  4  0
 13 26  4  0
 14 19  4  0
 15 19  4  0
 19 24  4  0
 20 22  4  0
 20 26  4  0
M  END
$$$$

 Created by Python create_sdf_string function

 26 49  0  0  0  0  0  0  0  0999 V2000
    7.5307   -6.6397   16.1773 N   0  0  0  0  0  0  0  0  0  0  0  0
   10.9333   -3.3561   17.3797 C   0  0  0  0  0  0  0  0  0  0  0  0
    9.7438   -2.7289   26.1421 C   0  0  0  0  0  0  0  0  0  0  0  0
    4.1966   -7.8501   17.1435 C   0  0  0  0  0  0  0  0  0  0  0  0
    9.3014   -7.6270   18.0427 F   0  0  0  0  0  0  0  0  0  0  0  0
   11.2078   -3.4134   21.7903 Cl  0  0  0  0  0  0  0  0  0  0  0  0
    8.7248   -8.5472   16.7968 C   0  0  0  0  0  0  0  0  0  0  0  0
   11.8026   -2.6170   22.5585 C   0  0  0  0  0  0  0  0  0  0  0  0
   10.3626   -2.9781   24.4228 C   0  0  0  0  0  0  0  0  0  0  0  0
   10.5444   -5.3075   19.0081 O   0  0  0  0  0  0  0  0  0  0  0  0
    5.7980   -6.8299   14.7158 C   0  0  0  0  0  0  0  0  0  0  0  0
   10.9965   -4.3473   19.7232 C   0  0  0  0  0  0  0  0  0  0  0  0
    9.7525   -7.1146   18.9198 O   0  0  0  0  0  0  0  0  0  0  0  0
    8.4543   -7.5860   17.1546 C   0  0  0  0  0  0  0  0  0  0  0  0
    9.1920   -3.9519   16.1601 B   0  0  0  0  0  0  0  0  0  0  0  0
    9.1661   -4.6935   19.2514 S   0  0  0  0  0  0  0  0  0  0  0  0
    6.3764   -8.8986   16.7623 O   0  0  0  0  0  0  0  0  0  0  0  0
   10.8384   -1.8940   23.1339 N   0  0  0  0  0  0  0  0  0  0  0  0
    4.9371   -7.9634   16.9788 C   0  0  0  0  0  0  0  0  0  0  0  0
    9.8119   -4.0700   20.9016 He  0  0  0  0  0  0  0  0  0  0  0  0
    8.8790   -4.7602   15.9656 He  0  0  0  0  0  0  0  0  0  0  0  0
    3.9658   -7.6255   14.4096 He  0  0  0  0  0  0  0  0  0  0  0  0
    9.7109   -3.8634   16.3068 He  0  0  0  0  0  0  0  0  0  0  0  0
   10.4525   -4.9350   17.7585 He  0  0  0  0  0  0  0  0  0  0  0  0
   11.4319   -3.7480   23.6016 He  0  0  0  0  0  0  0  0  0  0  0  0
    5.9231   -7.8662   14.5356 He  0  0  0  0  0  0  0  0  0  0  0  0
  1  2  4  0
  1 10  4  0
  1 14  1  0
  1 17  4  0
  1 18  4  0
  1 19  3  0
  2  7  4  0
  2  8  2  0
  2 10  1  0
  3  5  4  0
  3  9  1  0
  3 11  3  0
  3 13  2  0
  3 18  4  0
  4  6  3  0
  4  8  4  0
  4 19  2  0
  5  7  2  0
  5  9  1  0
  5 14  1  0
  5 19  2  0
  6  8  4  0
  6 13  1  0
  6 16  1  0
  7  9  3  0
  7 14  1  0
  7 16  1  0
  7 18  3  0
  8 13  4  0
  8 18  4  0
  9 11  3  0
  9 13  4  0
  9 17  1  0
  9 18  1  0
 10 12  4  0
 10 14  1  0
 10 15  1  0
 10 18  2  0
 11 14  1  0
 11 18  4  0
 12 15  2  0
 12 16  4  0
 13 16  4  0
 14 15  1  0
 14 19  4  0
 15 16  4  0
 16 17  2  0
 16 18  1  0
 18 19  4  0
M  END
$$$$

 Created by Python create_sdf_string function

 26 29  0  0  0  0  0  0  0  0999 V2000
   10.8875   -4.4348   21.1437 C   0  0  0  0  0  0  0  0  0  0  0  0
    8.0792   -6.9388   15.7721 N   0  0  0  0  0  0  0  0  0  0  0  0
   10.8032   -3.7600   17.3256 C   0  0  0  0  0  0  0  0  0  0  0  0
    9.9661   -2.7796   25.4600 C   0  0  0  0  0  0  0  0  0  0  0  0
    4.0990   -8.0175   16.5403 C   0  0  0  0  0  0  0  0  0  0  0  0
    8.9648   -4.4348   15.8878 C   0  0  0  0  0  0  0  0  0  0  0  0
    9.2259   -7.3817   17.9363 C   0  0  0  0  0  0  0  0  0  0  0  0
   10.8834   -3.5740   22.2458 C   0  0  0  0  0  0  0  0  0  0  0  0
    7.9562   -8.6332   17.0566 C   0  0  0  0  0  0  0  0  0  0  0  0
   11.1434   -2.3435   22.3444 C   0  0  0  0  0  0  0  0  0  0  0  0
   10.4395   -2.9217   24.3072 C   0  0  0  0  0  0  0  0  0  0  0  0
   10.8363   -5.2049   19.2030 C   0  0  0  0  0  0  0  0  0  0  0  0
    5.2858   -7.1493   14.7899 C   0  0  0  0  0  0  0  0  0  0  0  0
   10.6895   -4.5521   20.1049 C   0  0  0  0  0  0  0  0  0  0  0  0
    9.8996   -7.2057   18.7137 O   0  0  0  0  0  0  0  0  0  0  0  0
    4.1187   -7.4608   15.3227 C   0  0  0  0  0  0  0  0  0  0  0  0
    8.5270   -7.6329   17.0953 C   0  0  0  0  0  0  0  0  0  0  0  0
    9.1502   -4.5623   16.3851 C   0  0  0  0  0  0  0  0  0  0  0  0
    9.6758   -5.0711   18.7550 N   0  0  0  0  0  0  0  0  0  0  0  0
    6.3441   -8.0854   16.6206 C   0  0  0  0  0  0  0  0  0  0  0  0
   10.8318   -1.8331   23.4959 N   0  0  0  0  0  0  0  0  0  0  0  0
    5.1178   -8.3144   17.1845 C   0  0  0  0  0  0  0  0  0  0  0  0
   10.2064   -3.8479   16.1747 C   0  0  0  0  0  0  0  0  0  0  0  0
   10.1985   -4.6714   17.8826 C   0  0  0  0  0  0  0  0  0  0  0  0
   10.6253   -3.9546   23.4718 N   0  0  0  0  0  0  0  0  0  0  0  0
    6.4184   -7.4409   15.5150 C   0  0  0  0  0  0  0  0  0  0  0  0
  1  8  1  0
  1 14  1  0
  2 17  1  0
  2 26  1  0
  3 23  4  0
  3 24  4  0
  4 11  1  0
  5 16  4  0
  5 22  4  0
  6 18  4  0
  6 23  4  0
  7 15  1  0
  7 17  1  0
  8 10  4  0
  8 25  4  0
  9 17  1  0
  9 20  1  0
 10 21  4  0
 11 21  4  0
 11 25  4  0
 12 14  4  0
 12 24  4  0
 13 16  4  0
 13 26  4  0
 14 19  4  0
 18 19  4  0
 19 24  4  0
 20 22  4  0
 20 26  4  0
M  END
$$$$

 Created by Python create_sdf_string function

 26 44  0  0  0  0  0  0  0  0999 V2000
   10.4007   -4.5162   20.9465 F   0  0  0  0  0  0  0  0  0  0  0  0
    8.5176   -6.6732   16.5496 N   0  0  0  0  0  0  0  0  0  0  0  0
   11.1487   -3.2308   18.1523 C   0  0  0  0  0  0  0  0  0  0  0  0
   10.5173   -3.0602   25.3531 C   0  0  0  0  0  0  0  0  0  0  0  0
    4.5910   -6.8652   16.2163 C   0  0  0  0  0  0  0  0  0  0  0  0
    9.1132   -4.3939   15.8942 C   0  0  0  0  0  0  0  0  0  0  0  0
   11.1904   -3.6042   21.4673 O   0  0  0  0  0  0  0  0  0  0  0  0
    7.6737   -8.5829   16.6598 C   0  0  0  0  0  0  0  0  0  0  0  0
   10.9743   -1.1542   22.4380 F   0  0  0  0  0  0  0  0  0  0  0  0
   11.1474   -4.7567   19.5271 C   0  0  0  0  0  0  0  0  0  0  0  0
    5.2869   -8.0677   14.7731 C   0  0  0  0  0  0  0  0  0  0  0  0
   10.9505   -4.8082   19.5587 C   0  0  0  0  0  0  0  0  0  0  0  0
    9.9654   -8.2324   18.4079 F   0  0  0  0  0  0  0  0  0  0  0  0
    4.1827   -6.9538   15.4619 P   0  0  0  0  0  0  0  0  0  0  0  0
    8.0841   -7.7315   16.9872 C   0  0  0  0  0  0  0  0  0  0  0  0
    9.7434   -4.5413   16.1334 C   0  0  0  0  0  0  0  0  0  0  0  0
    5.5386   -8.0285   16.3985 C   0  0  0  0  0  0  0  0  0  0  0  0
   11.6764   -2.1255   23.6082 S   0  0  0  0  0  0  0  0  0  0  0  0
    4.8454   -8.6951   16.9804 Cl  0  0  0  0  0  0  0  0  0  0  0  0
   10.9686   -3.4421   23.8972 N   0  0  0  0  0  0  0  0  0  0  0  0
    8.1786   -7.5416   17.2491 He  0  0  0  0  0  0  0  0  0  0  0  0
   10.9589   -2.7657   23.8141 He  0  0  0  0  0  0  0  0  0  0  0  0
    9.4576   -5.1514   18.6681 He  0  0  0  0  0  0  0  0  0  0  0  0
    9.4813   -3.5421   16.9327 He  0  0  0  0  0  0  0  0  0  0  0  0
   10.1632   -5.3325   16.8813 He  0  0  0  0  0  0  0  0  0  0  0  0
    7.2356   -7.4154   15.8939 He  0  0  0  0  0  0  0  0  0  0  0  0
  1  4  3  0
  1  5  2  0
  1  6  2  0
  1  7  2  0
  2  4  1  0
  2 15  1  0
  2 16  3  0
  2 17  1  0
  3  6  2  0
  3 10  3  0
  3 11  1  0
  3 17  3  0
  4 11  2  0
  4 18  2  0
  4 19  1  0
  5  7  2  0
  5 14  2  0
  5 15  4  0
  5 19  3  0
  6 16  1  0
  6 19  1  0
  7  9  2  0
  7 11  3  0
  7 13  2  0
  7 15  1  0
  7 20  4  0
  8 15  1  0
  8 16  3  0
  8 20  2  0
  9 15  2  0
  9 18  4  0
 10 12  4  0
 10 14  1  0
 10 15  3  0
 11 14  1  0
 11 17  1  0
 12 13  4  0
 12 20  2  0
 13 16  2  0
 14 20  2  0
 15 19  1  0
 15 20  3  0
 17 19  2  0
 19 20  2  0
M  END
$$$$

 Created by Python create_sdf_string function

 26 28  0  0  0  0  0  0  0  0999 V2000
   10.5791   -4.4431   21.0154 C   0  0  0  0  0  0  0  0  0  0  0  0
    8.6308   -6.6776   16.7800 N   0  0  0  0  0  0  0  0  0  0  0  0
   10.9761   -3.3277   18.2045 C   0  0  0  0  0  0  0  0  0  0  0  0
   10.5067   -2.9832   25.3235 C   0  0  0  0  0  0  0  0  0  0  0  0
    4.3874   -7.3844   16.3062 C   0  0  0  0  0  0  0  0  0  0  0  0
    8.8667   -4.4302   15.7044 C   0  0  0  0  0  0  0  0  0  0  0  0
    9.1046   -6.8546   17.9188 C   0  0  0  0  0  0  0  0  0  0  0  0
   10.8956   -3.5987   21.9995 C   0  0  0  0  0  0  0  0  0  0  0  0
    7.3749   -8.7730   16.8277 C   0  0  0  0  0  0  0  0  0  0  0  0
   11.3455   -2.3002   22.1015 C   0  0  0  0  0  0  0  0  0  0  0  0
   10.8168   -2.9162   24.0665 C   0  0  0  0  0  0  0  0  0  0  0  0
   10.9565   -4.0365   19.5785 C   0  0  0  0  0  0  0  0  0  0  0  0
    5.4667   -7.7648   15.0954 C   0  0  0  0  0  0  0  0  0  0  0  0
   10.5245   -4.9828   19.7697 C   0  0  0  0  0  0  0  0  0  0  0  0
    9.5171   -7.7618   18.5644 O   0  0  0  0  0  0  0  0  0  0  0  0
    4.2711   -7.2292   15.2776 C   0  0  0  0  0  0  0  0  0  0  0  0
    8.1544   -7.8587   16.4563 C   0  0  0  0  0  0  0  0  0  0  0  0
    9.4174   -4.8646   16.3313 C   0  0  0  0  0  0  0  0  0  0  0  0
    9.9335   -5.5676   18.5411 C   0  0  0  0  0  0  0  0  0  0  0  0
    5.9998   -8.3876   16.3311 C   0  0  0  0  0  0  0  0  0  0  0  0
   11.2171   -1.7841   23.4028 N   0  0  0  0  0  0  0  0  0  0  0  0
    5.0239   -8.3716   17.1344 C   0  0  0  0  0  0  0  0  0  0  0  0
   10.4027   -3.5625   16.9468 C   0  0  0  0  0  0  0  0  0  0  0  0
    9.9271   -4.7835   17.1649 C   0  0  0  0  0  0  0  0  0  0  0  0
   10.7418   -3.9704   23.3288 N   0  0  0  0  0  0  0  0  0  0  0  0
    6.6078   -7.1679   15.8040 C   0  0  0  0  0  0  0  0  0  0  0  0
  1  8  1  0
  1 14  4  0
  2  7  1  0
  2 17  1  0
  3 12  4  0
  3 23  4  0
  4 11  1  0
  5 16  2  0
  5 22  1  0
  6 18  1  0
  7 15  1  0
  7 19  1  0
  8 10  4  0
  8 25  4  0
  9 17  1  0
  9 20  1  0
 10 21  4  0
 11 21  4  0
 11 25  4  0
 12 14  4  0
 13 16  1  0
 13 20  1  0
 14 19  4  0
 18 24  1  0
 19 24  4  0
 20 22  1  0
 20 26  1  0
 23 24  4  0
M  END
$$$$

 Created by Python create_sdf_string function

 26 69  0  0  0  0  0  0  0  0999 V2000
   10.0164   -4.5570   21.1396 P   0  0  0  0  0  0  0  0  0  0  0  0
    9.1742   -7.1182   15.8896 F   0  0  0  0  0  0  0  0  0  0  0  0
   11.1097   -3.0533   25.2934 C   0  0  0  0  0  0  0  0  0  0  0  0
    3.8556   -7.5131   16.0737 C   0  0  0  0  0  0  0  0  0  0  0  0
   10.3448   -3.8518   16.1229 C   0  0  0  0  0  0  0  0  0  0  0  0
    8.9611   -6.9990   17.0420 P   0  0  0  0  0  0  0  0  0  0  0  0
   10.4069   -2.9539   21.8596 C   0  0  0  0  0  0  0  0  0  0  0  0
    8.0047   -8.4200   16.7535 C   0  0  0  0  0  0  0  0  0  0  0  0
   11.8980   -2.4555   21.8706 C   0  0  0  0  0  0  0  0  0  0  0  0
   10.5961   -3.6651   24.7872 C   0  0  0  0  0  0  0  0  0  0  0  0
   11.7410   -4.1289   19.7085 C   0  0  0  0  0  0  0  0  0  0  0  0
    4.5085   -8.7174   15.0740 C   0  0  0  0  0  0  0  0  0  0  0  0
   11.5537   -4.9879   19.6716 C   0  0  0  0  0  0  0  0  0  0  0  0
   10.2099   -7.7966   17.7776 O   0  0  0  0  0  0  0  0  0  0  0  0
    5.3270   -7.6453   15.3840 C   0  0  0  0  0  0  0  0  0  0  0  0
    7.7182   -7.7176   16.3593 C   0  0  0  0  0  0  0  0  0  0  0  0
    8.7434   -4.6091   16.2986 C   0  0  0  0  0  0  0  0  0  0  0  0
   10.6854   -5.1587   18.5609 C   0  0  0  0  0  0  0  0  0  0  0  0
    6.8054   -8.3973   16.3116 F   0  0  0  0  0  0  0  0  0  0  0  0
   11.0416   -1.0138   24.0748 F   0  0  0  0  0  0  0  0  0  0  0  0
    6.0729   -8.2377   18.2400 C   0  0  0  0  0  0  0  0  0  0  0  0
   10.2042   -4.2006   16.9470 N   0  0  0  0  0  0  0  0  0  0  0  0
   10.5840   -5.0687   16.4301 O   0  0  0  0  0  0  0  0  0  0  0  0
   11.0280   -3.2378   18.9600 He  0  0  0  0  0  0  0  0  0  0  0  0
   10.3359   -4.0437   23.0203 He  0  0  0  0  0  0  0  0  0  0  0  0
    7.0500   -7.1740   15.7802 He  0  0  0  0  0  0  0  0  0  0  0  0
  1  7  3  0
  1 13  4  0
  1 14  1  0
  1 15  1  0
  1 17  2  0
  1 18  2  0
  1 23  1  0
  2 10  2  0
  2 12  2  0
  2 15  2  0
  3 10  1  0
  3 16  4  0
  3 19  4  0
  3 21  2  0
  4  6  3  0
  4 11  3  0
  4 15  1  0
  4 20  4  0
  4 21  4  0
  5  6  2  0
  5 12  2  0
  5 17  1  0
  5 18  4  0
  5 21  4  0
  5 23  1  0
  6 10  3  0
  6 13  2  0
  6 14  3  0
  7  9  2  0
  7 11  1  0
  7 17  3  0
  8 10  2  0
  8 11  1  0
  8 14  4  0
  8 16  2  0
  8 17  2  0
  8 19  1  0
  8 20  2  0
  8 21  2  0
  9 10  2  0
  9 21  1  0
  9 22  3  0
 10 16  2  0
 10 23  4  0
 11 13  4  0
 11 15  1  0
 11 21  3  0
 12 13  4  0
 12 15  3  0
 12 19  3  0
 12 21  4  0
 12 23  4  0
 13 16  1  0
 13 18  4  0
 13 22  1  0
 13 23  3  0
 14 15  3  0
 14 17  1  0
 14 19  1  0
 14 21  3  0
 14 23  3  0
 15 23  1  0
 16 21  1  0
 17 18  1  0
 17 23  1  0
 18 20  1  0
 18 23  4  0
 19 21  1  0
 22 23  2  0
M  END
$$$$

 Created by Python create_sdf_string function

 26 25  0  0  0  0  0  0  0  0999 V2000
   10.9038   -4.2197   21.1383 C   0  0  0  0  0  0  0  0  0  0  0  0
    8.8379   -6.9041   16.3104 N   0  0  0  0  0  0  0  0  0  0  0  0
   11.0419   -3.1512   18.9459 N   0  0  0  0  0  0  0  0  0  0  0  0
   10.7618   -2.4866   24.9251 C   0  0  0  0  0  0  0  0  0  0  0  0
    4.4512   -7.9776   16.5727 C   0  0  0  0  0  0  0  0  0  0  0  0
    9.9953   -4.1725   16.1213 C   0  0  0  0  0  0  0  0  0  0  0  0
    9.4278   -6.9203   17.3969 C   0  0  0  0  0  0  0  0  0  0  0  0
   11.0260   -3.5406   22.0647 C   0  0  0  0  0  0  0  0  0  0  0  0
    7.5906   -8.6237   17.1215 C   0  0  0  0  0  0  0  0  0  0  0  0
   11.3424   -2.2446   22.3303 C   0  0  0  0  0  0  0  0  0  0  0  0
   10.5390   -3.3697   24.3953 C   0  0  0  0  0  0  0  0  0  0  0  0
   11.0000   -3.8144   20.1422 C   0  0  0  0  0  0  0  0  0  0  0  0
    5.0024   -8.4622   15.4924 C   0  0  0  0  0  0  0  0  0  0  0  0
   10.7334   -5.4231   19.3528 C   0  0  0  0  0  0  0  0  0  0  0  0
    9.8590   -7.6411   18.2285 O   0  0  0  0  0  0  0  0  0  0  0  0
    5.0105   -7.6747   15.4754 C   0  0  0  0  0  0  0  0  0  0  0  0
    7.6209   -7.4567   16.1922 C   0  0  0  0  0  0  0  0  0  0  0  0
    8.9403   -4.9201   15.9346 C   0  0  0  0  0  0  0  0  0  0  0  0
   10.3470   -5.4149   18.4448 C   0  0  0  0  0  0  0  0  0  0  0  0
    6.6689   -8.3818   16.7918 C   0  0  0  0  0  0  0  0  0  0  0  0
   11.2476   -1.7022   23.6264 C   0  0  0  0  0  0  0  0  0  0  0  0
    5.6714   -8.3113   17.5026 C   0  0  0  0  0  0  0  0  0  0  0  0
   10.7938   -3.4541   17.5091 N   0  0  0  0  0  0  0  0  0  0  0  0
   10.1007   -4.6168   16.9545 C   0  0  0  0  0  0  0  0  0  0  0  0
   10.7095   -4.0591   23.2699 C   0  0  0  0  0  0  0  0  0  0  0  0
    6.5242   -7.0926   15.6390 C   0  0  0  0  0  0  0  0  0  0  0  0
  1  8  1  0
  1 12  4  0
  2  7  1  0
  2 17  1  0
  3 12  4  0
  3 23  4  0
  4 11  4  0
  4 21  4  0
  5 16  1  0
  5 22  4  0
  6 18  1  0
  6 24  1  0
  7 15  2  0
  7 19  1  0
  8 10  4  0
  8 25  4  0
  9 20  1  0
 10 21  4  0
 11 25  4  0
 13 16  1  0
 14 19  4  0
 17 26  1  0
 18 24  1  0
 19 24  4  0
 20 22  1  0
M  END
$$$$

 Created by Python create_sdf_string function

 26 39  0  0  0  0  0  0  0  0999 V2000
   11.2969   -4.5785   21.6510 C   0  0  0  0  0  0  0  0  0  0  0  0
    9.3804   -5.6824   15.9583 N   0  0  0  0  0  0  0  0  0  0  0  0
   12.0181   -3.0693   20.0659 N   0  0  0  0  0  0  0  0  0  0  0  0
   11.6416   -2.7242   25.3324 C   0  0  0  0  0  0  0  0  0  0  0  0
    3.9012   -8.4458   16.1110 C   0  0  0  0  0  0  0  0  0  0  0  0
    9.2981   -4.5648   16.1420 C   0  0  0  0  0  0  0  0  0  0  0  0
    9.1411   -7.0731   17.9210 P   0  0  0  0  0  0  0  0  0  0  0  0
   11.5339   -2.3924   22.8643 N   0  0  0  0  0  0  0  0  0  0  0  0
   10.1666   -3.8111   20.2525 C   0  0  0  0  0  0  0  0  0  0  0  0
   10.0496   -6.6153   18.7376 O   0  0  0  0  0  0  0  0  0  0  0  0
    4.8432   -7.7094   16.0676 C   0  0  0  0  0  0  0  0  0  0  0  0
    8.7819   -4.8811   15.7913 P   0  0  0  0  0  0  0  0  0  0  0  0
   11.8169   -5.1646   18.9412 Cl  0  0  0  0  0  0  0  0  0  0  0  0
    6.9564   -8.9276   16.2611 C   0  0  0  0  0  0  0  0  0  0  0  0
   10.3434   -2.7924   24.4551 C   0  0  0  0  0  0  0  0  0  0  0  0
   11.1862   -2.2955   17.3225 F   0  0  0  0  0  0  0  0  0  0  0  0
   10.7160   -5.9389   17.7650 C   0  0  0  0  0  0  0  0  0  0  0  0
   10.8767   -4.5205   23.0429 C   0  0  0  0  0  0  0  0  0  0  0  0
    5.8419   -7.9321   15.0476 S   0  0  0  0  0  0  0  0  0  0  0  0
   11.0056   -3.8255   21.1562 He  0  0  0  0  0  0  0  0  0  0  0  0
    7.5199   -8.1235   17.3852 He  0  0  0  0  0  0  0  0  0  0  0  0
   10.3539   -3.4601   24.2491 He  0  0  0  0  0  0  0  0  0  0  0  0
    4.4568   -7.6449   15.1583 He  0  0  0  0  0  0  0  0  0  0  0  0
   10.8857   -5.9212   20.1070 He  0  0  0  0  0  0  0  0  0  0  0  0
    7.6199   -7.4843   15.4695 He  0  0  0  0  0  0  0  0  0  0  0  0
    5.4949   -8.7624   17.8511 He  0  0  0  0  0  0  0  0  0  0  0  0
  1  4  4  0
  1  9  2  0
  1 18  2  0
  1 19  2  0
  2  4  3  0
  2  6  2  0
  2  7  1  0
  2  8  1  0
  2 11  4  0
  2 12  2  0
  3 16  4  0
  4 10  3  0
  4 13  1  0
  4 19  3  0
  5 11  1  0
  5 12  2  0
  5 18  1  0
  6 12  1  0
  6 15  2  0
  6 17  1  0
  7  9  1  0
  7 10  3  0
  7 14  4  0
  8 15  2  0
  9 11  1  0
  9 12  1  0
  9 15  2  0
  9 17  4  0
 10 11  1  0
 10 15  1  0
 10 17  3  0
 11 13  2  0
 12 15  4  0
 12 17  3  0
 13 17  4  0
 14 16  3  0
 16 19  2  0
 17 19  4  0
 18 19  4  0
M  END
$$$$

 Created by Python create_sdf_string function

 26 28  0  0  0  0  0  0  0  0999 V2000
   11.1282   -4.1028   21.0991 C   0  0  0  0  0  0  0  0  0  0  0  0
    8.7329   -6.0582   16.2121 N   0  0  0  0  0  0  0  0  0  0  0  0
   10.8885   -2.9950   19.3410 N   0  0  0  0  0  0  0  0  0  0  0  0
   10.9022   -2.7129   24.9758 C   0  0  0  0  0  0  0  0  0  0  0  0
    4.2459   -8.4924   16.7304 C   0  0  0  0  0  0  0  0  0  0  0  0
    9.9146   -4.4914   16.7962 C   0  0  0  0  0  0  0  0  0  0  0  0
    8.7694   -7.0963   17.3612 C   0  0  0  0  0  0  0  0  0  0  0  0
   11.0095   -3.7048   22.2156 C   0  0  0  0  0  0  0  0  0  0  0  0
    7.8849   -8.2598   17.3333 C   0  0  0  0  0  0  0  0  0  0  0  0
   10.9796   -2.4915   22.7201 N   0  0  0  0  0  0  0  0  0  0  0  0
   10.8916   -4.0534   24.5173 C   0  0  0  0  0  0  0  0  0  0  0  0
   10.7753   -3.6525   19.4160 C   0  0  0  0  0  0  0  0  0  0  0  0
    4.9991   -7.6063   15.2393 C   0  0  0  0  0  0  0  0  0  0  0  0
   11.1294   -5.3744   20.4051 C   0  0  0  0  0  0  0  0  0  0  0  0
    9.6934   -7.0201   18.3464 O   0  0  0  0  0  0  0  0  0  0  0  0
    4.5367   -8.0719   16.0778 C   0  0  0  0  0  0  0  0  0  0  0  0
    7.6080   -6.9935   15.2374 C   0  0  0  0  0  0  0  0  0  0  0  0
    9.1403   -4.8596   16.2669 C   0  0  0  0  0  0  0  0  0  0  0  0
   11.0063   -5.2628   19.0935 C   0  0  0  0  0  0  0  0  0  0  0  0
    6.6065   -8.4085   16.9139 C   0  0  0  0  0  0  0  0  0  0  0  0
   10.9216   -2.1691   23.9950 C   0  0  0  0  0  0  0  0  0  0  0  0
    5.4529   -8.7805   17.4949 C   0  0  0  0  0  0  0  0  0  0  0  0
   10.7007   -3.0749   17.0623 O   0  0  0  0  0  0  0  0  0  0  0  0
   10.4085   -5.2637   18.1841 C   0  0  0  0  0  0  0  0  0  0  0  0
   11.0371   -4.5342   23.3397 C   0  0  0  0  0  0  0  0  0  0  0  0
    6.3064   -7.5709   15.4745 C   0  0  0  0  0  0  0  0  0  0  0  0
  1  8  1  0
  1 12  4  0
  1 14  4  0
  2  7  1  0
  2 17  1  0
  2 18  1  0
  3 12  4  0
  4 11  4  0
  4 21  4  0
  5 16  1  0
  5 22  4  0
  6 18  1  0
  6 23  4  0
  6 24  1  0
  7  9  1  0
  7 15  2  0
  8 10  4  0
  8 25  4  0
  9 20  1  0
 10 21  4  0
 11 25  4  0
 13 16  4  0
 13 26  4  0
 14 19  4  0
 17 26  1  0
 19 24  4  0
 20 22  1  0
 20 26  4  0
M  END
$$$$

 Created by Python create_sdf_string function

 26 42  0  0  0  0  0  0  0  0999 V2000
   10.8816   -4.0300   21.3247 C   0  0  0  0  0  0  0  0  0  0  0  0
    7.8287   -6.0002   16.2136 N   0  0  0  0  0  0  0  0  0  0  0  0
   10.4310   -3.1169   19.2831 N   0  0  0  0  0  0  0  0  0  0  0  0
   10.9215   -2.5034   24.8348 C   0  0  0  0  0  0  0  0  0  0  0  0
    4.4643   -7.9884   17.0471 Cl  0  0  0  0  0  0  0  0  0  0  0  0
    9.3597   -6.7782   17.2394 C   0  0  0  0  0  0  0  0  0  0  0  0
   11.0375   -3.4310   21.8691 C   0  0  0  0  0  0  0  0  0  0  0  0
   11.3535   -2.0087   22.6838 N   0  0  0  0  0  0  0  0  0  0  0  0
   10.5163   -4.0027   23.2915 C   0  0  0  0  0  0  0  0  0  0  0  0
   10.7920   -3.3191   20.0435 C   0  0  0  0  0  0  0  0  0  0  0  0
   10.7464   -5.1327   19.9908 C   0  0  0  0  0  0  0  0  0  0  0  0
    9.9721   -6.8412   18.3168 O   0  0  0  0  0  0  0  0  0  0  0  0
    4.5942   -8.3720   15.5477 C   0  0  0  0  0  0  0  0  0  0  0  0
    8.9886   -6.2091   16.5301 C   0  0  0  0  0  0  0  0  0  0  0  0
   10.9177   -5.7695   19.9233 C   0  0  0  0  0  0  0  0  0  0  0  0
    6.5453   -8.3919   16.4656 C   0  0  0  0  0  0  0  0  0  0  0  0
   11.2153   -2.4801   23.2840 C   0  0  0  0  0  0  0  0  0  0  0  0
    6.0335   -8.8952   17.2786 C   0  0  0  0  0  0  0  0  0  0  0  0
   10.4212   -3.4812   16.7277 O   0  0  0  0  0  0  0  0  0  0  0  0
   11.4610   -5.2144   23.2325 C   0  0  0  0  0  0  0  0  0  0  0  0
    6.4227   -7.4440   15.2994 C   0  0  0  0  0  0  0  0  0  0  0  0
    9.5956   -4.5632   17.4327 He  0  0  0  0  0  0  0  0  0  0  0  0
    8.4370   -8.3949   17.1221 He  0  0  0  0  0  0  0  0  0  0  0  0
    5.3523   -7.4155   15.2912 He  0  0  0  0  0  0  0  0  0  0  0  0
    7.5402   -7.5500   15.7770 He  0  0  0  0  0  0  0  0  0  0  0  0
   10.3547   -4.8418   18.6859 He  0  0  0  0  0  0  0  0  0  0  0  0
  1  2  2  0
  1  7  1  0
  1  8  2  0
  1 10  4  0
  1 11  4  0
  1 19  4  0
  2  4  4  0
  2 10  4  0
  2 14  1  0
  2 16  4  0
  2 19  3  0
  3 10  4  0
  3 14  4  0
  4  7  4  0
  4  9  4  0
  4 11  3  0
  4 17  4  0
  5 11  4  0
  5 13  1  0
  6  9  4  0
  6 16  3  0
  6 17  3  0
  6 21  2  0
  7 12  2  0
  7 19  2  0
  7 20  4  0
  8 11  1  0
  8 14  3  0
  8 17  1  0
  8 19  4  0
  9 10  3  0
  9 16  4  0
  9 20  4  0
 11 12  2  0
 11 15  2  0
 11 18  1  0
 11 20  4  0
 12 21  4  0
 14 16  3  0
 16 18  1  0
 16 19  4  0
 16 21  3  0
M  END
$$$$

 Created by Python create_sdf_string function

 26 31  0  0  0  0  0  0  0  0999 V2000
   11.0204   -3.9880   20.9893 C   0  0  0  0  0  0  0  0  0  0  0  0
    8.0536   -5.9928   15.8484 N   0  0  0  0  0  0  0  0  0  0  0  0
   10.6881   -3.3191   18.7222 N   0  0  0  0  0  0  0  0  0  0  0  0
   10.8563   -2.9208   24.8143 C   0  0  0  0  0  0  0  0  0  0  0  0
    4.5504   -8.5947   17.0303 C   0  0  0  0  0  0  0  0  0  0  0  0
    9.8128   -4.7705   17.0848 C   0  0  0  0  0  0  0  0  0  0  0  0
    9.2079   -7.0677   17.6076 C   0  0  0  0  0  0  0  0  0  0  0  0
   11.1379   -3.6109   22.3436 C   0  0  0  0  0  0  0  0  0  0  0  0
    8.2680   -8.1706   17.2044 S   0  0  0  0  0  0  0  0  0  0  0  0
   11.1764   -2.2321   22.7121 N   0  0  0  0  0  0  0  0  0  0  0  0
   10.9432   -4.1628   24.5759 C   0  0  0  0  0  0  0  0  0  0  0  0
   10.9234   -3.0703   20.0123 C   0  0  0  0  0  0  0  0  0  0  0  0
    5.2904   -7.4755   15.2175 C   0  0  0  0  0  0  0  0  0  0  0  0
   10.8963   -5.2814   20.5535 C   0  0  0  0  0  0  0  0  0  0  0  0
   10.0898   -7.0173   18.7827 O   0  0  0  0  0  0  0  0  0  0  0  0
    4.3385   -8.1686   15.9561 C   0  0  0  0  0  0  0  0  0  0  0  0
    7.6152   -7.2469   15.6302 C   0  0  0  0  0  0  0  0  0  0  0  0
    9.0745   -5.9039   16.8027 C   0  0  0  0  0  0  0  0  0  0  0  0
   10.4219   -5.6841   19.2758 C   0  0  0  0  0  0  0  0  0  0  0  0
    6.8410   -8.4890   16.7779 C   0  0  0  0  0  0  0  0  0  0  0  0
   10.9576   -1.9763   23.9515 C   0  0  0  0  0  0  0  0  0  0  0  0
    5.8337   -8.8211   17.5114 C   0  0  0  0  0  0  0  0  0  0  0  0
    9.9132   -3.8052   16.1584 O   0  0  0  0  0  0  0  0  0  0  0  0
   10.3340   -4.6003   18.3541 C   0  0  0  0  0  0  0  0  0  0  0  0
   11.1251   -4.5372   23.3100 C   0  0  0  0  0  0  0  0  0  0  0  0
    6.5768   -7.5939   15.4777 C   0  0  0  0  0  0  0  0  0  0  0  0
  1  8  1  0
  1 12  4  0
  1 14  4  0
  2 17  1  0
  2 18  1  0
  3 12  4  0
  3 24  4  0
  4 11  4  0
  4 21  4  0
  5 16  1  0
  5 22  1  0
  6 18  1  0
  6 23  1  0
  6 24  4  0
  7  9  1  0
  7 15  1  0
  7 18  1  0
  8 10  4  0
  8 25  4  0
  9 17  1  0
  9 20  1  0
 10 21  4  0
 11 25  4  0
 13 16  1  0
 13 26  1  0
 14 19  4  0
 15 19  1  0
 17 26  1  0
 19 24  4  0
 20 22  1  0
 20 26  1  0
M  END
$$$$

 Created by Python create_sdf_string function

 26 41  0  0  0  0  0  0  0  0999 V2000
   10.9293   -3.7740   20.4895 C   0  0  0  0  0  0  0  0  0  0  0  0
    6.9754   -6.0371   15.8692 N   0  0  0  0  0  0  0  0  0  0  0  0
   10.6745   -2.8276   24.6302 C   0  0  0  0  0  0  0  0  0  0  0  0
    3.6510   -8.4974   17.1633 C   0  0  0  0  0  0  0  0  0  0  0  0
    9.8297   -5.8084   16.3071 C   0  0  0  0  0  0  0  0  0  0  0  0
    8.6127   -6.5168   17.7844 N   0  0  0  0  0  0  0  0  0  0  0  0
    8.1553   -7.6159   17.1769 C   0  0  0  0  0  0  0  0  0  0  0  0
   11.4247   -1.6678   22.6436 N   0  0  0  0  0  0  0  0  0  0  0  0
   11.3712   -4.4646   25.6179 C   0  0  0  0  0  0  0  0  0  0  0  0
   10.6727   -5.3012   20.4824 O   0  0  0  0  0  0  0  0  0  0  0  0
    4.0984   -8.2185   16.4888 C   0  0  0  0  0  0  0  0  0  0  0  0
    7.6648   -8.0871   15.4665 S   0  0  0  0  0  0  0  0  0  0  0  0
   10.7646   -5.7223   17.7933 C   0  0  0  0  0  0  0  0  0  0  0  0
    7.2648   -8.5940   16.8047 C   0  0  0  0  0  0  0  0  0  0  0  0
   11.2209   -1.9505   24.5636 O   0  0  0  0  0  0  0  0  0  0  0  0
    7.0638   -9.1857   18.0394 C   0  0  0  0  0  0  0  0  0  0  0  0
   10.2606   -3.5436   17.0825 O   0  0  0  0  0  0  0  0  0  0  0  0
   10.5076   -5.3520   18.5228 N   0  0  0  0  0  0  0  0  0  0  0  0
   10.9719   -4.2452   22.6248 C   0  0  0  0  0  0  0  0  0  0  0  0
    7.6066   -6.9427   15.4919 O   0  0  0  0  0  0  0  0  0  0  0  0
   10.5704   -2.9891   17.9389 He  0  0  0  0  0  0  0  0  0  0  0  0
   11.0579   -3.4067   22.7854 He  0  0  0  0  0  0  0  0  0  0  0  0
   11.3470   -2.5175   20.2989 He  0  0  0  0  0  0  0  0  0  0  0  0
    5.5640   -8.2321   14.7358 He  0  0  0  0  0  0  0  0  0  0  0  0
    9.2386   -6.8678   19.0761 He  0  0  0  0  0  0  0  0  0  0  0  0
   10.4955   -6.0868   19.6539 He  0  0  0  0  0  0  0  0  0  0  0  0
  1  3  4  0
  1 15  4  0
  2  5  1  0
  2 12  1  0
  2 19  2  0
  2 20  2  0
  3  9  4  0
  3 10  2  0
  3 15  3  0
  3 18  3  0
  4  7  3  0
  4 11  1  0
  4 16  1  0
  5  8  1  0
  5 14  2  0
  5 17  1  0
  6  7  1  0
  6  9  3  0
  6 11  4  0
  6 14  4  0
  6 16  4  0
  6 17  4  0
  7  9  1  0
  7 12  2  0
  7 16  3  0
  7 20  4  0
  8 12  3  0
  9 19  4  0
 10 11  4  0
 10 12  1  0
 10 18  4  0
 11 17  3  0
 11 18  2  0
 12 15  2  0
 12 20  1  0
 13 20  1  0
 14 15  3  0
 14 16  1  0
 15 19  4  0
 16 17  1  0
 19 20  4  0
M  END
$$$$

 Created by Python create_sdf_string function

 26 27  0  0  0  0  0  0  0  0999 V2000
   10.9782   -3.8500   20.9939 C   0  0  0  0  0  0  0  0  0  0  0  0
    7.2638   -6.1999   15.6005 C   0  0  0  0  0  0  0  0  0  0  0  0
   10.8397   -3.3480   18.6523 C   0  0  0  0  0  0  0  0  0  0  0  0
   10.8838   -2.8880   25.0435 C   0  0  0  0  0  0  0  0  0  0  0  0
    4.5876   -8.7760   17.2953 C   0  0  0  0  0  0  0  0  0  0  0  0
    9.5928   -5.0480   16.5543 C   0  0  0  0  0  0  0  0  0  0  0  0
    8.9950   -6.9199   17.7115 N   0  0  0  0  0  0  0  0  0  0  0  0
   11.0976   -3.4443   22.3690 C   0  0  0  0  0  0  0  0  0  0  0  0
    8.1365   -7.8278   17.1265 C   0  0  0  0  0  0  0  0  0  0  0  0
   11.0737   -2.1977   22.8091 N   0  0  0  0  0  0  0  0  0  0  0  0
   10.9089   -4.1309   24.7122 C   0  0  0  0  0  0  0  0  0  0  0  0
   11.1044   -2.9478   20.0051 N   0  0  0  0  0  0  0  0  0  0  0  0
    5.7055   -8.0843   15.4995 C   0  0  0  0  0  0  0  0  0  0  0  0
   10.6724   -5.1283   20.6982 O   0  0  0  0  0  0  0  0  0  0  0  0
    9.5696   -7.1528   18.7634 C   0  0  0  0  0  0  0  0  0  0  0  0
    4.5248   -8.2878   16.1665 C   0  0  0  0  0  0  0  0  0  0  0  0
    7.7886   -7.8774   15.3086 C   0  0  0  0  0  0  0  0  0  0  0  0
    9.6406   -5.6637   17.3484 C   0  0  0  0  0  0  0  0  0  0  0  0
   10.3042   -5.5958   19.4235 C   0  0  0  0  0  0  0  0  0  0  0  0
    6.9640   -8.4676   17.2633 C   0  0  0  0  0  0  0  0  0  0  0  0
   10.9635   -1.9484   24.1983 C   0  0  0  0  0  0  0  0  0  0  0  0
    6.0895   -8.5422   17.9771 C   0  0  0  0  0  0  0  0  0  0  0  0
   10.3166   -3.8028   16.4819 O   0  0  0  0  0  0  0  0  0  0  0  0
   10.4510   -4.7072   18.5577 C   0  0  0  0  0  0  0  0  0  0  0  0
   11.0948   -4.4714   23.3283 C   0  0  0  0  0  0  0  0  0  0  0  0
    6.9898   -7.2061   15.4425 C   0  0  0  0  0  0  0  0  0  0  0  0
  1  8  1  0
  1 12  4  0
  1 14  4  0
  2 26  2  0
  3 12  4  0
  3 24  4  0
  4 11  4  0
  4 21  4  0
  5 16  1  0
  5 22  1  0
  6 18  4  0
  6 23  1  0
  7  9  1  0
  7 15  4  0
  7 18  4  0
  8 10  4  0
  8 25  4  0
  9 20  1  0
 10 21  4  0
 11 25  4  0
 13 16  1  0
 13 26  1  0
 14 19  4  0
 15 19  4  0
 17 26  1  0
 19 24  4  0
 20 22  1  0
M  END
$$$$

 Created by Python create_sdf_string function

 26 43  0  0  0  0  0  0  0  0999 V2000
   11.3421   -3.9354   20.5875 C   0  0  0  0  0  0  0  0  0  0  0  0
    6.7072   -6.3844   16.5611 C   0  0  0  0  0  0  0  0  0  0  0  0
   10.6324   -4.1502   18.6194 C   0  0  0  0  0  0  0  0  0  0  0  0
   10.5886   -3.6963   24.8939 C   0  0  0  0  0  0  0  0  0  0  0  0
    4.6081   -8.2888   16.2876 C   0  0  0  0  0  0  0  0  0  0  0  0
    8.9189   -4.6328   15.9006 C   0  0  0  0  0  0  0  0  0  0  0  0
   10.9859   -3.0179   22.5117 C   0  0  0  0  0  0  0  0  0  0  0  0
    7.4655   -8.6143   16.7161 C   0  0  0  0  0  0  0  0  0  0  0  0
   10.4804   -3.0143   22.7668 N   0  0  0  0  0  0  0  0  0  0  0  0
    5.0313   -6.9707   15.8109 C   0  0  0  0  0  0  0  0  0  0  0  0
   10.4305   -5.6792   21.1690 O   0  0  0  0  0  0  0  0  0  0  0  0
    3.9373   -8.0992   16.6909 C   0  0  0  0  0  0  0  0  0  0  0  0
   10.0955   -5.7486   17.5024 F   0  0  0  0  0  0  0  0  0  0  0  0
   10.0884   -5.2458   19.8378 N   0  0  0  0  0  0  0  0  0  0  0  0
    7.1837   -9.0508   17.9233 C   0  0  0  0  0  0  0  0  0  0  0  0
   10.7058   -2.8866   24.4278 C   0  0  0  0  0  0  0  0  0  0  0  0
    5.7776   -8.0832   18.6100 C   0  0  0  0  0  0  0  0  0  0  0  0
    9.9894   -3.7190   16.3386 O   0  0  0  0  0  0  0  0  0  0  0  0
   11.0844   -4.4883   23.1120 C   0  0  0  0  0  0  0  0  0  0  0  0
    6.6163   -7.7820   15.2567 C   0  0  0  0  0  0  0  0  0  0  0  0
    8.3467   -7.0753   18.0951 He  0  0  0  0  0  0  0  0  0  0  0  0
   10.5482   -4.5700   24.7846 He  0  0  0  0  0  0  0  0  0  0  0  0
   10.3289   -2.7069   19.9829 He  0  0  0  0  0  0  0  0  0  0  0  0
    9.4493   -6.6575   18.3686 He  0  0  0  0  0  0  0  0  0  0  0  0
    7.4774   -7.9623   15.8483 He  0  0  0  0  0  0  0  0  0  0  0  0
   10.1124   -5.3893   18.7636 He  0  0  0  0  0  0  0  0  0  0  0  0
  1  7  1  0
  1 11  4  0
  1 12  4  0
  1 16  1  0
  1 20  2  0
  2  3  1  0
  2  4  4  0
  2 12  4  0
  2 18  2  0
  2 19  2  0
  2 20  3  0
  3  4  4  0
  3  7  2  0
  3 13  3  0
  3 14  3  0
  3 15  4  0
  3 18  1  0
  4 14  1  0
  4 16  4  0
  4 17  2  0
  4 18  3  0
  5  6  3  0
  5 16  4  0
  6 12  2  0
  6 13  4  0
  6 18  4  0
  7  9  4  0
  7 17  3  0
  7 19  4  0
  8 15  1  0
  8 17  1  0
  8 20  4  0
  9 16  4  0
  9 18  4  0
  9 20  3  0
 10 20  1  0
 11 14  4  0
 11 15  1  0
 12 13  4  0
 12 15  1  0
 15 16  3  0
 15 17  1  0
 19 20  1  0
M  END
$$$$

 Created by Python create_sdf_string function

 26 30  0  0  0  0  0  0  0  0999 V2000
   10.7949   -3.9884   21.0769 C   0  0  0  0  0  0  0  0  0  0  0  0
    6.9481   -6.3063   16.4096 C   0  0  0  0  0  0  0  0  0  0  0  0
   10.4186   -3.7940   18.5592 C   0  0  0  0  0  0  0  0  0  0  0  0
   10.4949   -3.3541   25.1230 C   0  0  0  0  0  0  0  0  0  0  0  0
    4.5695   -8.6687   16.5307 C   0  0  0  0  0  0  0  0  0  0  0  0
    9.4993   -4.6639   16.5576 C   0  0  0  0  0  0  0  0  0  0  0  0
    8.0778   -7.0665   17.3988 C   0  0  0  0  0  0  0  0  0  0  0  0
   10.8575   -3.6609   22.4587 C   0  0  0  0  0  0  0  0  0  0  0  0
    7.2071   -8.4927   17.2167 C   0  0  0  0  0  0  0  0  0  0  0  0
   10.4547   -2.5320   22.9790 N   0  0  0  0  0  0  0  0  0  0  0  0
   10.9917   -4.4961   24.7353 N   0  0  0  0  0  0  0  0  0  0  0  0
   10.8111   -3.1905   19.8853 C   0  0  0  0  0  0  0  0  0  0  0  0
    5.3060   -7.1912   15.6261 C   0  0  0  0  0  0  0  0  0  0  0  0
   10.7112   -5.3576   20.7937 C   0  0  0  0  0  0  0  0  0  0  0  0
    9.1868   -7.1882   17.7368 C   0  0  0  0  0  0  0  0  0  0  0  0
    4.3508   -8.2316   16.8053 C   0  0  0  0  0  0  0  0  0  0  0  0
    7.6352   -8.2385   15.5826 C   0  0  0  0  0  0  0  0  0  0  0  0
    9.4244   -5.6059   17.5305 C   0  0  0  0  0  0  0  0  0  0  0  0
   10.3217   -5.8679   19.6706 N   0  0  0  0  0  0  0  0  0  0  0  0
    6.7822   -8.9088   17.7196 C   0  0  0  0  0  0  0  0  0  0  0  0
   10.2597   -2.3637   24.3082 C   0  0  0  0  0  0  0  0  0  0  0  0
    5.9053   -8.1683   18.0666 C   0  0  0  0  0  0  0  0  0  0  0  0
   10.2288   -3.6081   17.2411 N   0  0  0  0  0  0  0  0  0  0  0  0
   10.0552   -5.0548   18.6494 C   0  0  0  0  0  0  0  0  0  0  0  0
   11.2166   -4.6468   23.4361 C   0  0  0  0  0  0  0  0  0  0  0  0
    6.4040   -7.5167   15.4600 C   0  0  0  0  0  0  0  0  0  0  0  0
  1  8  1  0
  1 12  4  0
  1 14  4  0
  2  7  1  0
  2 26  1  0
  3 12  4  0
  3 23  4  0
  3 24  4  0
  4 11  4  0
  4 21  4  0
  5 16  1  0
  6 18  4  0
  6 23  4  0
  7  9  1  0
  7 15  1  0
  8 10  4  0
  8 25  4  0
  9 17  1  0
  9 20  1  0
  9 22  1  0
 10 21  4  0
 11 25  4  0
 13 16  1  0
 13 26  1  0
 14 19  4  0
 15 18  1  0
 17 26  1  0
 18 24  4  0
 19 24  4  0
 20 22  1  0
M  END
$$$$

 Created by Python create_sdf_string function

 26 48  0  0  0  0  0  0  0  0999 V2000
   11.3276   -4.3144   21.0618 C   0  0  0  0  0  0  0  0  0  0  0  0
    7.4887   -5.8889   16.5753 C   0  0  0  0  0  0  0  0  0  0  0  0
   10.0156   -4.3089   18.2677 C   0  0  0  0  0  0  0  0  0  0  0  0
    4.4281   -8.9307   15.6396 C   0  0  0  0  0  0  0  0  0  0  0  0
    9.2379   -4.6333   15.7937 C   0  0  0  0  0  0  0  0  0  0  0  0
   10.7321   -3.6703   22.4476 C   0  0  0  0  0  0  0  0  0  0  0  0
   10.8750   -1.9076   23.1407 N   0  0  0  0  0  0  0  0  0  0  0  0
   11.2498   -4.2794   24.8843 N   0  0  0  0  0  0  0  0  0  0  0  0
   11.9095   -3.4606   19.5105 C   0  0  0  0  0  0  0  0  0  0  0  0
    5.8232   -6.9821   15.4695 C   0  0  0  0  0  0  0  0  0  0  0  0
   11.5411   -5.6864   21.6747 F   0  0  0  0  0  0  0  0  0  0  0  0
    8.6843   -7.2011   17.5252 C   0  0  0  0  0  0  0  0  0  0  0  0
    4.3959   -8.5738   17.3144 C   0  0  0  0  0  0  0  0  0  0  0  0
    7.4065   -7.7863   15.4874 F   0  0  0  0  0  0  0  0  0  0  0  0
   10.1358   -5.3702   19.2767 P   0  0  0  0  0  0  0  0  0  0  0  0
    7.0594   -8.2549   18.0781 C   0  0  0  0  0  0  0  0  0  0  0  0
   10.2992   -2.5886   24.7531 Br  0  0  0  0  0  0  0  0  0  0  0  0
   10.4314   -3.3520   17.7522 N   0  0  0  0  0  0  0  0  0  0  0  0
    9.8043   -4.3957   18.7587 C   0  0  0  0  0  0  0  0  0  0  0  0
   10.9839   -4.9353   23.0900 C   0  0  0  0  0  0  0  0  0  0  0  0
    6.1877   -7.0383   16.4238 C   0  0  0  0  0  0  0  0  0  0  0  0
   10.7535   -3.5285   25.3217 He  0  0  0  0  0  0  0  0  0  0  0  0
    8.3327   -7.5079   16.8357 He  0  0  0  0  0  0  0  0  0  0  0  0
    6.3849   -8.5030   17.1058 He  0  0  0  0  0  0  0  0  0  0  0  0
    9.8603   -5.2210   17.2036 He  0  0  0  0  0  0  0  0  0  0  0  0
    5.3109   -7.7423   18.0085 He  0  0  0  0  0  0  0  0  0  0  0  0
  1  6  1  0
  1  9  4  0
  1 10  4  0
  1 14  3  0
  1 17  4  0
  2  3  4  0
  2  8  1  0
  2 12  2  0
  2 13  2  0
  2 16  3  0
  2 17  4  0
  2 18  3  0
  2 21  2  0
  3  9  4  0
  3 14  4  0
  3 15  3  0
  3 19  4  0
  4  5  3  0
  4  7  2  0
  4  9  1  0
  4 11  4  0
  4 13  1  0
  4 17  4  0
  5  6  3  0
  5  9  3  0
  5 18  4  0
  6  7  2  0
  6 14  2  0
  6 19  4  0
  6 20  4  0
  7  9  3  0
  7 17  4  0
  7 18  3  0
  7 20  3  0
  8 12  1  0
  8 20  4  0
  9 12  2  0
 10 13  3  0
 10 19  1  0
 10 21  1  0
 11 15  4  0
 11 18  3  0
 11 20  4  0
 12 14  3  0
 12 20  2  0
 13 15  3  0
 13 19  1  0
 14 21  1  0
M  END
$$$$

 Created by Python create_sdf_string function

 26 32  0  0  0  0  0  0  0  0999 V2000
   10.9976   -4.0603   21.1153 C   0  0  0  0  0  0  0  0  0  0  0  0
    7.3801   -6.0873   16.3198 C   0  0  0  0  0  0  0  0  0  0  0  0
   10.6580   -3.8374   18.6546 C   0  0  0  0  0  0  0  0  0  0  0  0
   10.6114   -3.3291   25.2195 C   0  0  0  0  0  0  0  0  0  0  0  0
    4.5306   -8.4773   15.7901 C   0  0  0  0  0  0  0  0  0  0  0  0
    9.7365   -4.3450   16.6228 C   0  0  0  0  0  0  0  0  0  0  0  0
    8.5844   -7.7246   17.3726 C   0  0  0  0  0  0  0  0  0  0  0  0
   10.9945   -3.7314   22.5248 C   0  0  0  0  0  0  0  0  0  0  0  0
    6.6439   -8.4111   16.9232 C   0  0  0  0  0  0  0  0  0  0  0  0
   10.5336   -2.5689   22.9882 N   0  0  0  0  0  0  0  0  0  0  0  0
   11.0772   -4.4231   24.8403 N   0  0  0  0  0  0  0  0  0  0  0  0
   11.0039   -3.2808   19.9138 C   0  0  0  0  0  0  0  0  0  0  0  0
    5.2851   -7.3328   15.4199 C   0  0  0  0  0  0  0  0  0  0  0  0
   10.8856   -5.4367   20.8397 C   0  0  0  0  0  0  0  0  0  0  0  0
    8.8876   -6.5792   17.0607 C   0  0  0  0  0  0  0  0  0  0  0  0
    4.3855   -8.6258   17.0554 C   0  0  0  0  0  0  0  0  0  0  0  0
    7.2389   -8.3333   15.6922 C   0  0  0  0  0  0  0  0  0  0  0  0
    9.5168   -5.4603   17.3842 C   0  0  0  0  0  0  0  0  0  0  0  0
   10.3526   -5.8665   19.7599 C   0  0  0  0  0  0  0  0  0  0  0  0
    7.0662   -8.1388   18.0216 C   0  0  0  0  0  0  0  0  0  0  0  0
   10.3406   -2.4114   24.3550 C   0  0  0  0  0  0  0  0  0  0  0  0
    5.6214   -8.1856   17.8325 C   0  0  0  0  0  0  0  0  0  0  0  0
   10.5172   -3.3921   17.3553 N   0  0  0  0  0  0  0  0  0  0  0  0
   10.1664   -5.1107   18.6363 C   0  0  0  0  0  0  0  0  0  0  0  0
   11.3187   -4.6710   23.5099 C   0  0  0  0  0  0  0  0  0  0  0  0
    6.5271   -7.1739   15.9429 C   0  0  0  0  0  0  0  0  0  0  0  0
  1  8  1  0
  1 12  4  0
  1 14  4  0
  2 15  1  0
  2 26  1  0
  3 12  4  0
  3 23  4  0
  3 24  4  0
  4 11  4  0
  4 21  4  0
  5 13  1  0
  5 16  1  0
  6 18  4  0
  6 23  4  0
  7 15  1  0
  7 20  1  0
  8 10  4  0
  8 25  4  0
  9 17  1  0
  9 20  1  0
  9 22  1  0
  9 26  1  0
 10 21  4  0
 11 25  4  0
 13 26  1  0
 14 19  4  0
 15 18  1  0
 16 22  1  0
 17 26  1  0
 18 24  4  0
 19 24  4  0
 20 22  1  0
M  END
$$$$

 Created by Python create_sdf_string function

 26 51  0  0  0  0  0  0  0  0999 V2000
   10.9260   -3.4445   21.9019 C   0  0  0  0  0  0  0  0  0  0  0  0
   10.4823   -3.9461   19.3718 O   0  0  0  0  0  0  0  0  0  0  0  0
   10.6405   -2.7955   24.6670 B   0  0  0  0  0  0  0  0  0  0  0  0
    9.6418   -3.8556   16.5590 C   0  0  0  0  0  0  0  0  0  0  0  0
    9.0901   -7.5951   17.2080 C   0  0  0  0  0  0  0  0  0  0  0  0
    6.7165   -8.8575   17.0909 C   0  0  0  0  0  0  0  0  0  0  0  0
   11.1382   -1.8781   22.8427 N   0  0  0  0  0  0  0  0  0  0  0  0
   10.1988   -4.4667   24.7647 N   0  0  0  0  0  0  0  0  0  0  0  0
   11.0306   -3.9062   20.2010 C   0  0  0  0  0  0  0  0  0  0  0  0
   10.6440   -5.2743   20.7236 C   0  0  0  0  0  0  0  0  0  0  0  0
    8.9727   -6.4455   16.7772 C   0  0  0  0  0  0  0  0  0  0  0  0
    4.8182   -8.5786   17.1341 C   0  0  0  0  0  0  0  0  0  0  0  0
    6.8371   -7.5505   16.5037 C   0  0  0  0  0  0  0  0  0  0  0  0
    9.0367   -5.0274   17.6303 C   0  0  0  0  0  0  0  0  0  0  0  0
   10.3363   -5.9802   19.9338 C   0  0  0  0  0  0  0  0  0  0  0  0
    6.5292   -7.9587   17.8920 C   0  0  0  0  0  0  0  0  0  0  0  0
   10.6111   -2.6334   23.4640 C   0  0  0  0  0  0  0  0  0  0  0  0
    6.2119   -8.5919   17.6191 C   0  0  0  0  0  0  0  0  0  0  0  0
   11.0347   -3.6896   18.3167 F   0  0  0  0  0  0  0  0  0  0  0  0
   10.6234   -5.0167   23.8853 C   0  0  0  0  0  0  0  0  0  0  0  0
    6.5011   -7.4849   15.8612 C   0  0  0  0  0  0  0  0  0  0  0  0
    6.9104   -6.3698   16.5656 He  0  0  0  0  0  0  0  0  0  0  0  0
    4.2739   -7.8614   16.2789 He  0  0  0  0  0  0  0  0  0  0  0  0
   10.1765   -3.5908   23.1469 He  0  0  0  0  0  0  0  0  0  0  0  0
    4.8470   -6.7822   15.3561 He  0  0  0  0  0  0  0  0  0  0  0  0
   11.2964   -4.7500   18.4448 He  0  0  0  0  0  0  0  0  0  0  0  0
  1  9  4  0
  1 10  4  0
  2  4  4  0
  2  6  1  0
  2 13  2  0
  2 15  2  0
  2 18  1  0
  2 21  3  0
  3  6  4  0
  3  7  3  0
  3 17  4  0
  3 20  2  0
  3 21  1  0
  4  5  3  0
  4  6  4  0
  4 11  4  0
  4 14  4  0
  4 19  4  0
  5  6  2  0
  5 11  1  0
  5 12  2  0
  5 13  1  0
  5 15  4  0
  5 16  1  0
  6 16  3  0
  6 18  2  0
  7  9  2  0
  7 14  2  0
  7 17  2  0
  7 18  1  0
  8 12  1  0
  9 13  4  0
 10 15  4  0
 10 18  2  0
 10 21  4  0
 11 14  1  0
 11 16  3  0
 11 20  3  0
 12 18  2  0
 12 19  2  0
 12 21  4  0
 13 15  2  0
 13 17  4  0
 13 18  2  0
 13 21  1  0
 14 16  3  0
 15 16  2  0
 15 19  3  0
 16 21  3  0
 18 19  3  0
 19 20  2  0
M  END
$$$$

 Created by Python create_sdf_string function

 26 33  0  0  0  0  0  0  0  0999 V2000
   10.9274   -4.0966   21.4088 C   0  0  0  0  0  0  0  0  0  0  0  0
    7.5534   -6.2241   16.1365 C   0  0  0  0  0  0  0  0  0  0  0  0
   10.6761   -3.8531   18.8517 C   0  0  0  0  0  0  0  0  0  0  0  0
   10.3794   -2.8555   25.1646 C   0  0  0  0  0  0  0  0  0  0  0  0
    4.2426   -7.9250   16.2811 C   0  0  0  0  0  0  0  0  0  0  0  0
    9.8882   -4.1273   16.7591 C   0  0  0  0  0  0  0  0  0  0  0  0
    8.5173   -7.5812   17.4976 C   0  0  0  0  0  0  0  0  0  0  0  0
   10.8285   -3.6690   22.7709 C   0  0  0  0  0  0  0  0  0  0  0  0
    6.8799   -8.8409   16.9169 C   0  0  0  0  0  0  0  0  0  0  0  0
   10.7326   -2.3284   23.0089 N   0  0  0  0  0  0  0  0  0  0  0  0
   10.5809   -4.0861   25.0430 N   0  0  0  0  0  0  0  0  0  0  0  0
   10.9789   -3.2889   20.1225 C   0  0  0  0  0  0  0  0  0  0  0  0
    5.0583   -7.0954   15.4878 C   0  0  0  0  0  0  0  0  0  0  0  0
   10.7736   -5.4160   21.0811 C   0  0  0  0  0  0  0  0  0  0  0  0
    8.7528   -6.3293   16.9796 C   0  0  0  0  0  0  0  0  0  0  0  0
    4.6992   -8.5948   17.1753 C   0  0  0  0  0  0  0  0  0  0  0  0
    7.1372   -7.6113   16.2569 C   0  0  0  0  0  0  0  0  0  0  0  0
    9.6274   -5.2869   17.4352 C   0  0  0  0  0  0  0  0  0  0  0  0
   10.3637   -5.8282   19.7263 C   0  0  0  0  0  0  0  0  0  0  0  0
    6.9104   -8.0438   18.0483 C   0  0  0  0  0  0  0  0  0  0  0  0
   10.4893   -1.9492   24.2751 C   0  0  0  0  0  0  0  0  0  0  0  0
    5.8767   -8.5967   17.6730 C   0  0  0  0  0  0  0  0  0  0  0  0
   10.6154   -3.2232   17.6081 N   0  0  0  0  0  0  0  0  0  0  0  0
   10.2151   -5.0689   18.6911 C   0  0  0  0  0  0  0  0  0  0  0  0
   10.8329   -4.5402   23.8433 C   0  0  0  0  0  0  0  0  0  0  0  0
    6.3227   -7.3412   15.7101 C   0  0  0  0  0  0  0  0  0  0  0  0
  1  8  1  0
  1 12  4  0
  1 14  4  0
  2 15  1  0
  2 17  1  0
  2 26  1  0
  3 12  4  0
  3 23  4  0
  3 24  4  0
  4 11  4  0
  4 21  4  0
  5 13  1  0
  5 16  1  0
  6 18  4  0
  6 23  4  0
  7 15  1  0
  7 17  1  0
  7 20  1  0
  8 10  4  0
  8 25  4  0
  9 17  1  0
  9 20  1  0
  9 22  1  0
 10 21  4  0
 11 25  4  0
 13 26  1  0
 14 19  4  0
 15 18  1  0
 16 22  1  0
 17 26  1  0
 18 24  4  0
 19 24  4  0
 20 22  1  0
M  END
$$$$

 Created by Python create_sdf_string function

 26 53  0  0  0  0  0  0  0  0999 V2000
   10.5828   -4.3690   20.6423 C   0  0  0  0  0  0  0  0  0  0  0  0
    7.7632   -6.1515   16.0028 C   0  0  0  0  0  0  0  0  0  0  0  0
   11.0276   -4.5775   18.3782 C   0  0  0  0  0  0  0  0  0  0  0  0
    3.9312   -8.5423   17.2876 P   0  0  0  0  0  0  0  0  0  0  0  0
    9.3580   -3.0870   16.7114 Cl  0  0  0  0  0  0  0  0  0  0  0  0
   11.2839   -3.0705   22.7775 C   0  0  0  0  0  0  0  0  0  0  0  0
    6.7059   -9.6462   17.0134 Cl  0  0  0  0  0  0  0  0  0  0  0  0
   10.2272   -3.5762   25.1288 N   0  0  0  0  0  0  0  0  0  0  0  0
   11.6101   -3.4348   19.9269 C   0  0  0  0  0  0  0  0  0  0  0  0
    5.3559   -6.7783   14.8441 C   0  0  0  0  0  0  0  0  0  0  0  0
   11.5859   -4.9848   20.7187 C   0  0  0  0  0  0  0  0  0  0  0  0
    9.2985   -6.8264   16.3943 S   0  0  0  0  0  0  0  0  0  0  0  0
    6.8900   -7.7960   17.2459 S   0  0  0  0  0  0  0  0  0  0  0  0
    9.7015   -5.3047   17.2486 C   0  0  0  0  0  0  0  0  0  0  0  0
    9.8733   -5.5985   19.4125 C   0  0  0  0  0  0  0  0  0  0  0  0
    6.7830   -8.3806   18.0152 C   0  0  0  0  0  0  0  0  0  0  0  0
   10.6650   -1.4810   24.4657 C   0  0  0  0  0  0  0  0  0  0  0  0
    5.8617   -8.2503   16.8599 F   0  0  0  0  0  0  0  0  0  0  0  0
   10.4626   -3.4306   17.1655 S   0  0  0  0  0  0  0  0  0  0  0  0
    9.9966   -5.3897   18.1363 C   0  0  0  0  0  0  0  0  0  0  0  0
   10.8214   -4.5423   24.4313 F   0  0  0  0  0  0  0  0  0  0  0  0
    6.5365   -7.1998   14.7905 C   0  0  0  0  0  0  0  0  0  0  0  0
    9.9555   -2.3651   24.9961 He  0  0  0  0  0  0  0  0  0  0  0  0
    8.8183   -7.5185   16.9540 He  0  0  0  0  0  0  0  0  0  0  0  0
   10.2671   -2.2406   22.7917 He  0  0  0  0  0  0  0  0  0  0  0  0
    4.8244   -7.7701   18.0918 He  0  0  0  0  0  0  0  0  0  0  0  0
  1  2  4  0
  1  4  2  0
  1  6  1  0
  1  9  4  0
  1 11  4  0
  2 17  1  0
  2 22  1  0
  3  4  1  0
  3  5  3  0
  3  7  4  0
  3  9  4  0
  3 20  4  0
  3 22  1  0
  4  5  4  0
  4  6  4  0
  4 10  1  0
  4 17  4  0
  5 11  2  0
  5 12  2  0
  5 14  4  0
  5 19  4  0
  6  7  1  0
  6  9  2  0
  6 10  1  0
  6 14  2  0
  6 21  4  0
  6 22  3  0
  7 10  3  0
  7 11  3  0
  7 13  1  0
  7 15  2  0
  7 16  1  0
  7 18  1  0
  7 22  2  0
  8 12  2  0
  8 13  1  0
  8 16  2  0
  8 22  2  0
 10 18  1  0
 10 22  1  0
 11 15  3  0
 12 14  1  0
 13 16  4  0
 13 22  1  0
 14 20  4  0
 15 16  2  0
 15 18  4  0
 15 19  2  0
 15 20  4  0
 15 22  3  0
 16 17  4  0
 16 18  1  0
 18 22  3  0
M  END
$$$$

 Created by Python create_sdf_string function

 26 32  0  0  0  0  0  0  0  0999 V2000
   10.9076   -4.0376   21.1065 C   0  0  0  0  0  0  0  0  0  0  0  0
    7.7739   -6.0709   15.7025 C   0  0  0  0  0  0  0  0  0  0  0  0
   10.6892   -3.8459   18.6563 C   0  0  0  0  0  0  0  0  0  0  0  0
   10.1145   -2.5056   24.9438 C   0  0  0  0  0  0  0  0  0  0  0  0
    3.7881   -8.6067   16.9614 N   0  0  0  0  0  0  0  0  0  0  0  0
    9.8645   -4.0748   16.4790 C   0  0  0  0  0  0  0  0  0  0  0  0
    8.8481   -7.6414   17.1826 C   0  0  0  0  0  0  0  0  0  0  0  0
   10.8336   -3.4938   22.4606 C   0  0  0  0  0  0  0  0  0  0  0  0
    6.6821   -9.1712   16.7862 C   0  0  0  0  0  0  0  0  0  0  0  0
   10.6482   -2.1602   22.6819 C   0  0  0  0  0  0  0  0  0  0  0  0
   10.4400   -3.7775   24.8797 N   0  0  0  0  0  0  0  0  0  0  0  0
   11.0327   -3.2694   19.9128 C   0  0  0  0  0  0  0  0  0  0  0  0
    5.6230   -7.3050   15.4562 C   0  0  0  0  0  0  0  0  0  0  0  0
   10.7371   -5.3843   20.9149 C   0  0  0  0  0  0  0  0  0  0  0  0
    8.8978   -6.2728   16.5952 C   0  0  0  0  0  0  0  0  0  0  0  0
    4.4892   -8.1055   17.4049 C   0  0  0  0  0  0  0  0  0  0  0  0
    7.4652   -8.0011   16.9615 C   0  0  0  0  0  0  0  0  0  0  0  0
    9.6326   -5.2719   17.1750 C   0  0  0  0  0  0  0  0  0  0  0  0
   10.4065   -5.9535   19.6349 C   0  0  0  0  0  0  0  0  0  0  0  0
    6.7213   -8.0844   17.9489 C   0  0  0  0  0  0  0  0  0  0  0  0
   10.1581   -1.6548   23.9205 C   0  0  0  0  0  0  0  0  0  0  0  0
    5.4353   -8.1801   16.7181 C   0  0  0  0  0  0  0  0  0  0  0  0
   10.5731   -3.2315   17.3677 N   0  0  0  0  0  0  0  0  0  0  0  0
   10.2714   -5.0813   18.5396 C   0  0  0  0  0  0  0  0  0  0  0  0
   10.7913   -4.2708   23.6720 C   0  0  0  0  0  0  0  0  0  0  0  0
    7.0027   -7.3129   15.5067 C   0  0  0  0  0  0  0  0  0  0  0  0
  1  8  1  0
  1 12  4  0
  1 14  4  0
  2 15  1  0
  2 26  1  0
  3 12  4  0
  3 23  4  0
  3 24  4  0
  4 11  4  0
  4 21  4  0
  5 16  1  0
  6 18  4  0
  6 23  4  0
  7 15  1  0
  7 17  1  0
  8 10  4  0
  8 25  4  0
  9 17  1  0
  9 20  1  0
  9 22  1  0
 10 21  4  0
 11 25  4  0
 13 22  1  0
 13 26  1  0
 14 19  4  0
 15 18  1  0
 16 22  1  0
 17 20  1  0
 17 26  1  0
 18 24  4  0
 19 24  4  0
 20 22  1  0
M  END
$$$$

 Created by Python create_sdf_string function

 26 51  0  0  0  0  0  0  0  0999 V2000
    8.0067   -5.5588   14.8890 C   0  0  0  0  0  0  0  0  0  0  0  0
   10.3841   -3.5396   19.0776 C   0  0  0  0  0  0  0  0  0  0  0  0
    3.8876   -8.4664   17.1632 N   0  0  0  0  0  0  0  0  0  0  0  0
    8.9050   -7.1639   16.9594 F   0  0  0  0  0  0  0  0  0  0  0  0
   11.2099   -3.6041   22.1068 C   0  0  0  0  0  0  0  0  0  0  0  0
    6.6482   -8.7748   17.1071 N   0  0  0  0  0  0  0  0  0  0  0  0
   10.3694   -2.4491   21.9784 C   0  0  0  0  0  0  0  0  0  0  0  0
   11.1732   -3.3744   24.8551 N   0  0  0  0  0  0  0  0  0  0  0  0
   11.3080   -3.3564   20.0219 C   0  0  0  0  0  0  0  0  0  0  0  0
    6.1635   -7.4251   15.3477 F   0  0  0  0  0  0  0  0  0  0  0  0
   10.9872   -5.5082   21.2069 C   0  0  0  0  0  0  0  0  0  0  0  0
    9.0460   -6.5732   16.4846 C   0  0  0  0  0  0  0  0  0  0  0  0
    4.3753   -7.9536   17.2048 C   0  0  0  0  0  0  0  0  0  0  0  0
    7.9035   -8.4393   16.4148 C   0  0  0  0  0  0  0  0  0  0  0  0
    9.7585   -5.7309   16.9059 C   0  0  0  0  0  0  0  0  0  0  0  0
   10.2735   -5.5984   20.0185 C   0  0  0  0  0  0  0  0  0  0  0  0
    6.8911   -7.7809   18.2287 C   0  0  0  0  0  0  0  0  0  0  0  0
    9.9730   -1.2570   23.5062 C   0  0  0  0  0  0  0  0  0  0  0  0
    5.2682   -8.4230   16.4016 C   0  0  0  0  0  0  0  0  0  0  0  0
   10.3990   -3.2201   17.0949 P   0  0  0  0  0  0  0  0  0  0  0  0
   10.2667   -4.8443   17.9704 C   0  0  0  0  0  0  0  0  0  0  0  0
   10.9834   -4.1304   23.5684 Br  0  0  0  0  0  0  0  0  0  0  0  0
    6.9556   -7.3490   15.8398 C   0  0  0  0  0  0  0  0  0  0  0  0
   11.1812   -3.6572   21.9916 He  0  0  0  0  0  0  0  0  0  0  0  0
    9.9828   -2.0883   24.6911 He  0  0  0  0  0  0  0  0  0  0  0  0
   10.5901   -4.2219   16.2659 He  0  0  0  0  0  0  0  0  0  0  0  0
  1 18  4  0
  1 21  4  0
  1 23  1  0
  2  3  2  0
  2  9  4  0
  2 20  4  0
  2 21  4  0
  2 23  4  0
  3  4  3  0
  3  5  3  0
  3 12  1  0
  3 13  1  0
  3 14  1  0
  4  7  4  0
  4 11  2  0
  4 14  1  0
  4 21  1  0
  4 22  4  0
  5  7  4  0
  5  9  2  0
  5 14  4  0
  5 16  1  0
  5 18  2  0
  6 13  1  0
  6 14  2  0
  6 17  1  0
  6 21  2  0
  6 22  4  0
  7  9  2  0
  7 16  3  0
  7 18  4  0
  8 22  4  0
  9 11  2  0
  9 13  1  0
 10 19  1  0
 10 23  1  0
 11 12  4  0
 11 16  4  0
 12 15  1  0
 12 16  3  0
 13 19  1  0
 14 15  1  0
 14 16  3  0
 14 17  1  0
 15 21  4  0
 16 21  4  0
 17 18  1  0
 17 19  3  0
 17 21  1  0
 18 19  4  0
 18 21  4  0
M  END
$$$$

 Created by Python create_sdf_string function

 26 30  0  0  0  0  0  0  0  0999 V2000
   10.9022   -4.0135   21.0974 C   0  0  0  0  0  0  0  0  0  0  0  0
    8.0758   -5.9814   15.5486 C   0  0  0  0  0  0  0  0  0  0  0  0
   10.7660   -3.7725   18.6214 C   0  0  0  0  0  0  0  0  0  0  0  0
   10.2093   -2.2767   24.8627 C   0  0  0  0  0  0  0  0  0  0  0  0
    3.7305   -8.5948   17.3007 N   0  0  0  0  0  0  0  0  0  0  0  0
   10.1242   -4.0580   16.4815 C   0  0  0  0  0  0  0  0  0  0  0  0
    9.0413   -7.5678   17.0319 C   0  0  0  0  0  0  0  0  0  0  0  0
   10.8175   -3.3957   22.3787 C   0  0  0  0  0  0  0  0  0  0  0  0
    6.2213   -8.6715   17.2217 N   0  0  0  0  0  0  0  0  0  0  0  0
   10.4109   -2.0941   22.5614 C   0  0  0  0  0  0  0  0  0  0  0  0
   10.7356   -3.4764   24.8291 N   0  0  0  0  0  0  0  0  0  0  0  0
   11.0155   -3.1880   19.9009 C   0  0  0  0  0  0  0  0  0  0  0  0
    5.9336   -7.3374   15.2630 C   0  0  0  0  0  0  0  0  0  0  0  0
   10.7691   -5.3477   20.8719 C   0  0  0  0  0  0  0  0  0  0  0  0
    9.0789   -6.2802   16.5691 C   0  0  0  0  0  0  0  0  0  0  0  0
    4.5631   -8.2255   17.0101 C   0  0  0  0  0  0  0  0  0  0  0  0
    7.7393   -8.0077   16.7252 C   0  0  0  0  0  0  0  0  0  0  0  0
    9.7816   -5.2697   17.1349 C   0  0  0  0  0  0  0  0  0  0  0  0
   10.4189   -5.8593   19.5992 C   0  0  0  0  0  0  0  0  0  0  0  0
    6.9255   -8.0970   17.8806 C   0  0  0  0  0  0  0  0  0  0  0  0
   10.0371   -1.5430   23.7512 C   0  0  0  0  0  0  0  0  0  0  0  0
    5.3497   -8.3420   16.0974 C   0  0  0  0  0  0  0  0  0  0  0  0
   10.7545   -3.2050   17.3486 N   0  0  0  0  0  0  0  0  0  0  0  0
   10.3112   -5.0188   18.5338 C   0  0  0  0  0  0  0  0  0  0  0  0
   11.0404   -4.0553   23.6627 C   0  0  0  0  0  0  0  0  0  0  0  0
    7.2050   -7.2074   15.5543 C   0  0  0  0  0  0  0  0  0  0  0  0
  1  8  1  0
  1 12  4  0
  1 14  4  0
  2 15  1  0
  2 26  1  0
  3 12  4  0
  3 23  4  0
  3 24  4  0
  4 11  4  0
  4 21  4  0
  5 16  1  0
  6 18  4  0
  6 23  4  0
  7 15  1  0
  7 17  1  0
  8 10  4  0
  8 25  4  0
  9 20  1  0
  9 22  1  0
 10 21  4  0
 11 25  4  0
 13 22  1  0
 13 26  1  0
 14 19  4  0
 15 18  1  0
 16 22  1  0
 17 20  1  0
 17 26  1  0
 18 24  4  0
 19 24  4  0
M  END
$$$$

 Created by Python create_sdf_string function

 26 32  0  0  0  0  0  0  0  0999 V2000
   11.2195   -4.2445   19.2437 S   0  0  0  0  0  0  0  0  0  0  0  0
   10.3001   -2.0566   24.8433 C   0  0  0  0  0  0  0  0  0  0  0  0
    3.8171   -8.9556   17.3652 N   0  0  0  0  0  0  0  0  0  0  0  0
   10.3014   -4.3568   16.2099 C   0  0  0  0  0  0  0  0  0  0  0  0
    9.0264   -7.7352   17.2317 C   0  0  0  0  0  0  0  0  0  0  0  0
   10.5432   -4.1123   22.2935 C   0  0  0  0  0  0  0  0  0  0  0  0
    5.8767   -9.0997   16.7979 C   0  0  0  0  0  0  0  0  0  0  0  0
   10.3969   -2.7402   22.3240 C   0  0  0  0  0  0  0  0  0  0  0  0
   11.4493   -3.0236   24.7719 C   0  0  0  0  0  0  0  0  0  0  0  0
   10.6301   -5.8055   21.4662 C   0  0  0  0  0  0  0  0  0  0  0  0
    9.1760   -6.3624   16.3801 C   0  0  0  0  0  0  0  0  0  0  0  0
    9.7112   -4.7032   17.1555 F   0  0  0  0  0  0  0  0  0  0  0  0
    9.9832   -1.2826   24.0234 C   0  0  0  0  0  0  0  0  0  0  0  0
    4.9877   -8.5287   16.7902 C   0  0  0  0  0  0  0  0  0  0  0  0
   10.5467   -3.4832   16.8458 N   0  0  0  0  0  0  0  0  0  0  0  0
   10.3891   -5.2075   18.7287 C   0  0  0  0  0  0  0  0  0  0  0  0
   11.1478   -4.3650   23.7420 C   0  0  0  0  0  0  0  0  0  0  0  0
    8.0211   -6.9736   15.7039 C   0  0  0  0  0  0  0  0  0  0  0  0
   10.9643   -3.6187   21.3858 He  0  0  0  0  0  0  0  0  0  0  0  0
    8.2932   -5.2712   15.4787 He  0  0  0  0  0  0  0  0  0  0  0  0
   11.0848   -3.4905   20.6251 He  0  0  0  0  0  0  0  0  0  0  0  0
    5.2889   -7.3107   14.2307 He  0  0  0  0  0  0  0  0  0  0  0  0
    5.0249   -8.3351   17.3863 He  0  0  0  0  0  0  0  0  0  0  0  0
    7.5648   -8.6100   17.0651 He  0  0  0  0  0  0  0  0  0  0  0  0
    9.9193   -5.3093   19.4038 He  0  0  0  0  0  0  0  0  0  0  0  0
    7.3831   -8.3791   17.9076 He  0  0  0  0  0  0  0  0  0  0  0  0
  1  7  2  0
  1 16  4  0
  1 18  1  0
  2  4  2  0
  2  9  4  0
  3  7  2  0
  3  8  4  0
  3 15  4  0
  4  9  2  0
  4 11  3  0
  4 12  3  0
  4 15  4  0
  4 17  1  0
  6  7  1  0
  6  8  4  0
  6 13  4  0
  6 17  4  0
  7  8  2  0
  7 10  3  0
  7 11  1  0
  7 14  1  0
  7 18  2  0
  8 11  2  0
  8 13  4  0
  8 17  4  0
  9 17  4  0
 10 15  2  0
 11 12  1  0
 11 15  2  0
 12 15  4  0
 12 16  4  0
 16 18  1  0
M  END
$$$$

 Created by Python create_sdf_string function

 26 30  0  0  0  0  0  0  0  0999 V2000
   10.8485   -4.1146   21.2485 C   0  0  0  0  0  0  0  0  0  0  0  0
    8.1762   -5.8651   15.7435 C   0  0  0  0  0  0  0  0  0  0  0  0
   10.8221   -3.7338   18.7297 C   0  0  0  0  0  0  0  0  0  0  0  0
   10.5055   -2.2537   25.0909 C   0  0  0  0  0  0  0  0  0  0  0  0
    3.6405   -8.7483   17.1892 N   0  0  0  0  0  0  0  0  0  0  0  0
   10.2184   -3.9354   16.2860 C   0  0  0  0  0  0  0  0  0  0  0  0
    9.0921   -7.3114   17.2807 C   0  0  0  0  0  0  0  0  0  0  0  0
   10.7897   -3.4841   22.5531 C   0  0  0  0  0  0  0  0  0  0  0  0
    6.1195   -9.2915   16.9195 C   0  0  0  0  0  0  0  0  0  0  0  0
   10.2075   -2.2687   22.7718 C   0  0  0  0  0  0  0  0  0  0  0  0
   11.0384   -3.4820   24.9735 C   0  0  0  0  0  0  0  0  0  0  0  0
   11.1080   -3.3246   20.1330 C   0  0  0  0  0  0  0  0  0  0  0  0
    5.8915   -7.4109   15.3766 C   0  0  0  0  0  0  0  0  0  0  0  0
   10.5724   -5.4120   21.0132 C   0  0  0  0  0  0  0  0  0  0  0  0
    9.1452   -6.0121   16.7341 C   0  0  0  0  0  0  0  0  0  0  0  0
    4.5124   -8.1027   17.1231 C   0  0  0  0  0  0  0  0  0  0  0  0
    7.8810   -7.9529   16.7664 C   0  0  0  0  0  0  0  0  0  0  0  0
    9.8945   -5.0552   17.2098 C   0  0  0  0  0  0  0  0  0  0  0  0
   10.3424   -5.8636   19.6645 C   0  0  0  0  0  0  0  0  0  0  0  0
    7.1262   -8.6153   17.5592 C   0  0  0  0  0  0  0  0  0  0  0  0
    9.9786   -1.6187   23.9715 C   0  0  0  0  0  0  0  0  0  0  0  0
    5.1894   -8.3168   16.4413 C   0  0  0  0  0  0  0  0  0  0  0  0
   10.7660   -3.5284   17.1215 N   0  0  0  0  0  0  0  0  0  0  0  0
   10.3456   -4.9612   18.5843 C   0  0  0  0  0  0  0  0  0  0  0  0
   11.1513   -4.0957   23.7696 C   0  0  0  0  0  0  0  0  0  0  0  0
    7.3682   -7.0708   15.6482 C   0  0  0  0  0  0  0  0  0  0  0  0
  1  8  1  0
  1 12  4  0
  1 14  4  0
  2 15  1  0
  2 26  1  0
  3 12  4  0
  3 23  4  0
  3 24  4  0
  4 11  4  0
  4 21  4  0
  5 16  1  0
  6 18  4  0
  6 23  4  0
  7 15  1  0
  7 17  1  0
  8 10  4  0
  8 25  4  0
  9 20  1  0
  9 22  1  0
 10 21  4  0
 11 25  4  0
 13 22  1  0
 13 26  1  0
 14 19  4  0
 15 18  1  0
 16 22  1  0
 17 20  1  0
 17 26  1  0
 18 24  4  0
 19 24  4  0
M  END
$$$$

 Created by Python create_sdf_string function

 26 38  0  0  0  0  0  0  0  0999 V2000
   11.0627   -4.3224   21.3001 C   0  0  0  0  0  0  0  0  0  0  0  0
    7.8802   -6.0663   15.9316 F   0  0  0  0  0  0  0  0  0  0  0  0
   11.3452   -3.7398   18.6766 C   0  0  0  0  0  0  0  0  0  0  0  0
   10.2228   -2.2306   25.4660 C   0  0  0  0  0  0  0  0  0  0  0  0
    9.8210   -3.4042   16.6466 C   0  0  0  0  0  0  0  0  0  0  0  0
    9.2883   -7.4376   18.1095 C   0  0  0  0  0  0  0  0  0  0  0  0
   10.6549   -3.9841   22.2551 C   0  0  0  0  0  0  0  0  0  0  0  0
    6.1879   -8.8758   16.8262 C   0  0  0  0  0  0  0  0  0  0  0  0
   10.8151   -2.1021   23.0074 C   0  0  0  0  0  0  0  0  0  0  0  0
   11.3399   -3.3547   24.7281 C   0  0  0  0  0  0  0  0  0  0  0  0
   10.9312   -5.8456   20.3957 C   0  0  0  0  0  0  0  0  0  0  0  0
    9.1334   -5.6624   16.5569 O   0  0  0  0  0  0  0  0  0  0  0  0
    4.5821   -8.3285   17.0544 C   0  0  0  0  0  0  0  0  0  0  0  0
    7.8883   -7.8119   17.0359 Se  0  0  0  0  0  0  0  0  0  0  0  0
    9.6429   -4.9530   17.0854 I   0  0  0  0  0  0  0  0  0  0  0  0
   10.4923   -5.6328   19.2969 N   0  0  0  0  0  0  0  0  0  0  0  0
    7.2293   -8.5435   17.7259 C   0  0  0  0  0  0  0  0  0  0  0  0
    4.8273   -8.0911   16.0519 C   0  0  0  0  0  0  0  0  0  0  0  0
   10.3397   -5.1618   18.5394 C   0  0  0  0  0  0  0  0  0  0  0  0
   11.2388   -4.1216   24.1130 C   0  0  0  0  0  0  0  0  0  0  0  0
    7.4860   -6.7757   15.2213 C   0  0  0  0  0  0  0  0  0  0  0  0
    3.7246   -8.7328   16.8738 He  0  0  0  0  0  0  0  0  0  0  0  0
   11.3281   -2.8759   20.5642 He  0  0  0  0  0  0  0  0  0  0  0  0
    5.9883   -7.9686   14.7940 He  0  0  0  0  0  0  0  0  0  0  0  0
   10.2309   -1.2378   23.5201 He  0  0  0  0  0  0  0  0  0  0  0  0
   10.8539   -3.7266   16.4676 He  0  0  0  0  0  0  0  0  0  0  0  0
  1  7  1  0
  1 11  4  0
  1 13  2  0
  1 19  4  0
  2  4  3  0
  2  9  1  0
  2 18  2  0
  2 21  1  0
  3 19  4  0
  3 21  1  0
  4 10  2  0
  5 10  3  0
  5 15  4  0
  6 12  1  0
  6 14  1  0
  6 16  4  0
  6 21  2  0
  7  9  4  0
  7 17  1  0
  7 20  4  0
  8 17  1  0
  8 18  1  0
  9 14  2  0
  9 15  2  0
  9 18  4  0
 10 21  2  0
 11 15  4  0
 11 16  4  0
 11 18  2  0
 12 15  3  0
 12 19  1  0
 13 15  1  0
 13 17  2  0
 13 18  1  0
 14 21  1  0
 15 19  4  0
 16 19  4  0
 16 20  3  0
M  END
$$$$

 Created by Python create_sdf_string function

 26 30  0  0  0  0  0  0  0  0999 V2000
   10.9778   -4.0728   21.1322 C   0  0  0  0  0  0  0  0  0  0  0  0
    8.0592   -5.8782   15.7672 N   0  0  0  0  0  0  0  0  0  0  0  0
   10.9363   -3.6693   18.6216 C   0  0  0  0  0  0  0  0  0  0  0  0
   10.4894   -2.3521   25.0061 C   0  0  0  0  0  0  0  0  0  0  0  0
    3.5312   -8.7247   16.8705 N   0  0  0  0  0  0  0  0  0  0  0  0
   10.1606   -3.8862   16.4109 C   0  0  0  0  0  0  0  0  0  0  0  0
    9.0108   -7.2477   17.5172 C   0  0  0  0  0  0  0  0  0  0  0  0
   10.9070   -3.5002   22.4644 C   0  0  0  0  0  0  0  0  0  0  0  0
    6.0522   -9.0404   17.0284 C   0  0  0  0  0  0  0  0  0  0  0  0
   10.4885   -2.2126   22.6651 C   0  0  0  0  0  0  0  0  0  0  0  0
   10.9009   -3.6192   24.9286 C   0  0  0  0  0  0  0  0  0  0  0  0
   11.2691   -3.2334   20.0291 C   0  0  0  0  0  0  0  0  0  0  0  0
    6.2359   -7.5009   15.2225 C   0  0  0  0  0  0  0  0  0  0  0  0
   10.6978   -5.3181   20.9146 C   0  0  0  0  0  0  0  0  0  0  0  0
    8.9315   -5.8762   16.8276 C   0  0  0  0  0  0  0  0  0  0  0  0
    4.5396   -8.3375   16.8382 C   0  0  0  0  0  0  0  0  0  0  0  0
    7.9385   -7.8559   16.9389 C   0  0  0  0  0  0  0  0  0  0  0  0
    9.7676   -4.9725   17.2294 N   0  0  0  0  0  0  0  0  0  0  0  0
   10.3752   -5.7944   19.5995 N   0  0  0  0  0  0  0  0  0  0  0  0
    7.0283   -8.5467   17.6265 C   0  0  0  0  0  0  0  0  0  0  0  0
   10.2040   -1.6100   23.8610 C   0  0  0  0  0  0  0  0  0  0  0  0
    5.3207   -8.2423   16.0019 C   0  0  0  0  0  0  0  0  0  0  0  0
   10.9752   -3.1805   17.2842 N   0  0  0  0  0  0  0  0  0  0  0  0
   10.3977   -4.8299   18.5355 C   0  0  0  0  0  0  0  0  0  0  0  0
   11.1153   -4.1996   23.7049 C   0  0  0  0  0  0  0  0  0  0  0  0
    7.4233   -7.1353   15.7113 C   0  0  0  0  0  0  0  0  0  0  0  0
  1  8  1  0
  1 12  4  0
  1 14  4  0
  2 15  1  0
  2 26  1  0
  3 12  4  0
  3 23  4  0
  3 24  4  0
  4 11  4  0
  4 21  4  0
  5 16  1  0
  6 18  4  0
  6 23  4  0
  7 15  1  0
  7 17  1  0
  8 10  4  0
  8 25  4  0
  9 20  1  0
  9 22  1  0
 10 21  4  0
 11 25  4  0
 13 22  1  0
 13 26  1  0
 14 19  4  0
 15 18  1  0
 16 22  1  0
 17 20  1  0
 17 26  1  0
 18 24  4  0
 19 24  4  0
M  END
$$$$

 Created by Python create_sdf_string function

 26 52  0  0  0  0  0  0  0  0999 V2000
   10.6906   -4.9536   21.5217 C   0  0  0  0  0  0  0  0  0  0  0  0
    8.2346   -5.5938   15.8346 N   0  0  0  0  0  0  0  0  0  0  0  0
   10.1240   -2.3264   25.1236 C   0  0  0  0  0  0  0  0  0  0  0  0
    9.8070   -3.7371   16.7066 C   0  0  0  0  0  0  0  0  0  0  0  0
    8.6725   -7.9442   17.4095 O   0  0  0  0  0  0  0  0  0  0  0  0
   10.8689   -3.0144   22.2077 C   0  0  0  0  0  0  0  0  0  0  0  0
    5.9637   -8.6639   16.7952 Cl  0  0  0  0  0  0  0  0  0  0  0  0
   10.3505   -2.4037   22.7665 C   0  0  0  0  0  0  0  0  0  0  0  0
   10.6961   -3.8878   24.4786 O   0  0  0  0  0  0  0  0  0  0  0  0
   11.5448   -2.5781   19.6533 C   0  0  0  0  0  0  0  0  0  0  0  0
    6.1991   -7.6814   16.1175 C   0  0  0  0  0  0  0  0  0  0  0  0
    9.4060   -5.9040   17.3202 C   0  0  0  0  0  0  0  0  0  0  0  0
    4.9197   -8.8742   16.9040 F   0  0  0  0  0  0  0  0  0  0  0  0
    7.8723   -7.6042   16.9692 C   0  0  0  0  0  0  0  0  0  0  0  0
   10.5693   -6.3770   19.3116 N   0  0  0  0  0  0  0  0  0  0  0  0
    7.7272   -8.3055   18.0800 C   0  0  0  0  0  0  0  0  0  0  0  0
   10.2682   -1.4663   23.5941 C   0  0  0  0  0  0  0  0  0  0  0  0
    5.4483   -7.7315   16.4358 C   0  0  0  0  0  0  0  0  0  0  0  0
   10.8005   -3.2002   17.7150 S   0  0  0  0  0  0  0  0  0  0  0  0
   10.9284   -4.8908   18.5352 C   0  0  0  0  0  0  0  0  0  0  0  0
   11.7680   -4.3334   23.5834 C   0  0  0  0  0  0  0  0  0  0  0  0
    7.1588   -6.5585   15.2696 N   0  0  0  0  0  0  0  0  0  0  0  0
   11.4166   -4.2657   18.8683 He  0  0  0  0  0  0  0  0  0  0  0  0
    3.1642   -8.8062   16.5746 He  0  0  0  0  0  0  0  0  0  0  0  0
   10.7951   -4.7727   20.8561 He  0  0  0  0  0  0  0  0  0  0  0  0
    9.7309   -4.8875   17.4773 He  0  0  0  0  0  0  0  0  0  0  0  0
  1  4  3  0
  1  5  4  0
  1 10  4  0
  2 12  1  0
  2 18  2  0
  2 22  1  0
  3  6  2  0
  3  9  4  0
  3 13  2  0
  3 14  4  0
  3 17  4  0
  4  8  1  0
  4 11  1  0
  4 15  4  0
  4 19  4  0
  4 20  4  0
  5 12  1  0
  5 20  1  0
  5 22  3  0
  6  8  4  0
  6 11  1  0
  6 17  3  0
  6 21  4  0
  6 22  3  0
  7 12  2  0
  7 13  1  0
  7 16  1  0
  7 18  1  0
  7 20  1  0
  8  9  2  0
  8 10  2  0
  8 17  4  0
  8 18  1  0
  8 19  3  0
  9 14  1  0
  9 21  4  0
 10 22  1  0
 11 18  1  0
 11 22  1  0
 12 20  1  0
 13 18  1  0
 13 21  1  0
 14 16  1  0
 14 21  2  0
 15 16  4  0
 15 19  3  0
 15 20  4  0
 15 22  1  0
 16 18  4  0
 16 19  1  0
 19 20  2  0
 19 21  1  0
M  END
$$$$

 Created by Python create_sdf_string function

 26 30  0  0  0  0  0  0  0  0999 V2000
   11.0179   -4.0602   21.1290 C   0  0  0  0  0  0  0  0  0  0  0  0
    8.0938   -5.6556   15.8072 N   0  0  0  0  0  0  0  0  0  0  0  0
   10.9242   -3.7293   18.8397 C   0  0  0  0  0  0  0  0  0  0  0  0
   10.2782   -2.5283   24.9491 C   0  0  0  0  0  0  0  0  0  0  0  0
    3.4896   -8.9186   16.7366 N   0  0  0  0  0  0  0  0  0  0  0  0
   10.1993   -3.8352   16.7634 C   0  0  0  0  0  0  0  0  0  0  0  0
    8.9291   -7.3244   17.2916 O   0  0  0  0  0  0  0  0  0  0  0  0
   10.8791   -3.5385   22.4384 C   0  0  0  0  0  0  0  0  0  0  0  0
    5.7936   -9.0958   17.5849 C   0  0  0  0  0  0  0  0  0  0  0  0
   10.4500   -2.2755   22.6504 C   0  0  0  0  0  0  0  0  0  0  0  0
   10.8502   -3.7225   24.8634 C   0  0  0  0  0  0  0  0  0  0  0  0
   11.3161   -3.2468   20.0388 N   0  0  0  0  0  0  0  0  0  0  0  0
    6.6488   -7.4334   16.0498 C   0  0  0  0  0  0  0  0  0  0  0  0
   10.8007   -5.4324   20.9767 C   0  0  0  0  0  0  0  0  0  0  0  0
    9.0517   -6.0164   16.8453 C   0  0  0  0  0  0  0  0  0  0  0  0
    4.7695   -8.8037   16.9871 N   0  0  0  0  0  0  0  0  0  0  0  0
    7.7050   -7.9063   16.9851 C   0  0  0  0  0  0  0  0  0  0  0  0
    9.8690   -5.0626   17.3734 C   0  0  0  0  0  0  0  0  0  0  0  0
   10.4719   -5.9834   19.7139 N   0  0  0  0  0  0  0  0  0  0  0  0
    7.0018   -8.5719   17.8251 C   0  0  0  0  0  0  0  0  0  0  0  0
   10.0326   -1.7655   23.8399 C   0  0  0  0  0  0  0  0  0  0  0  0
    5.2726   -7.7308   16.0931 C   0  0  0  0  0  0  0  0  0  0  0  0
   10.8906   -3.0741   17.7165 N   0  0  0  0  0  0  0  0  0  0  0  0
   10.3761   -5.0456   18.6560 C   0  0  0  0  0  0  0  0  0  0  0  0
   11.0808   -4.2556   23.6540 C   0  0  0  0  0  0  0  0  0  0  0  0
    7.2183   -6.6157   15.5078 C   0  0  0  0  0  0  0  0  0  0  0  0
  1  8  1  0
  1 12  4  0
  1 14  4  0
  2 15  1  0
  2 26  1  0
  3 12  4  0
  3 23  4  0
  3 24  4  0
  4 11  4  0
  4 21  4  0
  5 16  1  0
  6 18  4  0
  6 23  4  0
  7 15  1  0
  7 17  1  0
  8 10  4  0
  8 25  4  0
  9 16  1  0
  9 20  1  0
 10 21  4  0
 11 25  4  0
 13 17  1  0
 13 22  1  0
 13 26  1  0
 14 19  4  0
 15 18  1  0
 16 22  1  0
 17 20  1  0
 18 24  4  0
 19 24  4  0
M  END
$$$$

 Created by Python create_sdf_string function

 26 36  0  0  0  0  0  0  0  0999 V2000
   11.3509   -3.8487   21.4316 Cl  0  0  0  0  0  0  0  0  0  0  0  0
    7.9896   -5.1890   15.4330 N   0  0  0  0  0  0  0  0  0  0  0  0
   11.1824   -3.8884   19.0095 C   0  0  0  0  0  0  0  0  0  0  0  0
   10.3322   -1.9272   24.8036 C   0  0  0  0  0  0  0  0  0  0  0  0
    3.5817   -9.4160   17.0079 N   0  0  0  0  0  0  0  0  0  0  0  0
   10.0050   -3.3126   16.4531 P   0  0  0  0  0  0  0  0  0  0  0  0
    8.5147   -6.8822   17.5927 O   0  0  0  0  0  0  0  0  0  0  0  0
   10.6088   -1.9425   22.3362 C   0  0  0  0  0  0  0  0  0  0  0  0
   10.6407   -3.5729   24.3810 C   0  0  0  0  0  0  0  0  0  0  0  0
   11.1796   -2.9354   19.9856 N   0  0  0  0  0  0  0  0  0  0  0  0
    6.8753   -7.4254   15.9709 C   0  0  0  0  0  0  0  0  0  0  0  0
   10.5897   -5.2070   20.8099 C   0  0  0  0  0  0  0  0  0  0  0  0
    8.4452   -5.8002   16.5435 C   0  0  0  0  0  0  0  0  0  0  0  0
    4.5364   -8.4235   17.3106 N   0  0  0  0  0  0  0  0  0  0  0  0
    9.7836   -4.9049   17.1066 C   0  0  0  0  0  0  0  0  0  0  0  0
   10.2940   -6.2528   19.7270 F   0  0  0  0  0  0  0  0  0  0  0  0
    7.4379   -8.1413   17.1871 C   0  0  0  0  0  0  0  0  0  0  0  0
   10.4360   -2.1544   23.9010 C   0  0  0  0  0  0  0  0  0  0  0  0
    5.4067   -7.3734   15.7505 C   0  0  0  0  0  0  0  0  0  0  0  0
   11.4440   -3.2793   17.6407 N   0  0  0  0  0  0  0  0  0  0  0  0
   10.5986   -4.6965   19.0016 C   0  0  0  0  0  0  0  0  0  0  0  0
   11.2875   -4.3831   23.5945 N   0  0  0  0  0  0  0  0  0  0  0  0
    7.2254   -7.0460   15.6755 C   0  0  0  0  0  0  0  0  0  0  0  0
   10.0243   -3.0192   22.5368 He  0  0  0  0  0  0  0  0  0  0  0  0
    5.6584   -9.5448   17.6404 He  0  0  0  0  0  0  0  0  0  0  0  0
    7.5966   -7.6370   16.7866 He  0  0  0  0  0  0  0  0  0  0  0  0
  1  8  2  0
  1 12  2  0
  1 21  1  0
  2 13  1  0
  2 15  4  0
  2 20  1  0
  2 23  1  0
  3 11  1  0
  3 14  1  0
  3 20  4  0
  3 21  4  0
  4  9  4  0
  4 23  4  0
  5  9  3  0
  5 14  1  0
  5 20  4  0
  6 14  1  0
  6 18  3  0
  6 20  4  0
  6 21  2  0
  6 23  1  0
  7 13  1  0
  8 18  4  0
  9 22  4  0
 10 11  2  0
 10 14  2  0
 10 22  1  0
 11 15  2  0
 12 16  4  0
 12 17  2  0
 13 15  1  0
 14 19  1  0
 15 21  4  0
 16 19  3  0
 16 21  4  0
 17 22  1  0
M  END
$$$$

 Created by Python create_sdf_string function

 26 30  0  0  0  0  0  0  0  0999 V2000
   10.9430   -3.9458   21.1498 C   0  0  0  0  0  0  0  0  0  0  0  0
    8.0599   -5.4640   15.6099 N   0  0  0  0  0  0  0  0  0  0  0  0
   10.8881   -3.6443   18.8137 C   0  0  0  0  0  0  0  0  0  0  0  0
   10.3911   -2.3376   24.9521 C   0  0  0  0  0  0  0  0  0  0  0  0
    3.5218   -9.0616   16.9725 N   0  0  0  0  0  0  0  0  0  0  0  0
   10.2983   -3.7644   16.6588 C   0  0  0  0  0  0  0  0  0  0  0  0
    8.5402   -6.9671   17.3672 O   0  0  0  0  0  0  0  0  0  0  0  0
   10.8439   -3.4166   22.4773 C   0  0  0  0  0  0  0  0  0  0  0  0
    5.7726   -9.2019   17.6746 C   0  0  0  0  0  0  0  0  0  0  0  0
   10.5687   -2.0535   22.6649 C   0  0  0  0  0  0  0  0  0  0  0  0
   10.6846   -3.6416   24.8184 C   0  0  0  0  0  0  0  0  0  0  0  0
   11.1675   -3.1522   20.0321 N   0  0  0  0  0  0  0  0  0  0  0  0
    6.5990   -7.2707   15.9754 C   0  0  0  0  0  0  0  0  0  0  0  0
   10.6493   -5.3478   20.9061 C   0  0  0  0  0  0  0  0  0  0  0  0
    8.8105   -5.7861   16.7314 C   0  0  0  0  0  0  0  0  0  0  0  0
    4.7815   -8.5365   16.9802 C   0  0  0  0  0  0  0  0  0  0  0  0
    7.4619   -7.6622   17.0063 C   0  0  0  0  0  0  0  0  0  0  0  0
    9.7846   -4.8499   17.3161 C   0  0  0  0  0  0  0  0  0  0  0  0
   10.3032   -5.7781   19.5983 C   0  0  0  0  0  0  0  0  0  0  0  0
    7.0390   -8.8699   17.6745 C   0  0  0  0  0  0  0  0  0  0  0  0
   10.2318   -1.5612   23.8827 C   0  0  0  0  0  0  0  0  0  0  0  0
    5.2553   -7.6886   15.9466 C   0  0  0  0  0  0  0  0  0  0  0  0
   11.0274   -3.0024   17.6008 N   0  0  0  0  0  0  0  0  0  0  0  0
   10.3107   -4.8427   18.6141 C   0  0  0  0  0  0  0  0  0  0  0  0
   10.8776   -4.1607   23.6103 N   0  0  0  0  0  0  0  0  0  0  0  0
    7.1764   -6.4207   15.0974 C   0  0  0  0  0  0  0  0  0  0  0  0
  1  8  1  0
  1 12  4  0
  1 14  4  0
  2 15  1  0
  2 26  1  0
  3 12  4  0
  3 23  4  0
  3 24  4  0
  4 11  4  0
  4 21  4  0
  5 16  1  0
  6 18  4  0
  6 23  4  0
  7 15  1  0
  7 17  1  0
  8 10  4  0
  8 25  4  0
  9 16  1  0
  9 20  2  0
 10 21  4  0
 11 25  4  0
 13 17  2  0
 13 22  1  0
 13 26  1  0
 14 19  4  0
 15 18  1  0
 16 22  1  0
 17 20  1  0
 18 24  4  0
 19 24  4  0
M  END
$$$$

 Created by Python create_sdf_string function

 26 38  0  0  0  0  0  0  0  0999 V2000
   10.6175   -4.1490   20.9092 C   0  0  0  0  0  0  0  0  0  0  0  0
    7.8176   -5.5412   16.0033 N   0  0  0  0  0  0  0  0  0  0  0  0
   10.8228   -3.8460   18.7277 C   0  0  0  0  0  0  0  0  0  0  0  0
   10.9270   -2.1590   25.1383 C   0  0  0  0  0  0  0  0  0  0  0  0
    3.5731   -8.6711   16.8606 N   0  0  0  0  0  0  0  0  0  0  0  0
   10.4755   -3.4596   16.0674 C   0  0  0  0  0  0  0  0  0  0  0  0
    8.6926   -6.9111   17.6626 O   0  0  0  0  0  0  0  0  0  0  0  0
   10.6007   -3.4637   22.4129 C   0  0  0  0  0  0  0  0  0  0  0  0
    5.9422   -9.2188   17.0435 C   0  0  0  0  0  0  0  0  0  0  0  0
   10.8851   -1.7554   22.5753 C   0  0  0  0  0  0  0  0  0  0  0  0
   11.3595   -2.9766   20.5331 N   0  0  0  0  0  0  0  0  0  0  0  0
    7.0851   -7.2616   15.8478 C   0  0  0  0  0  0  0  0  0  0  0  0
    8.9111   -6.4041   17.1660 C   0  0  0  0  0  0  0  0  0  0  0  0
    4.9097   -8.6739   16.9769 C   0  0  0  0  0  0  0  0  0  0  0  0
    6.7723   -7.4356   17.0283 C   0  0  0  0  0  0  0  0  0  0  0  0
    9.4875   -5.0667   17.2598 C   0  0  0  0  0  0  0  0  0  0  0  0
   10.3080   -5.9051   19.8051 C   0  0  0  0  0  0  0  0  0  0  0  0
    6.7432   -9.1681   17.4469 C   0  0  0  0  0  0  0  0  0  0  0  0
    9.7512   -1.5071   23.5946 C   0  0  0  0  0  0  0  0  0  0  0  0
    5.4376   -8.0895   15.7994 C   0  0  0  0  0  0  0  0  0  0  0  0
   10.1564   -5.1945   18.6622 C   0  0  0  0  0  0  0  0  0  0  0  0
    7.5012   -6.1298   15.2932 C   0  0  0  0  0  0  0  0  0  0  0  0
   10.7274   -3.4113   25.0110 He  0  0  0  0  0  0  0  0  0  0  0  0
   10.3257   -5.4192   21.1038 He  0  0  0  0  0  0  0  0  0  0  0  0
   10.4837   -3.4866   17.9701 He  0  0  0  0  0  0  0  0  0  0  0  0
   10.6761   -3.8831   23.9203 He  0  0  0  0  0  0  0  0  0  0  0  0
  1  4  1  0
  1  9  4  0
  1 11  4  0
  1 13  2  0
  1 16  3  0
  1 18  2  0
  2  9  3  0
  2 13  1  0
  2 19  1  0
  2 22  1  0
  3 11  4  0
  3 19  4  0
  4  5  4  0
  4 13  3  0
  4 14  3  0
  4 19  4  0
  5 14  1  0
  6 16  4  0
  7 13  1  0
  7 15  1  0
  7 19  1  0
  8 10  4  0
  8 12  1  0
  8 21  3  0
  9 18  2  0
 10 19  4  0
 11 15  1  0
 11 17  2  0
 11 20  3  0
 12 15  2  0
 12 19  2  0
 12 20  1  0
 12 22  1  0
 13 16  1  0
 14 15  3  0
 14 20  2  0
 15 18  1  0
 16 21  4  0
M  END
$$$$

 Created by Python create_sdf_string function

 26 30  0  0  0  0  0  0  0  0999 V2000
   10.7724   -3.9602   21.2322 C   0  0  0  0  0  0  0  0  0  0  0  0
    8.0011   -5.4949   15.7770 N   0  0  0  0  0  0  0  0  0  0  0  0
   10.7573   -3.7172   18.8718 C   0  0  0  0  0  0  0  0  0  0  0  0
   10.3944   -2.1517   25.0436 C   0  0  0  0  0  0  0  0  0  0  0  0
    3.4324   -8.8574   16.7365 N   0  0  0  0  0  0  0  0  0  0  0  0
   10.2442   -3.8950   16.7225 C   0  0  0  0  0  0  0  0  0  0  0  0
    8.3547   -7.0660   17.5382 O   0  0  0  0  0  0  0  0  0  0  0  0
   10.7219   -3.3274   22.5554 C   0  0  0  0  0  0  0  0  0  0  0  0
    5.6391   -9.4249   17.3955 C   0  0  0  0  0  0  0  0  0  0  0  0
   10.4922   -1.9566   22.6982 C   0  0  0  0  0  0  0  0  0  0  0  0
   10.6482   -3.4660   24.9560 N   0  0  0  0  0  0  0  0  0  0  0  0
   10.9542   -3.1670   20.1173 N   0  0  0  0  0  0  0  0  0  0  0  0
    6.5995   -7.3310   15.9257 C   0  0  0  0  0  0  0  0  0  0  0  0
   10.5612   -5.3476   21.0948 C   0  0  0  0  0  0  0  0  0  0  0  0
    8.8278   -6.0152   16.8043 C   0  0  0  0  0  0  0  0  0  0  0  0
    4.7578   -8.7165   16.6095 C   0  0  0  0  0  0  0  0  0  0  0  0
    7.3069   -7.7518   17.1034 C   0  0  0  0  0  0  0  0  0  0  0  0
    9.8158   -5.0530   17.3907 C   0  0  0  0  0  0  0  0  0  0  0  0
   10.2642   -5.8731   19.8115 C   0  0  0  0  0  0  0  0  0  0  0  0
    6.8503   -8.9563   17.6446 C   0  0  0  0  0  0  0  0  0  0  0  0
   10.3607   -1.3669   23.9358 C   0  0  0  0  0  0  0  0  0  0  0  0
    5.3070   -7.8217   15.6995 C   0  0  0  0  0  0  0  0  0  0  0  0
   10.8902   -3.1068   17.6761 N   0  0  0  0  0  0  0  0  0  0  0  0
   10.2720   -4.9834   18.6965 C   0  0  0  0  0  0  0  0  0  0  0  0
   10.8437   -4.0477   23.7494 C   0  0  0  0  0  0  0  0  0  0  0  0
    7.2035   -6.3258   15.2284 C   0  0  0  0  0  0  0  0  0  0  0  0
  1  8  1  0
  1 12  4  0
  1 14  4  0
  2 15  1  0
  2 26  1  0
  3 12  4  0
  3 23  4  0
  3 24  4  0
  4 11  4  0
  4 21  4  0
  5 16  1  0
  6 18  4  0
  6 23  4  0
  7 15  1  0
  7 17  1  0
  8 10  4  0
  8 25  4  0
  9 16  1  0
  9 20  2  0
 10 21  4  0
 11 25  4  0
 13 17  2  0
 13 22  1  0
 13 26  1  0
 14 19  4  0
 15 18  1  0
 16 22  2  0
 17 20  1  0
 18 24  4  0
 19 24  4  0
M  END
$$$$

 Created by Python create_sdf_string function

 26 44  0  0  0  0  0  0  0  0999 V2000
   11.0327   -3.9032   21.3762 C   0  0  0  0  0  0  0  0  0  0  0  0
    7.8988   -6.3086   15.7519 N   0  0  0  0  0  0  0  0  0  0  0  0
   10.2135   -1.6415   25.1121 P   0  0  0  0  0  0  0  0  0  0  0  0
    3.6016   -8.2226   16.8998 N   0  0  0  0  0  0  0  0  0  0  0  0
   10.2854   -3.9861   16.2075 C   0  0  0  0  0  0  0  0  0  0  0  0
    8.4806   -6.8544   17.3188 O   0  0  0  0  0  0  0  0  0  0  0  0
   10.6045   -3.2903   22.4714 C   0  0  0  0  0  0  0  0  0  0  0  0
    5.1584   -9.2109   17.6138 C   0  0  0  0  0  0  0  0  0  0  0  0
   10.6082   -1.7490   22.8511 S   0  0  0  0  0  0  0  0  0  0  0  0
   10.7523   -3.1955   24.8053 N   0  0  0  0  0  0  0  0  0  0  0  0
    6.4958   -7.6924   16.1426 C   0  0  0  0  0  0  0  0  0  0  0  0
   10.7584   -5.0075   20.5078 C   0  0  0  0  0  0  0  0  0  0  0  0
    8.7406   -5.9820   16.8889 C   0  0  0  0  0  0  0  0  0  0  0  0
    4.7333   -8.5990   16.4110 C   0  0  0  0  0  0  0  0  0  0  0  0
    7.2119   -7.7157   17.2122 C   0  0  0  0  0  0  0  0  0  0  0  0
    9.6808   -5.2859   17.7350 C   0  0  0  0  0  0  0  0  0  0  0  0
   10.4053   -5.8257   19.0783 C   0  0  0  0  0  0  0  0  0  0  0  0
    6.9832   -8.7864   17.8135 C   0  0  0  0  0  0  0  0  0  0  0  0
   10.1212   -1.7034   23.8174 Se  0  0  0  0  0  0  0  0  0  0  0  0
   10.9849   -3.5088   17.5617 P   0  0  0  0  0  0  0  0  0  0  0  0
    9.8792   -5.0065   18.4165 C   0  0  0  0  0  0  0  0  0  0  0  0
   11.5046   -3.7544   23.9329 C   0  0  0  0  0  0  0  0  0  0  0  0
    7.0701   -6.6271   15.3205 C   0  0  0  0  0  0  0  0  0  0  0  0
   10.5987   -4.3971   18.4417 He  0  0  0  0  0  0  0  0  0  0  0  0
   11.1767   -3.4771   19.9486 He  0  0  0  0  0  0  0  0  0  0  0  0
    5.5329   -7.8450   16.0443 He  0  0  0  0  0  0  0  0  0  0  0  0
  1  3  4  0
  1  7  1  0
  1 12  4  0
  1 13  1  0
  2 17  2  0
  2 21  2  0
  3 10  4  0
  3 20  4  0
  4 14  1  0
  4 19  2  0
  5 16  4  0
  5 20  4  0
  5 22  3  0
  6  8  2  0
  6 13  1  0
  7  9  4  0
  7 13  2  0
  7 22  4  0
  8 14  1  0
  8 15  3  0
  8 16  2  0
  8 18  2  0
  9 19  4  0
  9 21  2  0
 10 11  3  0
 10 13  2  0
 10 20  4  0
 10 22  4  0
 11 15  2  0
 11 20  3  0
 11 23  1  0
 12 17  4  0
 12 23  3  0
 13 16  1  0
 13 17  4  0
 14 15  3  0
 14 22  3  0
 15 18  1  0
 16 18  4  0
 16 21  3  0
 17 20  4  0
 17 21  4  0
 18 23  1  0
 19 21  4  0
M  END
$$$$

 Created by Python create_sdf_string function

 26 30  0  0  0  0  0  0  0  0999 V2000
   10.9176   -3.8872   21.1762 C   0  0  0  0  0  0  0  0  0  0  0  0
    8.0714   -5.8180   15.5471 N   0  0  0  0  0  0  0  0  0  0  0  0
   10.8097   -3.7950   18.7173 C   0  0  0  0  0  0  0  0  0  0  0  0
   10.2727   -2.1289   24.9787 C   0  0  0  0  0  0  0  0  0  0  0  0
    3.2104   -8.6118   16.7830 N   0  0  0  0  0  0  0  0  0  0  0  0
   10.1782   -4.0673   16.5798 C   0  0  0  0  0  0  0  0  0  0  0  0
    8.3401   -7.1716   17.4692 O   0  0  0  0  0  0  0  0  0  0  0  0
   10.8587   -3.2794   22.4762 C   0  0  0  0  0  0  0  0  0  0  0  0
    5.2896   -9.1519   17.7607 C   0  0  0  0  0  0  0  0  0  0  0  0
   10.4155   -1.9698   22.5996 C   0  0  0  0  0  0  0  0  0  0  0  0
   10.8314   -3.3453   24.9037 N   0  0  0  0  0  0  0  0  0  0  0  0
   11.0838   -3.1890   19.9819 C   0  0  0  0  0  0  0  0  0  0  0  0
    6.4762   -7.4417   15.9924 C   0  0  0  0  0  0  0  0  0  0  0  0
   10.6467   -5.2521   20.9737 C   0  0  0  0  0  0  0  0  0  0  0  0
    8.7102   -6.0767   16.7259 C   0  0  0  0  0  0  0  0  0  0  0  0
    4.5285   -8.5516   16.7523 C   0  0  0  0  0  0  0  0  0  0  0  0
    7.1794   -7.7980   17.1626 C   0  0  0  0  0  0  0  0  0  0  0  0
    9.7283   -5.1419   17.2881 C   0  0  0  0  0  0  0  0  0  0  0  0
   10.2745   -5.8217   19.7163 C   0  0  0  0  0  0  0  0  0  0  0  0
    6.5439   -8.7834   17.9665 C   0  0  0  0  0  0  0  0  0  0  0  0
   10.0838   -1.4058   23.8450 C   0  0  0  0  0  0  0  0  0  0  0  0
    5.1901   -7.8842   15.8272 C   0  0  0  0  0  0  0  0  0  0  0  0
   10.8766   -3.2393   17.4528 N   0  0  0  0  0  0  0  0  0  0  0  0
   10.2667   -5.0469   18.6164 C   0  0  0  0  0  0  0  0  0  0  0  0
   11.0564   -3.9198   23.7344 C   0  0  0  0  0  0  0  0  0  0  0  0
    7.1239   -6.5538   15.1380 C   0  0  0  0  0  0  0  0  0  0  0  0
  1  8  1  0
  1 12  4  0
  1 14  4  0
  2 15  2  0
  2 26  2  0
  3 12  4  0
  3 23  4  0
  3 24  4  0
  4 11  4  0
  4 21  4  0
  5 16  1  0
  6 18  4  0
  6 23  4  0
  7 15  1  0
  7 17  1  0
  8 10  4  0
  8 25  4  0
  9 16  1  0
  9 20  2  0
 10 21  4  0
 11 25  4  0
 13 17  2  0
 13 22  1  0
 13 26  1  0
 14 19  4  0
 15 18  1  0
 16 22  2  0
 17 20  1  0
 18 24  4  0
 19 24  4  0
M  END
$$$$

 Created by Python create_sdf_string function

 26 43  0  0  0  0  0  0  0  0999 V2000
   11.6148   -3.8815   21.8133 C   0  0  0  0  0  0  0  0  0  0  0  0
    7.9336   -6.0613   16.0928 N   0  0  0  0  0  0  0  0  0  0  0  0
   10.5855   -3.1758   18.7944 C   0  0  0  0  0  0  0  0  0  0  0  0
    3.3182   -8.8807   16.9865 F   0  0  0  0  0  0  0  0  0  0  0  0
   10.3029   -3.7554   16.6944 N   0  0  0  0  0  0  0  0  0  0  0  0
    7.9538   -7.1772   17.1931 O   0  0  0  0  0  0  0  0  0  0  0  0
   10.9682   -2.9489   22.5319 C   0  0  0  0  0  0  0  0  0  0  0  0
    5.7683   -9.3573   18.1810 C   0  0  0  0  0  0  0  0  0  0  0  0
    9.9231   -2.5547   22.8799 C   0  0  0  0  0  0  0  0  0  0  0  0
   10.4705   -3.3430   25.1024 N   0  0  0  0  0  0  0  0  0  0  0  0
    6.1273   -7.7081   16.1155 C   0  0  0  0  0  0  0  0  0  0  0  0
   11.0305   -5.5296   21.1204 C   0  0  0  0  0  0  0  0  0  0  0  0
    8.6665   -5.6903   16.8132 C   0  0  0  0  0  0  0  0  0  0  0  0
    4.5005   -7.9513   16.1490 C   0  0  0  0  0  0  0  0  0  0  0  0
    7.1948   -7.0107   17.2683 C   0  0  0  0  0  0  0  0  0  0  0  0
    9.7259   -4.9930   17.1611 C   0  0  0  0  0  0  0  0  0  0  0  0
   10.6594   -6.0770   19.5781 C   0  0  0  0  0  0  0  0  0  0  0  0
    6.0482   -9.2018   17.9235 C   0  0  0  0  0  0  0  0  0  0  0  0
    9.3526   -0.9352   24.0177 C   0  0  0  0  0  0  0  0  0  0  0  0
    5.2532   -8.0302   15.9606 C   0  0  0  0  0  0  0  0  0  0  0  0
   10.6420   -5.2039   18.8316 C   0  0  0  0  0  0  0  0  0  0  0  0
   11.3688   -3.7510   24.1262 C   0  0  0  0  0  0  0  0  0  0  0  0
    7.0313   -6.5104   14.8304 C   0  0  0  0  0  0  0  0  0  0  0  0
   10.3877   -2.2693   24.9860 He  0  0  0  0  0  0  0  0  0  0  0  0
   10.6802   -3.4551   19.5445 He  0  0  0  0  0  0  0  0  0  0  0  0
   10.4966   -3.6804   17.3672 He  0  0  0  0  0  0  0  0  0  0  0  0
  1  6  4  0
  1  7  2  0
  1 12  4  0
  2 13  2  0
  2 15  3  0
  2 20  3  0
  2 23  2  0
  3  5  2  0
  3  9  1  0
  3 15  3  0
  3 17  1  0
  3 21  4  0
  3 23  3  0
  4 14  1  0
  4 18  2  0
  5 11  1  0
  5 16  4  0
  5 21  3  0
  6 13  1  0
  6 15  1  0
  7 22  1  0
  8 14  1  0
  8 18  2  0
  8 19  2  0
  9 13  3  0
  9 15  1  0
  9 17  4  0
  9 19  4  0
 10 21  1  0
 10 22  4  0
 11 15  2  0
 11 23  4  0
 12 17  4  0
 12 20  3  0
 13 16  1  0
 14 20  2  0
 15 17  3  0
 15 18  1  0
 16 20  3  0
 16 21  4  0
 17 20  3  0
 17 21  4  0
 20 21  3  0
M  END
$$$$

 Created by Python create_sdf_string function

 26 30  0  0  0  0  0  0  0  0999 V2000
   10.9071   -3.9186   21.2968 C   0  0  0  0  0  0  0  0  0  0  0  0
    8.0915   -5.7173   15.6080 N   0  0  0  0  0  0  0  0  0  0  0  0
   10.7400   -3.7284   18.8300 C   0  0  0  0  0  0  0  0  0  0  0  0
   10.0469   -2.2460   25.1140 C   0  0  0  0  0  0  0  0  0  0  0  0
    3.1459   -8.8858   16.7717 N   0  0  0  0  0  0  0  0  0  0  0  0
   10.1102   -3.9842   16.7114 N   0  0  0  0  0  0  0  0  0  0  0  0
    8.1901   -6.9354   17.6285 O   0  0  0  0  0  0  0  0  0  0  0  0
   10.7370   -3.3563   22.6153 C   0  0  0  0  0  0  0  0  0  0  0  0
    5.2122   -9.0272   17.8677 C   0  0  0  0  0  0  0  0  0  0  0  0
   10.1456   -2.1086   22.7621 C   0  0  0  0  0  0  0  0  0  0  0  0
   10.8141   -3.3515   25.0938 N   0  0  0  0  0  0  0  0  0  0  0  0
   10.9846   -3.1747   20.0833 C   0  0  0  0  0  0  0  0  0  0  0  0
    6.3673   -7.3028   15.9871 C   0  0  0  0  0  0  0  0  0  0  0  0
   10.9447   -5.3575   21.0706 C   0  0  0  0  0  0  0  0  0  0  0  0
    8.6855   -5.9556   16.8199 C   0  0  0  0  0  0  0  0  0  0  0  0
    4.4085   -8.6001   16.7876 C   0  0  0  0  0  0  0  0  0  0  0  0
    7.0036   -7.6096   17.2230 C   0  0  0  0  0  0  0  0  0  0  0  0
    9.7148   -5.0658   17.4086 C   0  0  0  0  0  0  0  0  0  0  0  0
   10.4840   -5.8816   19.7913 C   0  0  0  0  0  0  0  0  0  0  0  0
    6.3558   -8.5451   18.0483 C   0  0  0  0  0  0  0  0  0  0  0  0
    9.7254   -1.5640   23.9590 C   0  0  0  0  0  0  0  0  0  0  0  0
    5.0895   -7.8315   15.8048 C   0  0  0  0  0  0  0  0  0  0  0  0
   10.7398   -3.1468   17.6131 N   0  0  0  0  0  0  0  0  0  0  0  0
   10.3039   -4.9675   18.7376 C   0  0  0  0  0  0  0  0  0  0  0  0
   11.1003   -3.9551   23.8918 C   0  0  0  0  0  0  0  0  0  0  0  0
    7.0587   -6.4309   15.1895 C   0  0  0  0  0  0  0  0  0  0  0  0
  1  8  1  0
  1 12  4  0
  1 14  4  0
  2 15  2  0
  2 26  2  0
  3 12  4  0
  3 23  4  0
  3 24  4  0
  4 11  4  0
  4 21  4  0
  5 16  1  0
  6 18  4  0
  6 23  4  0
  7 15  1  0
  7 17  1  0
  8 10  4  0
  8 25  4  0
  9 16  1  0
  9 20  2  0
 10 21  4  0
 11 25  4  0
 13 17  2  0
 13 22  1  0
 13 26  1  0
 14 19  4  0
 15 18  1  0
 16 22  2  0
 17 20  1  0
 18 24  4  0
 19 24  4  0
M  END
$$$$

 Created by Python create_sdf_string function

 26 44  0  0  0  0  0  0  0  0999 V2000
   11.0026   -3.7090   20.7152 C   0  0  0  0  0  0  0  0  0  0  0  0
   10.7838   -3.3743   18.9074 C   0  0  0  0  0  0  0  0  0  0  0  0
   10.7057   -2.5358   25.0295 C   0  0  0  0  0  0  0  0  0  0  0  0
    2.9154   -9.2627   16.6573 N   0  0  0  0  0  0  0  0  0  0  0  0
   10.5441   -3.8426   16.8122 N   0  0  0  0  0  0  0  0  0  0  0  0
    8.0963   -6.8316   17.6718 O   0  0  0  0  0  0  0  0  0  0  0  0
   10.5710   -3.5030   22.6163 C   0  0  0  0  0  0  0  0  0  0  0  0
    5.1319   -9.0397   18.1205 C   0  0  0  0  0  0  0  0  0  0  0  0
   10.7027   -3.6396   24.5862 N   0  0  0  0  0  0  0  0  0  0  0  0
   11.0688   -3.1033   20.2689 C   0  0  0  0  0  0  0  0  0  0  0  0
    6.5094   -6.5944   15.8704 C   0  0  0  0  0  0  0  0  0  0  0  0
   11.1221   -5.6863   21.3834 C   0  0  0  0  0  0  0  0  0  0  0  0
    8.1092   -5.7145   16.6119 P   0  0  0  0  0  0  0  0  0  0  0  0
    4.0909   -9.0783   16.8037 Cl  0  0  0  0  0  0  0  0  0  0  0  0
    6.5893   -7.4605   17.4816 F   0  0  0  0  0  0  0  0  0  0  0  0
    9.2847   -5.0543   17.8588 C   0  0  0  0  0  0  0  0  0  0  0  0
   10.6429   -5.7764   19.7336 C   0  0  0  0  0  0  0  0  0  0  0  0
    6.4075   -8.7383   17.8381 C   0  0  0  0  0  0  0  0  0  0  0  0
    9.6595   -1.4378   24.1527 C   0  0  0  0  0  0  0  0  0  0  0  0
   10.4983   -3.3156   17.5415 N   0  0  0  0  0  0  0  0  0  0  0  0
   11.0456   -3.9494   24.1171 C   0  0  0  0  0  0  0  0  0  0  0  0
    7.0187   -6.5196   15.5287 C   0  0  0  0  0  0  0  0  0  0  0  0
    8.3848   -5.3907   15.5150 He  0  0  0  0  0  0  0  0  0  0  0  0
   10.1849   -1.6994   22.9141 He  0  0  0  0  0  0  0  0  0  0  0  0
    5.7085   -7.3381   15.9465 He  0  0  0  0  0  0  0  0  0  0  0  0
    9.9000   -4.8037   18.6468 He  0  0  0  0  0  0  0  0  0  0  0  0
  1  7  1  0
  1  9  1  0
  1 10  4  0
  1 12  1  0
  1 20  3  0
  2 10  2  0
  2 20  4  0
  3  9  4  0
  3 10  2  0
  3 19  4  0
  4 14  1  0
  4 22  3  0
  5 14  1  0
  5 16  4  0
  5 17  1  0
  6 13  1  0
  6 14  3  0
  6 15  2  0
  6 18  2  0
  6 20  4  0
  6 22  2  0
  7  8  4  0
  7 11  3  0
  7 13  4  0
  7 21  4  0
  8 14  1  0
  8 18  2  0
  9 20  3  0
  9 21  4  0
  9 22  4  0
 10 22  3  0
 11 15  2  0
 11 16  1  0
 11 17  4  0
 11 22  1  0
 12 15  3  0
 12 21  3  0
 13 16  4  0
 14 17  2  0
 14 19  1  0
 14 21  2  0
 15 18  1  0
 16 20  1  0
 18 20  1  0
M  END
$$$$

 Created by Python create_sdf_string function

 26 30  0  0  0  0  0  0  0  0999 V2000
   10.8696   -3.8805   21.2717 C   0  0  0  0  0  0  0  0  0  0  0  0
    8.1223   -5.6035   15.6758 C   0  0  0  0  0  0  0  0  0  0  0  0
   10.7361   -3.6248   18.9099 C   0  0  0  0  0  0  0  0  0  0  0  0
   10.2485   -2.4021   25.1907 C   0  0  0  0  0  0  0  0  0  0  0  0
    3.0954   -9.1618   16.6550 N   0  0  0  0  0  0  0  0  0  0  0  0
   10.0784   -3.8919   16.7930 N   0  0  0  0  0  0  0  0  0  0  0  0
    8.0103   -6.6843   17.7406 O   0  0  0  0  0  0  0  0  0  0  0  0
   10.7334   -3.3602   22.6040 C   0  0  0  0  0  0  0  0  0  0  0  0
    5.1957   -9.0041   17.8377 C   0  0  0  0  0  0  0  0  0  0  0  0
   10.2302   -2.0954   22.8266 C   0  0  0  0  0  0  0  0  0  0  0  0
   10.7918   -3.5992   25.0356 N   0  0  0  0  0  0  0  0  0  0  0  0
   10.9456   -3.0587   20.1888 C   0  0  0  0  0  0  0  0  0  0  0  0
    6.3201   -7.1518   16.1136 C   0  0  0  0  0  0  0  0  0  0  0  0
   10.8442   -5.3007   21.0672 C   0  0  0  0  0  0  0  0  0  0  0  0
    8.5655   -5.8230   16.9217 C   0  0  0  0  0  0  0  0  0  0  0  0
    4.3912   -8.6818   16.7282 C   0  0  0  0  0  0  0  0  0  0  0  0
    6.9301   -7.3956   17.3318 C   0  0  0  0  0  0  0  0  0  0  0  0
    9.6664   -4.9521   17.4868 C   0  0  0  0  0  0  0  0  0  0  0  0
   10.3751   -5.7592   19.8034 C   0  0  0  0  0  0  0  0  0  0  0  0
    6.2934   -8.4541   18.1131 C   0  0  0  0  0  0  0  0  0  0  0  0
    9.9847   -1.6008   24.0951 C   0  0  0  0  0  0  0  0  0  0  0  0
    5.0085   -7.7915   15.8469 C   0  0  0  0  0  0  0  0  0  0  0  0
   10.8029   -3.0495   17.6396 N   0  0  0  0  0  0  0  0  0  0  0  0
   10.2424   -4.8927   18.7952 C   0  0  0  0  0  0  0  0  0  0  0  0
   11.0210   -4.1027   23.7978 C   0  0  0  0  0  0  0  0  0  0  0  0
    7.0408   -6.3299   15.2549 C   0  0  0  0  0  0  0  0  0  0  0  0
  1  8  1  0
  1 12  4  0
  1 14  4  0
  2 15  2  0
  2 26  1  0
  3 12  4  0
  3 23  4  0
  3 24  4  0
  4 11  4  0
  4 21  4  0
  5 16  1  0
  6 18  4  0
  6 23  4  0
  7 15  1  0
  7 17  2  0
  8 10  4  0
  8 25  4  0
  9 16  1  0
  9 20  2  0
 10 21  4  0
 11 25  4  0
 13 17  2  0
 13 22  2  0
 13 26  1  0
 14 19  4  0
 15 18  1  0
 16 22  2  0
 17 20  1  0
 18 24  4  0
 19 24  4  0
M  END
$$$$

 Created by Python create_sdf_string function

 26 44  0  0  0  0  0  0  0  0999 V2000
   11.0067   -3.7825   20.7746 C   0  0  0  0  0  0  0  0  0  0  0  0
    8.3065   -6.0876   15.3620 C   0  0  0  0  0  0  0  0  0  0  0  0
   10.5886   -3.2361   18.7593 C   0  0  0  0  0  0  0  0  0  0  0  0
    9.8858   -2.1342   25.1165 O   0  0  0  0  0  0  0  0  0  0  0  0
    3.7667   -8.9834   16.5324 N   0  0  0  0  0  0  0  0  0  0  0  0
    9.8765   -3.9175   16.8557 N   0  0  0  0  0  0  0  0  0  0  0  0
    9.1755   -6.9090   17.8696 O   0  0  0  0  0  0  0  0  0  0  0  0
   10.5313   -3.6141   22.7654 C   0  0  0  0  0  0  0  0  0  0  0  0
    5.0834   -9.3610   17.5548 C   0  0  0  0  0  0  0  0  0  0  0  0
   10.0527   -2.3874   22.5982 C   0  0  0  0  0  0  0  0  0  0  0  0
   10.9383   -3.6317   24.6722 N   0  0  0  0  0  0  0  0  0  0  0  0
   10.9780   -3.1279   20.2597 C   0  0  0  0  0  0  0  0  0  0  0  0
    6.6345   -7.2817   15.8234 C   0  0  0  0  0  0  0  0  0  0  0  0
   10.2963   -5.2989   20.8760 C   0  0  0  0  0  0  0  0  0  0  0  0
    8.4938   -5.6813   16.4824 C   0  0  0  0  0  0  0  0  0  0  0  0
    4.2386   -8.5314   16.4566 C   0  0  0  0  0  0  0  0  0  0  0  0
    6.9054   -7.0512   17.3779 C   0  0  0  0  0  0  0  0  0  0  0  0
    9.5806   -5.5728   17.3768 C   0  0  0  0  0  0  0  0  0  0  0  0
    6.6742   -8.0442   18.4769 C   0  0  0  0  0  0  0  0  0  0  0  0
   10.0180   -1.7961   24.1518 C   0  0  0  0  0  0  0  0  0  0  0  0
   11.1168   -3.3280   17.6300 C   0  0  0  0  0  0  0  0  0  0  0  0
   10.2685   -4.6982   18.7617 C   0  0  0  0  0  0  0  0  0  0  0  0
   10.6810   -4.2566   24.0236 C   0  0  0  0  0  0  0  0  0  0  0  0
    6.9794   -6.5304   15.0064 C   0  0  0  0  0  0  0  0  0  0  0  0
   10.4169   -5.6878   20.0347 He  0  0  0  0  0  0  0  0  0  0  0  0
    5.0200   -8.1574   15.6306 He  0  0  0  0  0  0  0  0  0  0  0  0
  1 12  4  0
  1 13  3  0
  1 14  4  0
  1 17  4  0
  1 23  2  0
  2  9  2  0
  2 12  3  0
  2 15  2  0
  2 19  4  0
  2 20  3  0
  2 22  4  0
  3 12  4  0
  3 21  4  0
  3 22  4  0
  4  9  1  0
  4 11  4  0
  4 15  3  0
  4 16  1  0
  4 18  4  0
  4 20  4  0
  4 22  1  0
  5 16  1  0
  5 24  2  0
  6  9  4  0
  6 18  4  0
  6 21  4  0
  7 15  1  0
  7 17  2  0
  8 18  2  0
  8 23  4  0
  9 14  1  0
  9 19  2  0
  9 21  4  0
 10 20  2  0
 11 19  2  0
 11 23  4  0
 12 13  4  0
 12 24  4  0
 13 24  1  0
 14 20  2  0
 15 18  3  0
 17 19  1  0
 17 23  2  0
 18 22  4  0
M  END
$$$$

 Created by Python create_sdf_string function

 26 30  0  0  0  0  0  0  0  0999 V2000
   10.7630   -3.9523   21.2365 C   0  0  0  0  0  0  0  0  0  0  0  0
    8.2410   -5.8033   15.4984 C   0  0  0  0  0  0  0  0  0  0  0  0
   10.7477   -3.6379   18.8254 C   0  0  0  0  0  0  0  0  0  0  0  0
   10.1795   -2.4808   25.1774 C   0  0  0  0  0  0  0  0  0  0  0  0
    3.2840   -9.0838   16.4779 N   0  0  0  0  0  0  0  0  0  0  0  0
   10.1427   -3.9034   16.6492 N   0  0  0  0  0  0  0  0  0  0  0  0
    8.2537   -6.9213   17.5625 O   0  0  0  0  0  0  0  0  0  0  0  0
   10.6316   -3.4251   22.5672 C   0  0  0  0  0  0  0  0  0  0  0  0
    5.2187   -8.9452   17.7908 C   0  0  0  0  0  0  0  0  0  0  0  0
   10.1128   -2.1371   22.8380 C   0  0  0  0  0  0  0  0  0  0  0  0
   10.6638   -3.6908   24.9906 N   0  0  0  0  0  0  0  0  0  0  0  0
   10.9814   -3.1319   20.1004 C   0  0  0  0  0  0  0  0  0  0  0  0
    6.4284   -7.2827   15.9464 C   0  0  0  0  0  0  0  0  0  0  0  0
   10.5885   -5.3218   21.0013 C   0  0  0  0  0  0  0  0  0  0  0  0
    8.7501   -5.9486   16.7518 C   0  0  0  0  0  0  0  0  0  0  0  0
    4.5556   -8.6607   16.5907 C   0  0  0  0  0  0  0  0  0  0  0  0
    7.0225   -7.5097   17.2673 C   0  0  0  0  0  0  0  0  0  0  0  0
    9.7236   -5.0003   17.3405 C   0  0  0  0  0  0  0  0  0  0  0  0
   10.2130   -5.7974   19.6697 C   0  0  0  0  0  0  0  0  0  0  0  0
    6.2960   -8.3102   18.1755 C   0  0  0  0  0  0  0  0  0  0  0  0
    9.8199   -1.6886   24.1178 C   0  0  0  0  0  0  0  0  0  0  0  0
    5.1918   -7.8737   15.6761 C   0  0  0  0  0  0  0  0  0  0  0  0
   10.7861   -3.0437   17.5414 N   0  0  0  0  0  0  0  0  0  0  0  0
   10.2294   -4.8950   18.6861 C   0  0  0  0  0  0  0  0  0  0  0  0
   10.9073   -4.1683   23.7911 C   0  0  0  0  0  0  0  0  0  0  0  0
    7.1443   -6.4717   15.0696 C   0  0  0  0  0  0  0  0  0  0  0  0
  1  8  1  0
  1 12  4  0
  1 14  4  0
  2 15  2  0
  2 26  1  0
  3 12  4  0
  3 23  4  0
  3 24  4  0
  4 11  4  0
  4 21  4  0
  5 16  1  0
  6 18  4  0
  6 23  4  0
  7 15  1  0
  7 17  2  0
  8 10  4  0
  8 25  4  0
  9 16  1  0
  9 20  2  0
 10 21  4  0
 11 25  4  0
 13 17  1  0
 13 22  2  0
 13 26  1  0
 14 19  4  0
 15 18  1  0
 16 22  2  0
 17 20  1  0
 18 24  4  0
 19 24  4  0
M  END
$$$$

 Created by Python create_sdf_string function

 26 44  0  0  0  0  0  0  0  0999 V2000
   10.7130   -3.9902   21.3887 C   0  0  0  0  0  0  0  0  0  0  0  0
    8.0228   -5.7129   15.5047 C   0  0  0  0  0  0  0  0  0  0  0  0
   10.4788   -2.8322   24.8447 C   0  0  0  0  0  0  0  0  0  0  0  0
    3.3443   -8.8708   16.7498 N   0  0  0  0  0  0  0  0  0  0  0  0
    8.1835   -7.2154   17.9651 O   0  0  0  0  0  0  0  0  0  0  0  0
   10.4795   -3.1493   22.5238 C   0  0  0  0  0  0  0  0  0  0  0  0
    5.2785   -8.5591   17.7411 C   0  0  0  0  0  0  0  0  0  0  0  0
   10.6850   -3.6344   25.1591 N   0  0  0  0  0  0  0  0  0  0  0  0
   10.9141   -2.9150   20.4351 C   0  0  0  0  0  0  0  0  0  0  0  0
    6.8151   -7.1447   16.0716 C   0  0  0  0  0  0  0  0  0  0  0  0
   10.6848   -5.5145   21.1232 C   0  0  0  0  0  0  0  0  0  0  0  0
    4.3624   -8.7349   16.1292 C   0  0  0  0  0  0  0  0  0  0  0  0
    6.8654   -7.3562   17.0163 C   0  0  0  0  0  0  0  0  0  0  0  0
    9.8638   -5.0286   17.5773 Cl  0  0  0  0  0  0  0  0  0  0  0  0
   10.5113   -5.5687   19.7404 C   0  0  0  0  0  0  0  0  0  0  0  0
    5.9165   -8.3042   18.5033 C   0  0  0  0  0  0  0  0  0  0  0  0
    9.8594   -1.8160   24.1472 C   0  0  0  0  0  0  0  0  0  0  0  0
    5.2652   -7.6441   15.5907 C   0  0  0  0  0  0  0  0  0  0  0  0
   10.9542   -3.1960   17.7108 N   0  0  0  0  0  0  0  0  0  0  0  0
   11.0551   -4.5114   23.5914 C   0  0  0  0  0  0  0  0  0  0  0  0
    7.1057   -6.2037   14.7748 C   0  0  0  0  0  0  0  0  0  0  0  0
   10.5485   -3.7466   19.3289 He  0  0  0  0  0  0  0  0  0  0  0  0
   10.0338   -4.4407   16.5244 He  0  0  0  0  0  0  0  0  0  0  0  0
   10.1880   -2.2279   22.9771 He  0  0  0  0  0  0  0  0  0  0  0  0
    8.6916   -5.8683   17.2684 He  0  0  0  0  0  0  0  0  0  0  0  0
   10.0965   -4.9846   18.5449 He  0  0  0  0  0  0  0  0  0  0  0  0
  1  4  4  0
  1  6  1  0
  1  9  4  0
  1 11  3  0
  1 19  2  0
  2  6  4  0
  2  9  2  0
  2 21  1  0
  3  5  2  0
  3  8  4  0
  3  9  4  0
  4 12  1  0
  4 20  3  0
  5  7  3  0
  5 13  2  0
  5 14  4  0
  6  8  3  0
  6 12  3  0
  6 19  4  0
  6 20  4  0
  7 12  1  0
  7 16  2  0
  7 17  3  0
  8 10  1  0
  8 20  3  0
  9 15  3  0
 10 13  2  0
 10 15  1  0
 10 18  2  0
 10 20  4  0
 10 21  1  0
 11 15  4  0
 11 17  3  0
 12 16  4  0
 12 18  2  0
 12 19  3  0
 12 20  1  0
 13 16  1  0
 14 19  2  0
 15 16  2  0
 15 18  2  0
 15 19  2  0
 15 21  2  0
 18 21  4  0
M  END
$$$$

 Created by Python create_sdf_string function

 26 30  0  0  0  0  0  0  0  0999 V2000
   10.7765   -3.9673   21.3440 C   0  0  0  0  0  0  0  0  0  0  0  0
    8.1873   -5.6644   15.6827 C   0  0  0  0  0  0  0  0  0  0  0  0
   10.7349   -3.7008   18.9443 C   0  0  0  0  0  0  0  0  0  0  0  0
   10.2282   -2.6168   25.2765 C   0  0  0  0  0  0  0  0  0  0  0  0
    3.1811   -8.8640   16.3239 N   0  0  0  0  0  0  0  0  0  0  0  0
   10.2320   -3.9676   16.7937 N   0  0  0  0  0  0  0  0  0  0  0  0
    8.1454   -6.8984   17.6919 C   0  0  0  0  0  0  0  0  0  0  0  0
   10.6842   -3.4824   22.6839 C   0  0  0  0  0  0  0  0  0  0  0  0
    5.0219   -8.8247   17.7542 C   0  0  0  0  0  0  0  0  0  0  0  0
   10.1728   -2.2075   22.9397 C   0  0  0  0  0  0  0  0  0  0  0  0
   10.7882   -3.7975   25.1105 N   0  0  0  0  0  0  0  0  0  0  0  0
   10.8772   -3.1781   20.2338 C   0  0  0  0  0  0  0  0  0  0  0  0
    6.3968   -7.2303   15.9756 C   0  0  0  0  0  0  0  0  0  0  0  0
   10.7050   -5.3637   21.0949 C   0  0  0  0  0  0  0  0  0  0  0  0
    8.7211   -5.9302   16.9111 C   0  0  0  0  0  0  0  0  0  0  0  0
    4.4251   -8.5117   16.5239 C   0  0  0  0  0  0  0  0  0  0  0  0
    6.9382   -7.4724   17.3126 C   0  0  0  0  0  0  0  0  0  0  0  0
    9.7302   -5.0675   17.4851 C   0  0  0  0  0  0  0  0  0  0  0  0
   10.3369   -5.8399   19.8059 C   0  0  0  0  0  0  0  0  0  0  0  0
    6.1416   -8.2911   18.1395 C   0  0  0  0  0  0  0  0  0  0  0  0
    9.9243   -1.7770   24.2569 C   0  0  0  0  0  0  0  0  0  0  0  0
    5.1874   -7.7915   15.6319 C   0  0  0  0  0  0  0  0  0  0  0  0
   10.8302   -3.1032   17.6841 N   0  0  0  0  0  0  0  0  0  0  0  0
   10.2640   -4.9668   18.7824 C   0  0  0  0  0  0  0  0  0  0  0  0
   10.9983   -4.2728   23.8181 C   0  0  0  0  0  0  0  0  0  0  0  0
    7.1679   -6.3600   15.1875 C   0  0  0  0  0  0  0  0  0  0  0  0
  1  8  1  0
  1 12  4  0
  1 14  4  0
  2 15  2  0
  2 26  1  0
  3 12  4  0
  3 23  4  0
  3 24  4  0
  4 11  4  0
  4 21  4  0
  5 16  1  0
  6 18  4  0
  6 23  4  0
  7 15  1  0
  7 17  2  0
  8 10  4  0
  8 25  4  0
  9 16  1  0
  9 20  2  0
 10 21  4  0
 11 25  4  0
 13 17  1  0
 13 22  2  0
 13 26  1  0
 14 19  4  0
 15 18  1  0
 16 22  2  0
 17 20  1  0
 18 24  4  0
 19 24  4  0
M  END
$$$$

 Created by Python create_sdf_string function

 26 52  0  0  0  0  0  0  0  0999 V2000
   11.1956   -4.0319   21.7316 C   0  0  0  0  0  0  0  0  0  0  0  0
    8.3397   -5.8112   15.6232 C   0  0  0  0  0  0  0  0  0  0  0  0
   10.4358   -3.6280   18.9456 N   0  0  0  0  0  0  0  0  0  0  0  0
   10.5928   -2.6852   25.3781 C   0  0  0  0  0  0  0  0  0  0  0  0
    3.5682   -8.8253   16.4090 S   0  0  0  0  0  0  0  0  0  0  0  0
   10.1989   -4.1955   16.4088 N   0  0  0  0  0  0  0  0  0  0  0  0
    8.0682   -6.7834   17.8330 C   0  0  0  0  0  0  0  0  0  0  0  0
   10.6349   -2.9781   22.5544 S   0  0  0  0  0  0  0  0  0  0  0  0
    4.8434   -9.0326   17.7444 C   0  0  0  0  0  0  0  0  0  0  0  0
   10.1782   -2.5093   23.0568 C   0  0  0  0  0  0  0  0  0  0  0  0
   11.0648   -3.8007   25.0311 N   0  0  0  0  0  0  0  0  0  0  0  0
   10.8255   -3.0481   20.4222 C   0  0  0  0  0  0  0  0  0  0  0  0
    6.8730   -7.3052   15.9538 C   0  0  0  0  0  0  0  0  0  0  0  0
   10.1883   -5.5806   20.6763 C   0  0  0  0  0  0  0  0  0  0  0  0
    8.2423   -5.7769   16.9019 C   0  0  0  0  0  0  0  0  0  0  0  0
    4.3702   -8.7068   16.7106 C   0  0  0  0  0  0  0  0  0  0  0  0
    7.1514   -7.6430   17.4838 C   0  0  0  0  0  0  0  0  0  0  0  0
   10.5426   -6.0917   19.4902 C   0  0  0  0  0  0  0  0  0  0  0  0
    6.2208   -7.9586   18.2817 C   0  0  0  0  0  0  0  0  0  0  0  0
    9.9329   -1.3527   24.3076 O   0  0  0  0  0  0  0  0  0  0  0  0
    4.8778   -7.7696   15.5497 C   0  0  0  0  0  0  0  0  0  0  0  0
   10.6881   -2.9758   17.1394 N   0  0  0  0  0  0  0  0  0  0  0  0
   10.4069   -4.7527   18.2888 C   0  0  0  0  0  0  0  0  0  0  0  0
   11.1116   -4.1269   23.5641 S   0  0  0  0  0  0  0  0  0  0  0  0
    7.4284   -5.9824   14.7107 C   0  0  0  0  0  0  0  0  0  0  0  0
    9.6146   -5.0002   17.5803 He  0  0  0  0  0  0  0  0  0  0  0  0
  1  8  1  0
  1 12  4  0
  1 13  4  0
  1 14  4  0
  1 16  2  0
  1 25  1  0
  2 12  3  0
  2 15  2  0
  2 25  1  0
  3  4  1  0
  3  5  3  0
  3 11  4  0
  3 12  4  0
  3 15  1  0
  3 22  4  0
  3 23  4  0
  4 11  4  0
  4 20  4  0
  5 14  4  0
  5 16  1  0
  6 22  4  0
  7 15  1  0
  7 22  3  0
  7 25  4  0
  8 10  4  0
  8 13  1  0
  8 24  4  0
  9 16  1  0
  9 20  1  0
 10 13  1  0
 10 14  1  0
 11 13  3  0
 11 15  1  0
 11 17  4  0
 11 24  4  0
 12 16  4  0
 12 21  4  0
 12 24  4  0
 13 17  1  0
 13 18  3  0
 13 20  2  0
 13 21  2  0
 13 25  1  0
 14 18  1  0
 15 16  3  0
 15 25  4  0
 16 23  1  0
 17 19  1  0
 18 23  4  0
 19 20  2  0
 20 25  4  0
 21 24  4  0
M  END
$$$$

 Created by Python create_sdf_string function

 26 30  0  0  0  0  0  0  0  0999 V2000
   10.7422   -3.9719   21.2746 C   0  0  0  0  0  0  0  0  0  0  0  0
    8.2013   -5.6900   15.5833 C   0  0  0  0  0  0  0  0  0  0  0  0
   10.7054   -3.6093   18.8122 C   0  0  0  0  0  0  0  0  0  0  0  0
   10.4443   -2.5867   25.2721 C   0  0  0  0  0  0  0  0  0  0  0  0
    3.2424   -8.9062   16.3379 N   0  0  0  0  0  0  0  0  0  0  0  0
   10.1490   -3.8775   16.6302 N   0  0  0  0  0  0  0  0  0  0  0  0
    8.1006   -6.7899   17.7033 C   0  0  0  0  0  0  0  0  0  0  0  0
   10.6860   -3.4597   22.6149 C   0  0  0  0  0  0  0  0  0  0  0  0
    5.0652   -8.9000   17.7989 C   0  0  0  0  0  0  0  0  0  0  0  0
   10.1650   -2.2398   22.9391 C   0  0  0  0  0  0  0  0  0  0  0  0
   11.0142   -3.7617   25.0494 N   0  0  0  0  0  0  0  0  0  0  0  0
   10.8776   -3.1437   20.1515 C   0  0  0  0  0  0  0  0  0  0  0  0
    6.4413   -7.2998   15.9860 C   0  0  0  0  0  0  0  0  0  0  0  0
   10.6701   -5.3401   20.9963 C   0  0  0  0  0  0  0  0  0  0  0  0
    8.6853   -5.8654   16.8060 C   0  0  0  0  0  0  0  0  0  0  0  0
    4.5047   -8.5709   16.5703 C   0  0  0  0  0  0  0  0  0  0  0  0
    6.9853   -7.4747   17.3269 C   0  0  0  0  0  0  0  0  0  0  0  0
    9.6797   -4.9504   17.3514 C   0  0  0  0  0  0  0  0  0  0  0  0
   10.3386   -5.7941   19.6956 C   0  0  0  0  0  0  0  0  0  0  0  0
    6.1645   -8.2630   18.2299 C   0  0  0  0  0  0  0  0  0  0  0  0
    9.9860   -1.8074   24.2257 C   0  0  0  0  0  0  0  0  0  0  0  0
    5.2050   -7.8585   15.6698 C   0  0  0  0  0  0  0  0  0  0  0  0
   10.8123   -3.0307   17.5393 N   0  0  0  0  0  0  0  0  0  0  0  0
   10.2226   -4.8639   18.6570 C   0  0  0  0  0  0  0  0  0  0  0  0
   11.1104   -4.2419   23.7630 C   0  0  0  0  0  0  0  0  0  0  0  0
    7.1522   -6.4510   15.1266 C   0  0  0  0  0  0  0  0  0  0  0  0
  1  8  1  0
  1 12  4  0
  1 14  4  0
  2 15  2  0
  2 26  1  0
  3 12  4  0
  3 23  4  0
  3 24  4  0
  4 11  4  0
  4 21  4  0
  5 16  1  0
  6 18  4  0
  6 23  4  0
  7 15  1  0
  7 17  2  0
  8 10  4  0
  8 25  4  0
  9 16  1  0
  9 20  1  0
 10 21  4  0
 11 25  4  0
 13 17  1  0
 13 22  2  0
 13 26  1  0
 14 19  4  0
 15 18  1  0
 16 22  1  0
 17 20  1  0
 18 24  4  0
 19 24  4  0
M  END
$$$$

 Created by Python create_sdf_string function

 26 43  0  0  0  0  0  0  0  0999 V2000
   10.6288   -3.8827   20.9625 C   0  0  0  0  0  0  0  0  0  0  0  0
    8.2910   -5.6429   15.8486 C   0  0  0  0  0  0  0  0  0  0  0  0
   10.5739   -3.4006   18.7352 C   0  0  0  0  0  0  0  0  0  0  0  0
   10.7715   -2.8019   25.2023 C   0  0  0  0  0  0  0  0  0  0  0  0
    3.2076   -9.3318   16.3309 N   0  0  0  0  0  0  0  0  0  0  0  0
   10.2508   -3.5505   16.6414 N   0  0  0  0  0  0  0  0  0  0  0  0
    8.3513   -6.7807   17.8189 C   0  0  0  0  0  0  0  0  0  0  0  0
   10.6405   -2.9037   23.0340 C   0  0  0  0  0  0  0  0  0  0  0  0
    5.0498   -8.7455   17.7446 O   0  0  0  0  0  0  0  0  0  0  0  0
   10.1854   -2.0341   22.9907 C   0  0  0  0  0  0  0  0  0  0  0  0
   10.9881   -3.6792   24.9416 N   0  0  0  0  0  0  0  0  0  0  0  0
   10.7786   -3.2099   20.3630 C   0  0  0  0  0  0  0  0  0  0  0  0
    6.5026   -7.5920   15.4199 C   0  0  0  0  0  0  0  0  0  0  0  0
   10.8973   -5.3666   21.1624 C   0  0  0  0  0  0  0  0  0  0  0  0
    8.4684   -5.6126   16.8326 C   0  0  0  0  0  0  0  0  0  0  0  0
    4.3430   -8.8465   16.2972 Cl  0  0  0  0  0  0  0  0  0  0  0  0
    7.2837   -7.3610   16.9097 C   0  0  0  0  0  0  0  0  0  0  0  0
    9.6214   -4.9566   17.1436 C   0  0  0  0  0  0  0  0  0  0  0  0
   10.5266   -6.2479   19.6705 C   0  0  0  0  0  0  0  0  0  0  0  0
    6.2698   -8.3209   18.2149 C   0  0  0  0  0  0  0  0  0  0  0  0
    9.7609   -1.9508   23.7711 C   0  0  0  0  0  0  0  0  0  0  0  0
    4.8227   -8.0074   15.8082 C   0  0  0  0  0  0  0  0  0  0  0  0
   10.8586   -2.8101   17.7109 N   0  0  0  0  0  0  0  0  0  0  0  0
   10.4048   -4.8685   18.7578 C   0  0  0  0  0  0  0  0  0  0  0  0
   11.1915   -4.1286   23.5257 C   0  0  0  0  0  0  0  0  0  0  0  0
    7.1604   -6.2616   14.8870 C   0  0  0  0  0  0  0  0  0  0  0  0
  1  8  1  0
  1 12  4  0
  2  6  1  0
  2 15  2  0
  2 22  1  0
  2 26  1  0
  3 12  4  0
  3 14  1  0
  3 19  2  0
  3 21  2  0
  3 23  4  0
  3 24  4  0
  4 11  3  0
  4 13  2  0
  4 21  4  0
  5 11  1  0
  5 15  1  0
  5 16  4  0
  6 11  1  0
  6 18  4  0
  6 23  4  0
  7  8  2  0
  7 16  1  0
  7 26  3  0
  8 10  4  0
  8 25  2  0
  9 16  1  0
 10 21  4  0
 11 25  4  0
 13 17  1  0
 13 24  3  0
 13 26  4  0
 14 19  4  0
 14 23  4  0
 15 18  1  0
 16 18  4  0
 16 22  1  0
 17 20  2  0
 17 21  1  0
 18 21  4  0
 18 24  4  0
 19 24  4  0
 21 22  3  0
M  END
$$$$

 Created by Python create_sdf_string function

 26 30  0  0  0  0  0  0  0  0999 V2000
   10.7784   -3.9240   21.2684 C   0  0  0  0  0  0  0  0  0  0  0  0
    8.1360   -5.5504   15.5918 C   0  0  0  0  0  0  0  0  0  0  0  0
   10.6948   -3.5245   18.8893 C   0  0  0  0  0  0  0  0  0  0  0  0
   10.4104   -2.6184   25.2461 C   0  0  0  0  0  0  0  0  0  0  0  0
    3.2232   -9.1957   16.3083 N   0  0  0  0  0  0  0  0  0  0  0  0
   10.1419   -3.7155   16.7229 N   0  0  0  0  0  0  0  0  0  0  0  0
    8.1763   -6.7950   17.5635 C   0  0  0  0  0  0  0  0  0  0  0  0
   10.7062   -3.4574   22.5834 C   0  0  0  0  0  0  0  0  0  0  0  0
    5.0844   -8.8323   17.7116 C   0  0  0  0  0  0  0  0  0  0  0  0
   10.1191   -2.2081   22.8885 C   0  0  0  0  0  0  0  0  0  0  0  0
   11.0630   -3.7628   25.0039 N   0  0  0  0  0  0  0  0  0  0  0  0
   10.8988   -3.0648   20.1682 C   0  0  0  0  0  0  0  0  0  0  0  0
    6.4114   -7.3241   15.8723 C   0  0  0  0  0  0  0  0  0  0  0  0
   10.7108   -5.3402   21.0006 C   0  0  0  0  0  0  0  0  0  0  0  0
    8.7212   -5.7756   16.7833 C   0  0  0  0  0  0  0  0  0  0  0  0
    4.4849   -8.6867   16.4805 C   0  0  0  0  0  0  0  0  0  0  0  0
    7.0391   -7.4932   17.1737 C   0  0  0  0  0  0  0  0  0  0  0  0
    9.6910   -4.8555   17.3576 C   0  0  0  0  0  0  0  0  0  0  0  0
   10.3942   -5.7619   19.6733 C   0  0  0  0  0  0  0  0  0  0  0  0
    6.2745   -8.3463   18.0140 C   0  0  0  0  0  0  0  0  0  0  0  0
    9.9764   -1.7776   24.2077 C   0  0  0  0  0  0  0  0  0  0  0  0
    5.1932   -7.9460   15.5592 C   0  0  0  0  0  0  0  0  0  0  0  0
   10.7725   -2.8956   17.6653 N   0  0  0  0  0  0  0  0  0  0  0  0
   10.2384   -4.8301   18.6950 C   0  0  0  0  0  0  0  0  0  0  0  0
   11.1767   -4.1960   23.7083 C   0  0  0  0  0  0  0  0  0  0  0  0
    7.1038   -6.3821   15.0882 C   0  0  0  0  0  0  0  0  0  0  0  0
  1  8  1  0
  1 12  4  0
  1 14  4  0
  2 15  2  0
  2 26  1  0
  3 12  4  0
  3 23  4  0
  3 24  4  0
  4 11  4  0
  4 21  4  0
  5 16  1  0
  6 18  4  0
  6 23  4  0
  7 15  1  0
  7 17  1  0
  8 10  4  0
  8 25  4  0
  9 16  1  0
  9 20  1  0
 10 21  4  0
 11 25  4  0
 13 17  1  0
 13 22  1  0
 13 26  1  0
 14 19  4  0
 15 18  1  0
 16 22  1  0
 17 20  2  0
 18 24  4  0
 19 24  4  0
M  END
$$$$

 Created by Python create_sdf_string function

 26 40  0  0  0  0  0  0  0  0999 V2000
    7.8532   -5.7425   15.4394 C   0  0  0  0  0  0  0  0  0  0  0  0
   10.7825   -3.3007   19.0705 C   0  0  0  0  0  0  0  0  0  0  0  0
   10.1145   -2.5971   25.0146 C   0  0  0  0  0  0  0  0  0  0  0  0
   10.1850   -3.9408   16.7475 N   0  0  0  0  0  0  0  0  0  0  0  0
    8.0972   -6.6686   17.7970 C   0  0  0  0  0  0  0  0  0  0  0  0
   10.6790   -3.6527   22.2974 C   0  0  0  0  0  0  0  0  0  0  0  0
    5.2453   -8.6138   17.9031 F   0  0  0  0  0  0  0  0  0  0  0  0
   10.1714   -1.9174   22.6741 C   0  0  0  0  0  0  0  0  0  0  0  0
   11.1395   -3.9507   25.0110 N   0  0  0  0  0  0  0  0  0  0  0  0
   10.7685   -2.9292   20.0990 C   0  0  0  0  0  0  0  0  0  0  0  0
    6.4106   -7.0903   15.9082 C   0  0  0  0  0  0  0  0  0  0  0  0
   10.5095   -5.3939   20.5931 C   0  0  0  0  0  0  0  0  0  0  0  0
    8.5976   -6.1253   16.7595 C   0  0  0  0  0  0  0  0  0  0  0  0
    4.3806   -8.7708   16.3215 C   0  0  0  0  0  0  0  0  0  0  0  0
    7.5091   -7.5676   17.1512 C   0  0  0  0  0  0  0  0  0  0  0  0
    9.5989   -4.6924   17.5365 C   0  0  0  0  0  0  0  0  0  0  0  0
   10.6300   -5.6017   19.2276 O   0  0  0  0  0  0  0  0  0  0  0  0
    5.9696   -8.6738   18.3035 N   0  0  0  0  0  0  0  0  0  0  0  0
    9.3361   -2.0574   24.3321 F   0  0  0  0  0  0  0  0  0  0  0  0
    5.0760   -7.7306   15.6857 C   0  0  0  0  0  0  0  0  0  0  0  0
   10.4527   -2.8512   17.6548 N   0  0  0  0  0  0  0  0  0  0  0  0
   10.4825   -4.8294   18.9934 C   0  0  0  0  0  0  0  0  0  0  0  0
   10.9034   -4.2888   23.5953 C   0  0  0  0  0  0  0  0  0  0  0  0
    7.2570   -6.6298   15.2639 C   0  0  0  0  0  0  0  0  0  0  0  0
   10.7677   -4.2736   21.2267 He  0  0  0  0  0  0  0  0  0  0  0  0
    3.4347   -8.8279   16.1505 He  0  0  0  0  0  0  0  0  0  0  0  0
  1  2  1  0
  1 11  1  0
  1 13  2  0
  1 15  2  0
  1 24  1  0
  2 10  4  0
  2 13  4  0
  2 17  4  0
  2 22  4  0
  4 16  4  0
  4 21  4  0
  5 12  3  0
  5 13  1  0
  5 15  1  0
  6  8  4  0
  6 22  1  0
  6 23  4  0
  6 24  3  0
  7 14  2  0
  7 18  1  0
  7 22  3  0
  8 19  4  0
  9 11  1  0
  9 17  3  0
  9 23  4  0
  9 24  1  0
 11 13  2  0
 11 15  3  0
 11 20  1  0
 12 21  2  0
 12 24  3  0
 13 16  1  0
 13 17  3  0
 14 16  4  0
 14 20  2  0
 15 18  2  0
 16 20  2  0
 16 22  4  0
 17 22  4  0
 20 22  3  0
M  END
$$$$

 Created by Python create_sdf_string function

 26 30  0  0  0  0  0  0  0  0999 V2000
   10.7693   -3.9695   21.1981 C   0  0  0  0  0  0  0  0  0  0  0  0
    8.1419   -5.6709   15.5970 C   0  0  0  0  0  0  0  0  0  0  0  0
   10.6686   -3.5419   18.8526 C   0  0  0  0  0  0  0  0  0  0  0  0
   10.1669   -2.7751   25.2024 C   0  0  0  0  0  0  0  0  0  0  0  0
    3.2714   -8.8910   16.2293 O   0  0  0  0  0  0  0  0  0  0  0  0
   10.0311   -3.7277   16.7075 N   0  0  0  0  0  0  0  0  0  0  0  0
    8.2185   -6.8479   17.7181 C   0  0  0  0  0  0  0  0  0  0  0  0
   10.6336   -3.5444   22.5258 C   0  0  0  0  0  0  0  0  0  0  0  0
    5.0528   -8.8362   17.7448 C   0  0  0  0  0  0  0  0  0  0  0  0
   10.0076   -2.3390   22.8523 C   0  0  0  0  0  0  0  0  0  0  0  0
   10.8513   -3.9196   24.9371 N   0  0  0  0  0  0  0  0  0  0  0  0
   10.9011   -3.0849   20.1114 C   0  0  0  0  0  0  0  0  0  0  0  0
    6.4413   -7.2984   15.9693 C   0  0  0  0  0  0  0  0  0  0  0  0
   10.6925   -5.3289   20.9057 C   0  0  0  0  0  0  0  0  0  0  0  0
    8.6916   -5.8377   16.8336 C   0  0  0  0  0  0  0  0  0  0  0  0
    4.4659   -8.5093   16.5320 C   0  0  0  0  0  0  0  0  0  0  0  0
    7.0127   -7.5301   17.3110 C   0  0  0  0  0  0  0  0  0  0  0  0
    9.6514   -4.8998   17.3632 C   0  0  0  0  0  0  0  0  0  0  0  0
   10.3545   -5.7669   19.6113 C   0  0  0  0  0  0  0  0  0  0  0  0
    6.2824   -8.4141   18.1017 C   0  0  0  0  0  0  0  0  0  0  0  0
    9.7656   -1.9434   24.1651 C   0  0  0  0  0  0  0  0  0  0  0  0
    5.2240   -7.7984   15.6457 C   0  0  0  0  0  0  0  0  0  0  0  0
   10.6817   -2.8923   17.6146 N   0  0  0  0  0  0  0  0  0  0  0  0
   10.2346   -4.8276   18.6701 C   0  0  0  0  0  0  0  0  0  0  0  0
   11.0635   -4.3137   23.6518 C   0  0  0  0  0  0  0  0  0  0  0  0
    7.1826   -6.5134   15.1405 C   0  0  0  0  0  0  0  0  0  0  0  0
  1  8  1  0
  1 12  4  0
  1 14  4  0
  2 15  2  0
  2 26  1  0
  3 12  4  0
  3 23  4  0
  3 24  4  0
  4 11  4  0
  4 21  4  0
  5 16  1  0
  6 18  4  0
  6 23  4  0
  7 15  1  0
  7 17  1  0
  8 10  4  0
  8 25  4  0
  9 16  2  0
  9 20  1  0
 10 21  4  0
 11 25  4  0
 13 17  1  0
 13 22  1  0
 13 26  2  0
 14 19  4  0
 15 18  1  0
 16 22  2  0
 17 20  2  0
 18 24  4  0
 19 24  4  0
M  END
$$$$

 Created by Python create_sdf_string function

 26 42  0  0  0  0  0  0  0  0999 V2000
   10.8147   -3.9971   21.2441 C   0  0  0  0  0  0  0  0  0  0  0  0
   10.7804   -3.4293   19.0689 O   0  0  0  0  0  0  0  0  0  0  0  0
   10.1510   -3.2302   25.1546 C   0  0  0  0  0  0  0  0  0  0  0  0
    3.3951   -8.8741   16.3775 O   0  0  0  0  0  0  0  0  0  0  0  0
    9.8136   -3.4933   16.5810 N   0  0  0  0  0  0  0  0  0  0  0  0
    8.1811   -6.6567   17.5113 C   0  0  0  0  0  0  0  0  0  0  0  0
    4.9520   -8.9313   17.7267 C   0  0  0  0  0  0  0  0  0  0  0  0
    9.9012   -2.1049   22.7002 C   0  0  0  0  0  0  0  0  0  0  0  0
   10.9870   -3.6504   24.6202 N   0  0  0  0  0  0  0  0  0  0  0  0
   11.3706   -3.3363   19.6614 C   0  0  0  0  0  0  0  0  0  0  0  0
    6.6446   -7.3155   16.1150 C   0  0  0  0  0  0  0  0  0  0  0  0
   10.8940   -5.4282   20.5215 C   0  0  0  0  0  0  0  0  0  0  0  0
    8.6105   -6.1505   16.7408 C   0  0  0  0  0  0  0  0  0  0  0  0
    4.5068   -8.6829   16.7150 C   0  0  0  0  0  0  0  0  0  0  0  0
    6.8377   -7.6907   17.1450 C   0  0  0  0  0  0  0  0  0  0  0  0
    9.7501   -4.9255   17.3920 C   0  0  0  0  0  0  0  0  0  0  0  0
   10.2923   -5.9028   19.7505 C   0  0  0  0  0  0  0  0  0  0  0  0
    6.6448   -8.5356   18.2478 C   0  0  0  0  0  0  0  0  0  0  0  0
   10.1308   -1.9830   24.2786 C   0  0  0  0  0  0  0  0  0  0  0  0
    5.4315   -8.0611   15.7658 C   0  0  0  0  0  0  0  0  0  0  0  0
   10.5602   -3.0135   18.0675 N   0  0  0  0  0  0  0  0  0  0  0  0
   10.4484   -4.7340   18.4334 C   0  0  0  0  0  0  0  0  0  0  0  0
   11.0719   -4.5343   23.7938 C   0  0  0  0  0  0  0  0  0  0  0  0
    7.0675   -6.3953   14.9929 C   0  0  0  0  0  0  0  0  0  0  0  0
    8.1367   -5.9296   15.6701 He  0  0  0  0  0  0  0  0  0  0  0  0
   10.2637   -3.5713   22.0247 He  0  0  0  0  0  0  0  0  0  0  0  0
  1 10  4  0
  1 12  4  0
  1 15  3  0
  1 21  4  0
  2  7  3  0
  2  9  2  0
  2 10  4  0
  2 13  1  0
  2 21  4  0
  2 22  1  0
  3  9  4  0
  3 13  2  0
  3 18  2  0
  3 19  4  0
  4 14  1  0
  4 15  4  0
  5 11  4  0
  5 12  2  0
  5 13  3  0
  5 16  4  0
  5 21  4  0
  6 15  1  0
  6 20  1  0
  7 13  3  0
  7 14  2  0
  8 17  4  0
  8 19  4  0
  9 23  4  0
 10 19  1  0
 10 21  3  0
 11 15  1  0
 11 20  2  0
 11 24  3  0
 12 18  1  0
 13 16  2  0
 13 20  1  0
 14 20  2  0
 15 18  2  0
 15 21  3  0
 16 22  4  0
 17 22  4  0
 18 20  4  0
M  END
$$$$

 Created by Python create_sdf_string function

 26 30  0  0  0  0  0  0  0  0999 V2000
   10.8354   -4.0324   21.1700 C   0  0  0  0  0  0  0  0  0  0  0  0
    8.1397   -5.7528   15.5425 C   0  0  0  0  0  0  0  0  0  0  0  0
   10.7198   -3.5954   18.8299 C   0  0  0  0  0  0  0  0  0  0  0  0
   10.2799   -2.8659   25.1392 C   0  0  0  0  0  0  0  0  0  0  0  0
    3.3269   -8.9908   16.3980 O   0  0  0  0  0  0  0  0  0  0  0  0
    9.9313   -3.6913   16.7396 N   0  0  0  0  0  0  0  0  0  0  0  0
    8.1985   -6.8446   17.6402 C   0  0  0  0  0  0  0  0  0  0  0  0
   10.7465   -3.6166   22.4870 C   0  0  0  0  0  0  0  0  0  0  0  0
    5.1292   -8.9671   17.8168 C   0  0  0  0  0  0  0  0  0  0  0  0
   10.1285   -2.3877   22.7848 C   0  0  0  0  0  0  0  0  0  0  0  0
   10.8341   -4.0416   24.8779 N   0  0  0  0  0  0  0  0  0  0  0  0
   10.9824   -3.1822   20.0899 C   0  0  0  0  0  0  0  0  0  0  0  0
    6.4585   -7.3477   15.9899 C   0  0  0  0  0  0  0  0  0  0  0  0
   10.7098   -5.4215   20.8411 C   0  0  0  0  0  0  0  0  0  0  0  0
    8.6778   -5.8714   16.7924 C   0  0  0  0  0  0  0  0  0  0  0  0
    4.5215   -8.6536   16.6027 C   0  0  0  0  0  0  0  0  0  0  0  0
    7.0589   -7.5497   17.2952 C   0  0  0  0  0  0  0  0  0  0  0  0
    9.5968   -4.8828   17.3200 C   0  0  0  0  0  0  0  0  0  0  0  0
   10.4252   -5.8346   19.5063 C   0  0  0  0  0  0  0  0  0  0  0  0
    6.3548   -8.4425   18.1178 C   0  0  0  0  0  0  0  0  0  0  0  0
    9.8337   -2.0355   24.1121 C   0  0  0  0  0  0  0  0  0  0  0  0
    5.2643   -7.9625   15.7089 C   0  0  0  0  0  0  0  0  0  0  0  0
   10.6660   -2.8971   17.6670 N   0  0  0  0  0  0  0  0  0  0  0  0
   10.2613   -4.8834   18.6065 C   0  0  0  0  0  0  0  0  0  0  0  0
   11.1002   -4.4278   23.6079 C   0  0  0  0  0  0  0  0  0  0  0  0
    7.1328   -6.4770   15.1420 C   0  0  0  0  0  0  0  0  0  0  0  0
  1  8  1  0
  1 12  4  0
  1 14  4  0
  2 15  2  0
  2 26  2  0
  3 12  4  0
  3 23  4  0
  3 24  4  0
  4 11  4  0
  4 21  4  0
  5 16  1  0
  6 18  4  0
  6 23  4  0
  7 15  1  0
  7 17  1  0
  8 10  4  0
  8 25  4  0
  9 16  2  0
  9 20  1  0
 10 21  4  0
 11 25  4  0
 13 17  1  0
 13 22  2  0
 13 26  1  0
 14 19  4  0
 15 18  1  0
 16 22  2  0
 17 20  2  0
 18 24  4  0
 19 24  4  0
M  END
$$$$

 Created by Python create_sdf_string function

 26 48  0  0  0  0  0  0  0  0999 V2000
   10.8809   -4.2924   21.1851 C   0  0  0  0  0  0  0  0  0  0  0  0
    8.0574   -5.4654   15.6223 C   0  0  0  0  0  0  0  0  0  0  0  0
   10.6399   -3.5949   18.7627 C   0  0  0  0  0  0  0  0  0  0  0  0
   10.3322   -3.0535   24.8901 Cl  0  0  0  0  0  0  0  0  0  0  0  0
    3.3238   -8.7932   16.2736 O   0  0  0  0  0  0  0  0  0  0  0  0
   10.1552   -3.6207   17.1723 N   0  0  0  0  0  0  0  0  0  0  0  0
    8.0425   -6.7357   17.8871 C   0  0  0  0  0  0  0  0  0  0  0  0
   10.4362   -3.3481   22.5201 C   0  0  0  0  0  0  0  0  0  0  0  0
    5.0437   -9.0370   17.6034 C   0  0  0  0  0  0  0  0  0  0  0  0
   10.3387   -2.4935   22.4346 C   0  0  0  0  0  0  0  0  0  0  0  0
   10.6114   -4.1569   24.5124 N   0  0  0  0  0  0  0  0  0  0  0  0
   11.1669   -3.2784   20.0591 C   0  0  0  0  0  0  0  0  0  0  0  0
    6.9004   -7.5094   15.9993 C   0  0  0  0  0  0  0  0  0  0  0  0
   10.6738   -5.0536   20.6080 C   0  0  0  0  0  0  0  0  0  0  0  0
    8.5475   -5.9208   16.8752 C   0  0  0  0  0  0  0  0  0  0  0  0
    4.5459   -8.6658   16.6065 C   0  0  0  0  0  0  0  0  0  0  0  0
    7.1555   -7.7182   17.5486 C   0  0  0  0  0  0  0  0  0  0  0  0
    9.5431   -4.6251   17.4657 C   0  0  0  0  0  0  0  0  0  0  0  0
   10.3025   -5.7259   19.3728 C   0  0  0  0  0  0  0  0  0  0  0  0
    6.4591   -8.6749   18.2715 C   0  0  0  0  0  0  0  0  0  0  0  0
    9.7288   -2.1977   24.0867 C   0  0  0  0  0  0  0  0  0  0  0  0
    5.0654   -8.0439   15.6672 C   0  0  0  0  0  0  0  0  0  0  0  0
   10.5545   -4.9138   18.6802 C   0  0  0  0  0  0  0  0  0  0  0  0
   10.9737   -4.6752   23.7431 P   0  0  0  0  0  0  0  0  0  0  0  0
    7.1686   -6.6617   15.1535 C   0  0  0  0  0  0  0  0  0  0  0  0
   10.7202   -2.9426   17.6094 He  0  0  0  0  0  0  0  0  0  0  0  0
  1  8  1  0
  1  9  4  0
  1 12  4  0
  1 14  2  0
  1 23  2  0
  2  7  4  0
  2 11  2  0
  2 15  2  0
  2 22  2  0
  2 25  2  0
  3 12  4  0
  3 15  3  0
  3 23  4  0
  4 11  4  0
  4 21  4  0
  5 16  1  0
  6 10  3  0
  6 16  1  0
  6 18  4  0
  7 13  4  0
  7 15  1  0
  7 17  1  0
  8 10  4  0
  8 21  4  0
  8 24  4  0
  9 11  4  0
  9 17  1  0
  9 20  1  0
  9 23  3  0
 10 15  3  0
 10 21  4  0
 11 12  2  0
 11 24  4  0
 12 20  2  0
 12 23  1  0
 13 17  1  0
 13 22  2  0
 13 25  1  0
 14 19  4  0
 15 18  1  0
 16 22  2  0
 17 20  2  0
 17 24  1  0
 18 19  4  0
 18 23  4  0
 19 23  4  0
 20 25  3  0
 21 25  1  0
M  END
$$$$

 Created by Python create_sdf_string function

 26 30  0  0  0  0  0  0  0  0999 V2000
   10.8293   -4.0896   21.1455 C   0  0  0  0  0  0  0  0  0  0  0  0
    8.0867   -5.6506   15.6581 C   0  0  0  0  0  0  0  0  0  0  0  0
   10.7697   -3.5597   18.8505 C   0  0  0  0  0  0  0  0  0  0  0  0
   10.1496   -2.9963   25.0645 C   0  0  0  0  0  0  0  0  0  0  0  0
    3.3094   -8.8879   16.3041 O   0  0  0  0  0  0  0  0  0  0  0  0
   10.0299   -3.6328   16.7378 N   0  0  0  0  0  0  0  0  0  0  0  0
    8.1002   -6.7712   17.7839 C   0  0  0  0  0  0  0  0  0  0  0  0
   10.6901   -3.6882   22.4599 C   0  0  0  0  0  0  0  0  0  0  0  0
    5.1126   -9.0488   17.7464 C   0  0  0  0  0  0  0  0  0  0  0  0
   10.2065   -2.4059   22.7450 C   0  0  0  0  0  0  0  0  0  0  0  0
   10.7040   -4.1689   24.8102 N   0  0  0  0  0  0  0  0  0  0  0  0
   11.0686   -3.1860   20.0865 C   0  0  0  0  0  0  0  0  0  0  0  0
    6.5515   -7.4626   15.9743 C   0  0  0  0  0  0  0  0  0  0  0  0
   10.6737   -5.4539   20.8292 C   0  0  0  0  0  0  0  0  0  0  0  0
    8.6373   -5.7955   16.8874 C   0  0  0  0  0  0  0  0  0  0  0  0
    4.5465   -8.6478   16.5373 C   0  0  0  0  0  0  0  0  0  0  0  0
    7.0580   -7.6067   17.3438 C   0  0  0  0  0  0  0  0  0  0  0  0
    9.5948   -4.8243   17.3762 C   0  0  0  0  0  0  0  0  0  0  0  0
   10.3288   -5.8097   19.5300 C   0  0  0  0  0  0  0  0  0  0  0  0
    6.3268   -8.5449   18.1467 C   0  0  0  0  0  0  0  0  0  0  0  0
    9.9123   -2.0682   24.0810 C   0  0  0  0  0  0  0  0  0  0  0  0
    5.3390   -8.0206   15.6684 C   0  0  0  0  0  0  0  0  0  0  0  0
   10.7801   -2.8894   17.6005 N   0  0  0  0  0  0  0  0  0  0  0  0
   10.2134   -4.8018   18.6313 C   0  0  0  0  0  0  0  0  0  0  0  0
   10.9678   -4.5671   23.5446 C   0  0  0  0  0  0  0  0  0  0  0  0
    7.2381   -6.5565   15.1584 C   0  0  0  0  0  0  0  0  0  0  0  0
  1  8  1  0
  1 12  4  0
  1 14  4  0
  2 15  2  0
  2 26  2  0
  3 12  4  0
  3 23  4  0
  3 24  4  0
  4 11  4  0
  4 21  4  0
  5 16  1  0
  6 18  4  0
  6 23  4  0
  7 15  1  0
  7 17  1  0
  8 10  4  0
  8 25  4  0
  9 16  1  0
  9 20  1  0
 10 21  4  0
 11 25  4  0
 13 17  1  0
 13 22  2  0
 13 26  1  0
 14 19  4  0
 15 18  1  0
 16 22  2  0
 17 20  2  0
 18 24  4  0
 19 24  4  0
M  END
$$$$

 Created by Python create_sdf_string function

 26 35  0  0  0  0  0  0  0  0999 V2000
   10.6761   -4.0476   21.3480 C   0  0  0  0  0  0  0  0  0  0  0  0
   10.9349   -3.5900   18.5856 C   0  0  0  0  0  0  0  0  0  0  0  0
   10.1854   -2.9734   25.2587 C   0  0  0  0  0  0  0  0  0  0  0  0
    3.1666   -9.0557   16.4664 O   0  0  0  0  0  0  0  0  0  0  0  0
    9.8204   -3.4720   16.9203 N   0  0  0  0  0  0  0  0  0  0  0  0
    8.3463   -6.8201   17.9632 C   0  0  0  0  0  0  0  0  0  0  0  0
   10.7713   -3.6650   22.3686 C   0  0  0  0  0  0  0  0  0  0  0  0
    5.5245   -9.2332   18.1850 C   0  0  0  0  0  0  0  0  0  0  0  0
   10.3285   -2.2284   22.5763 S   0  0  0  0  0  0  0  0  0  0  0  0
   10.4198   -4.1609   24.6544 N   0  0  0  0  0  0  0  0  0  0  0  0
   11.0865   -3.2438   20.0972 F   0  0  0  0  0  0  0  0  0  0  0  0
    6.6176   -7.4572   16.4000 C   0  0  0  0  0  0  0  0  0  0  0  0
   10.5446   -5.6241   20.9714 C   0  0  0  0  0  0  0  0  0  0  0  0
    8.4394   -5.8625   16.8984 C   0  0  0  0  0  0  0  0  0  0  0  0
    4.7801   -8.6543   16.5781 C   0  0  0  0  0  0  0  0  0  0  0  0
    7.4023   -7.5399   17.3922 C   0  0  0  0  0  0  0  0  0  0  0  0
    9.7306   -4.6697   17.2175 C   0  0  0  0  0  0  0  0  0  0  0  0
   10.5457   -5.6317   19.5579 C   0  0  0  0  0  0  0  0  0  0  0  0
    6.0695   -8.4762   18.1379 C   0  0  0  0  0  0  0  0  0  0  0  0
    9.8426   -1.8916   23.7082 C   0  0  0  0  0  0  0  0  0  0  0  0
   10.8366   -2.7665   17.3724 N   0  0  0  0  0  0  0  0  0  0  0  0
   10.0720   -4.8713   18.5685 C   0  0  0  0  0  0  0  0  0  0  0  0
   10.9694   -4.8557   23.5279 C   0  0  0  0  0  0  0  0  0  0  0  0
    7.0260   -6.7184   14.8804 C   0  0  0  0  0  0  0  0  0  0  0  0
    8.1042   -5.8120   15.5596 He  0  0  0  0  0  0  0  0  0  0  0  0
    5.5479   -8.0718   15.4029 He  0  0  0  0  0  0  0  0  0  0  0  0
  1  7  1  0
  1 11  4  0
  1 13  4  0
  2 11  4  0
  2 20  3  0
  2 21  4  0
  3  9  1  0
  3 10  4  0
  3 15  1  0
  3 19  1  0
  3 20  4  0
  3 21  4  0
  4 15  1  0
  5 15  1  0
  5 17  4  0
  5 21  4  0
  6 14  1  0
  7  9  4  0
  7 23  4  0
  8 15  1  0
  8 16  2  0
  8 19  1  0
  9 20  4  0
 10 17  4  0
 10 18  3  0
 10 20  3  0
 10 23  4  0
 11 14  2  0
 12 16  4  0
 12 24  1  0
 13 18  4  0
 14 17  1  0
 16 19  2  0
 17 22  4  0
 18 22  4  0
M  END
$$$$

 Created by Python create_sdf_string function

 26 30  0  0  0  0  0  0  0  0999 V2000
   10.8214   -4.0987   21.1223 C   0  0  0  0  0  0  0  0  0  0  0  0
    8.1093   -5.7053   15.6003 C   0  0  0  0  0  0  0  0  0  0  0  0
   10.7330   -3.5615   18.7882 C   0  0  0  0  0  0  0  0  0  0  0  0
   10.0861   -2.9111   25.0494 C   0  0  0  0  0  0  0  0  0  0  0  0
    3.3599   -9.1076   16.4537 O   0  0  0  0  0  0  0  0  0  0  0  0
    9.9397   -3.6350   16.6811 N   0  0  0  0  0  0  0  0  0  0  0  0
    8.1930   -6.7806   17.7455 C   0  0  0  0  0  0  0  0  0  0  0  0
   10.6876   -3.6624   22.4349 C   0  0  0  0  0  0  0  0  0  0  0  0
    5.2672   -9.1089   17.8757 C   0  0  0  0  0  0  0  0  0  0  0  0
   10.3068   -2.3262   22.6997 C   0  0  0  0  0  0  0  0  0  0  0  0
   10.5941   -4.1391   24.8169 N   0  0  0  0  0  0  0  0  0  0  0  0
   11.0371   -3.2062   20.0726 C   0  0  0  0  0  0  0  0  0  0  0  0
    6.5371   -7.4672   16.0155 C   0  0  0  0  0  0  0  0  0  0  0  0
   10.6436   -5.4801   20.8138 C   0  0  0  0  0  0  0  0  0  0  0  0
    8.6347   -5.7837   16.8288 C   0  0  0  0  0  0  0  0  0  0  0  0
    4.6719   -8.7825   16.6264 C   0  0  0  0  0  0  0  0  0  0  0  0
    7.0903   -7.5459   17.3830 C   0  0  0  0  0  0  0  0  0  0  0  0
    9.5751   -4.7991   17.3036 C   0  0  0  0  0  0  0  0  0  0  0  0
   10.3211   -5.8067   19.4807 C   0  0  0  0  0  0  0  0  0  0  0  0
    6.3934   -8.4154   18.2612 C   0  0  0  0  0  0  0  0  0  0  0  0
    9.9631   -1.9535   24.0395 C   0  0  0  0  0  0  0  0  0  0  0  0
    5.3793   -8.1301   15.7226 C   0  0  0  0  0  0  0  0  0  0  0  0
   10.7209   -2.8697   17.5815 N   0  0  0  0  0  0  0  0  0  0  0  0
   10.2085   -4.8254   18.5797 C   0  0  0  0  0  0  0  0  0  0  0  0
   10.8668   -4.5353   23.5549 C   0  0  0  0  0  0  0  0  0  0  0  0
    7.1927   -6.6036   15.1408 C   0  0  0  0  0  0  0  0  0  0  0  0
  1  8  1  0
  1 12  4  0
  1 14  4  0
  2 15  2  0
  2 26  2  0
  3 12  4  0
  3 23  4  0
  3 24  4  0
  4 11  4  0
  4 21  4  0
  5 16  1  0
  6 18  4  0
  6 23  4  0
  7 15  1  0
  7 17  1  0
  8 10  4  0
  8 25  4  0
  9 16  1  0
  9 20  1  0
 10 21  4  0
 11 25  4  0
 13 17  1  0
 13 22  2  0
 13 26  1  0
 14 19  4  0
 15 18  1  0
 16 22  2  0
 17 20  2  0
 18 24  4  0
 19 24  4  0
M  END
$$$$

 Created by Python create_sdf_string function

 26 46  0  0  0  0  0  0  0  0999 V2000
   11.0722   -4.0353   21.0383 C   0  0  0  0  0  0  0  0  0  0  0  0
    8.1163   -5.8166   15.5061 N   0  0  0  0  0  0  0  0  0  0  0  0
   10.8519   -3.5479   18.8102 C   0  0  0  0  0  0  0  0  0  0  0  0
   10.2956   -2.8792   25.2399 C   0  0  0  0  0  0  0  0  0  0  0  0
    3.1070   -9.3673   16.2224 O   0  0  0  0  0  0  0  0  0  0  0  0
    9.9347   -3.3015   16.6514 N   0  0  0  0  0  0  0  0  0  0  0  0
    8.3933   -6.8485   17.7344 C   0  0  0  0  0  0  0  0  0  0  0  0
   10.8598   -3.5534   22.4332 C   0  0  0  0  0  0  0  0  0  0  0  0
    5.3511   -9.3121   17.6593 C   0  0  0  0  0  0  0  0  0  0  0  0
   10.4239   -2.3487   22.7734 C   0  0  0  0  0  0  0  0  0  0  0  0
   10.2382   -4.2144   24.8374 N   0  0  0  0  0  0  0  0  0  0  0  0
   11.1816   -2.8918   20.1774 C   0  0  0  0  0  0  0  0  0  0  0  0
    6.8029   -7.4548   16.0243 C   0  0  0  0  0  0  0  0  0  0  0  0
   10.5098   -5.4886   20.9369 C   0  0  0  0  0  0  0  0  0  0  0  0
    8.8415   -6.0752   16.8176 C   0  0  0  0  0  0  0  0  0  0  0  0
    4.4737   -8.8091   16.6229 C   0  0  0  0  0  0  0  0  0  0  0  0
    6.9932   -7.7381   17.6967 C   0  0  0  0  0  0  0  0  0  0  0  0
    9.5149   -4.6193   17.1470 C   0  0  0  0  0  0  0  0  0  0  0  0
   10.2560   -5.6992   19.5850 C   0  0  0  0  0  0  0  0  0  0  0  0
    6.3154   -8.6775   18.1867 C   0  0  0  0  0  0  0  0  0  0  0  0
   10.0941   -1.9208   24.0935 C   0  0  0  0  0  0  0  0  0  0  0  0
    5.6194   -8.1216   15.9723 C   0  0  0  0  0  0  0  0  0  0  0  0
   10.5311   -2.7719   17.5149 N   0  0  0  0  0  0  0  0  0  0  0  0
   10.1693   -4.9342   18.2480 C   0  0  0  0  0  0  0  0  0  0  0  0
   10.7323   -4.7509   23.6726 C   0  0  0  0  0  0  0  0  0  0  0  0
    7.0173   -6.4579   15.1425 C   0  0  0  0  0  0  0  0  0  0  0  0
  1  8  1  0
  1 12  4  0
  1 14  4  0
  1 25  3  0
  2 11  4  0
  2 15  2  0
  2 26  2  0
  3  7  4  0
  3 12  4  0
  3 23  4  0
  3 24  1  0
  4  7  2  0
  4 11  4  0
  4 21  4  0
  5  8  2  0
  5 16  1  0
  5 24  2  0
  6 18  4  0
  6 23  4  0
  7 10  1  0
  7 17  1  0
  7 24  4  0
  8 10  4  0
  8 25  4  0
  9 16  1  0
  9 20  1  0
 10 21  4  0
 11 21  1  0
 11 25  4  0
 11 26  1  0
 13 14  2  0
 13 17  1  0
 13 22  2  0
 14 16  3  0
 14 19  4  0
 16 22  2  0
 17 20  2  0
 17 22  4  0
 18 22  2  0
 18 24  4  0
 19 24  4  0
 19 25  2  0
 21 22  3  0
 21 26  2  0
 22 23  2  0
 25 26  2  0
M  END
$$$$

 Created by Python create_sdf_string function

 26 30  0  0  0  0  0  0  0  0999 V2000
   10.8238   -4.0256   21.1607 C   0  0  0  0  0  0  0  0  0  0  0  0
    8.1497   -5.7566   15.5719 C   0  0  0  0  0  0  0  0  0  0  0  0
   10.7074   -3.4837   18.8010 C   0  0  0  0  0  0  0  0  0  0  0  0
   10.1421   -2.8984   25.1450 C   0  0  0  0  0  0  0  0  0  0  0  0
    3.3527   -9.2850   16.2977 O   0  0  0  0  0  0  0  0  0  0  0  0
    9.9267   -3.5735   16.6713 N   0  0  0  0  0  0  0  0  0  0  0  0
    8.2522   -6.8785   17.6828 C   0  0  0  0  0  0  0  0  0  0  0  0
   10.7033   -3.6322   22.4899 C   0  0  0  0  0  0  0  0  0  0  0  0
    5.2771   -9.2608   17.7528 C   0  0  0  0  0  0  0  0  0  0  0  0
   10.4914   -2.2914   22.8178 C   0  0  0  0  0  0  0  0  0  0  0  0
   10.4900   -4.1690   24.8662 N   0  0  0  0  0  0  0  0  0  0  0  0
   11.0628   -3.1465   20.0720 C   0  0  0  0  0  0  0  0  0  0  0  0
    6.5056   -7.4499   16.0786 C   0  0  0  0  0  0  0  0  0  0  0  0
   10.6459   -5.3935   20.8214 C   0  0  0  0  0  0  0  0  0  0  0  0
    8.6852   -5.8569   16.7944 C   0  0  0  0  0  0  0  0  0  0  0  0
    4.6149   -8.8503   16.5795 C   0  0  0  0  0  0  0  0  0  0  0  0
    7.1199   -7.6423   17.3674 C   0  0  0  0  0  0  0  0  0  0  0  0
    9.5853   -4.8034   17.2578 C   0  0  0  0  0  0  0  0  0  0  0  0
   10.2710   -5.7268   19.5107 C   0  0  0  0  0  0  0  0  0  0  0  0
    6.4228   -8.5803   18.1536 C   0  0  0  0  0  0  0  0  0  0  0  0
   10.1565   -1.9224   24.1551 C   0  0  0  0  0  0  0  0  0  0  0  0
    5.3376   -8.0879   15.7684 C   0  0  0  0  0  0  0  0  0  0  0  0
   10.6545   -2.7868   17.6244 N   0  0  0  0  0  0  0  0  0  0  0  0
   10.1730   -4.7579   18.5700 C   0  0  0  0  0  0  0  0  0  0  0  0
   10.7537   -4.5485   23.5847 C   0  0  0  0  0  0  0  0  0  0  0  0
    7.1059   -6.5534   15.2109 C   0  0  0  0  0  0  0  0  0  0  0  0
  1  8  1  0
  1 12  4  0
  1 14  4  0
  2 15  2  0
  2 26  2  0
  3 12  4  0
  3 23  4  0
  3 24  4  0
  4 11  4  0
  4 21  4  0
  5 16  1  0
  6 18  4  0
  6 23  4  0
  7 15  1  0
  7 17  1  0
  8 10  4  0
  8 25  4  0
  9 16  1  0
  9 20  1  0
 10 21  4  0
 11 25  4  0
 13 17  1  0
 13 22  2  0
 13 26  1  0
 14 19  4  0
 15 18  1  0
 16 22  2  0
 17 20  2  0
 18 24  4  0
 19 24  4  0
M  END
$$$$

 Created by Python create_sdf_string function

 26 46  0  0  0  0  0  0  0  0999 V2000
   10.8414   -3.9548   21.0354 C   0  0  0  0  0  0  0  0  0  0  0  0
    8.1519   -5.4946   15.7674 F   0  0  0  0  0  0  0  0  0  0  0  0
   10.5706   -3.6971   18.9061 C   0  0  0  0  0  0  0  0  0  0  0  0
   10.1970   -2.7594   24.9631 C   0  0  0  0  0  0  0  0  0  0  0  0
    3.2429   -9.2795   16.3635 O   0  0  0  0  0  0  0  0  0  0  0  0
   10.1863   -3.3482   16.3869 N   0  0  0  0  0  0  0  0  0  0  0  0
    8.4746   -6.8491   17.9291 C   0  0  0  0  0  0  0  0  0  0  0  0
   10.6050   -3.5277   22.5348 C   0  0  0  0  0  0  0  0  0  0  0  0
    5.0387   -9.2836   17.8099 C   0  0  0  0  0  0  0  0  0  0  0  0
   10.4485   -2.4073   22.7833 C   0  0  0  0  0  0  0  0  0  0  0  0
   10.6493   -4.0946   25.1239 N   0  0  0  0  0  0  0  0  0  0  0  0
   11.0437   -3.1971   20.1836 C   0  0  0  0  0  0  0  0  0  0  0  0
    6.3088   -7.3658   16.1442 O   0  0  0  0  0  0  0  0  0  0  0  0
   10.4378   -5.3335   20.7379 C   0  0  0  0  0  0  0  0  0  0  0  0
    8.6598   -5.8561   16.8027 C   0  0  0  0  0  0  0  0  0  0  0  0
    4.3947   -8.8624   16.5341 C   0  0  0  0  0  0  0  0  0  0  0  0
    7.1374   -7.7878   17.4081 C   0  0  0  0  0  0  0  0  0  0  0  0
    9.7008   -4.7359   17.1053 C   0  0  0  0  0  0  0  0  0  0  0  0
   10.3610   -5.5917   19.5375 C   0  0  0  0  0  0  0  0  0  0  0  0
    6.4880   -8.5080   18.2810 C   0  0  0  0  0  0  0  0  0  0  0  0
   10.1034   -1.8651   24.2876 C   0  0  0  0  0  0  0  0  0  0  0  0
    5.2155   -8.1234   15.7925 C   0  0  0  0  0  0  0  0  0  0  0  0
   10.6549   -2.5956   17.6352 N   0  0  0  0  0  0  0  0  0  0  0  0
   10.2230   -4.7791   18.5175 C   0  0  0  0  0  0  0  0  0  0  0  0
   10.7863   -4.4755   23.3945 F   0  0  0  0  0  0  0  0  0  0  0  0
    7.1913   -6.4252   15.2990 C   0  0  0  0  0  0  0  0  0  0  0  0
  1  8  1  0
  1 12  4  0
  1 14  4  0
  1 23  1  0
  2  5  3  0
  2 15  2  0
  2 23  2  0
  2 26  2  0
  3  6  2  0
  3 11  4  0
  3 12  4  0
  3 23  4  0
  3 24  4  0
  4 11  4  0
  4 16  2  0
  4 21  4  0
  4 22  1  0
  5  7  2  0
  5 14  4  0
  6 14  3  0
  6 18  4  0
  6 23  4  0
  7 15  1  0
  7 17  1  0
  7 25  4  0
  8 10  4  0
  8 23  2  0
  8 25  4  0
  9 10  3  0
  9 15  1  0
  9 16  1  0
  9 20  1  0
 10 21  4  0
 11 25  4  0
 12 25  3  0
 13 17  1  0
 13 22  2  0
 13 24  2  0
 13 26  1  0
 14 19  4  0
 15 18  1  0
 16 19  4  0
 16 22  2  0
 16 24  1  0
 17 20  2  0
 18 24  4  0
M  END
$$$$

 Created by Python create_sdf_string function

 26 30  0  0  0  0  0  0  0  0999 V2000
   10.7288   -3.9907   21.1717 C   0  0  0  0  0  0  0  0  0  0  0  0
    8.0325   -5.6599   15.7015 C   0  0  0  0  0  0  0  0  0  0  0  0
   10.6953   -3.4864   18.8384 C   0  0  0  0  0  0  0  0  0  0  0  0
   10.2427   -2.8171   25.1818 C   0  0  0  0  0  0  0  0  0  0  0  0
    3.3410   -9.2289   16.3285 O   0  0  0  0  0  0  0  0  0  0  0  0
   10.0766   -3.5874   16.6438 N   0  0  0  0  0  0  0  0  0  0  0  0
    8.2944   -6.8928   17.6860 C   0  0  0  0  0  0  0  0  0  0  0  0
   10.6597   -3.5773   22.5118 C   0  0  0  0  0  0  0  0  0  0  0  0
    5.1787   -9.1791   17.8229 C   0  0  0  0  0  0  0  0  0  0  0  0
   10.3803   -2.2559   22.8261 C   0  0  0  0  0  0  0  0  0  0  0  0
   10.6031   -4.0828   24.8907 N   0  0  0  0  0  0  0  0  0  0  0  0
   10.9236   -3.1055   20.1134 C   0  0  0  0  0  0  0  0  0  0  0  0
    6.4130   -7.3586   16.1089 C   0  0  0  0  0  0  0  0  0  0  0  0
   10.5788   -5.3596   20.8647 C   0  0  0  0  0  0  0  0  0  0  0  0
    8.7141   -5.8282   16.8187 C   0  0  0  0  0  0  0  0  0  0  0  0
    4.5604   -8.7945   16.5934 C   0  0  0  0  0  0  0  0  0  0  0  0
    7.1223   -7.6367   17.3730 C   0  0  0  0  0  0  0  0  0  0  0  0
    9.6484   -4.7885   17.2726 C   0  0  0  0  0  0  0  0  0  0  0  0
   10.2765   -5.7258   19.5294 C   0  0  0  0  0  0  0  0  0  0  0  0
    6.3914   -8.5478   18.1713 C   0  0  0  0  0  0  0  0  0  0  0  0
   10.1249   -1.8770   24.1752 C   0  0  0  0  0  0  0  0  0  0  0  0
    5.2598   -8.0006   15.7775 C   0  0  0  0  0  0  0  0  0  0  0  0
   10.7374   -2.7831   17.6493 N   0  0  0  0  0  0  0  0  0  0  0  0
   10.2060   -4.7477   18.5952 C   0  0  0  0  0  0  0  0  0  0  0  0
   10.8120   -4.4688   23.5966 C   0  0  0  0  0  0  0  0  0  0  0  0
    7.0399   -6.4515   15.2842 C   0  0  0  0  0  0  0  0  0  0  0  0
  1  8  1  0
  1 12  4  0
  1 14  4  0
  2 15  2  0
  2 26  2  0
  3 12  4  0
  3 23  4  0
  3 24  4  0
  4 11  4  0
  4 21  4  0
  5 16  1  0
  6 18  4  0
  6 23  4  0
  7 15  1  0
  7 17  1  0
  8 10  4  0
  8 25  4  0
  9 16  1  0
  9 20  1  0
 10 21  4  0
 11 25  4  0
 13 17  1  0
 13 22  2  0
 13 26  1  0
 14 19  4  0
 15 18  1  0
 16 22  2  0
 17 20  2  0
 18 24  4  0
 19 24  4  0
M  END
$$$$

 Created by Python create_sdf_string function

 26 29  0  0  0  0  0  0  0  0999 V2000
   10.7739   -4.1478   20.9379 C   0  0  0  0  0  0  0  0  0  0  0  0
    8.4552   -5.6985   15.6594 C   0  0  0  0  0  0  0  0  0  0  0  0
   10.3737   -2.7907   24.9774 C   0  0  0  0  0  0  0  0  0  0  0  0
    8.4014   -7.0802   17.6637 C   0  0  0  0  0  0  0  0  0  0  0  0
   10.6885   -3.6248   22.4529 C   0  0  0  0  0  0  0  0  0  0  0  0
   10.6523   -2.3291   22.6599 C   0  0  0  0  0  0  0  0  0  0  0  0
   10.7615   -4.2753   24.6985 N   0  0  0  0  0  0  0  0  0  0  0  0
   11.0059   -3.1339   20.2443 C   0  0  0  0  0  0  0  0  0  0  0  0
    6.4623   -7.0884   15.9050 C   0  0  0  0  0  0  0  0  0  0  0  0
   10.5567   -5.4083   20.8560 C   0  0  0  0  0  0  0  0  0  0  0  0
    8.5299   -6.0703   16.9497 S   0  0  0  0  0  0  0  0  0  0  0  0
    4.7023   -8.4929   16.5709 C   0  0  0  0  0  0  0  0  0  0  0  0
    6.9867   -7.6604   17.3875 C   0  0  0  0  0  0  0  0  0  0  0  0
    9.9373   -4.7765   17.1711 C   0  0  0  0  0  0  0  0  0  0  0  0
   10.3908   -5.9006   19.2469 C   0  0  0  0  0  0  0  0  0  0  0  0
    9.9301   -1.5327   24.1456 C   0  0  0  0  0  0  0  0  0  0  0  0
    5.2519   -7.8427   15.8623 C   0  0  0  0  0  0  0  0  0  0  0  0
   10.8628   -2.5966   17.6884 N   0  0  0  0  0  0  0  0  0  0  0  0
   10.3481   -4.6498   18.6953 C   0  0  0  0  0  0  0  0  0  0  0  0
   10.9924   -4.4545   23.8493 C   0  0  0  0  0  0  0  0  0  0  0  0
    6.9528   -6.3991   15.2511 C   0  0  0  0  0  0  0  0  0  0  0  0
   10.7799   -3.8097   18.6575 He  0  0  0  0  0  0  0  0  0  0  0  0
    3.2784   -9.1730   16.3916 He  0  0  0  0  0  0  0  0  0  0  0  0
   10.1110   -3.6910   16.7427 He  0  0  0  0  0  0  0  0  0  0  0  0
    5.1862   -9.3553   17.7583 He  0  0  0  0  0  0  0  0  0  0  0  0
    6.2158   -8.5743   18.1317 He  0  0  0  0  0  0  0  0  0  0  0  0
  1  5  1  0
  1  8  4  0
  1 10  4  0
  2 11  2  0
  2 18  1  0
  2 20  4  0
  2 21  2  0
  3  4  3  0
  3  7  4  0
  3 16  4  0
  4 11  1  0
  4 16  2  0
  5  6  4  0
  5 20  4  0
  6  9  1  0
  6 16  4  0
  7 16  2  0
  7 20  4  0
  9 13  1  0
  9 17  2  0
  9 21  1  0
 11 14  1  0
 11 21  3  0
 12 17  2  0
 13 18  2  0
 14 19  4  0
 15 16  1  0
 15 19  4  0
 17 20  3  0
M  END
$$$$

 Created by Python create_sdf_string function

 26 30  0  0  0  0  0  0  0  0999 V2000
   10.8237   -4.0667   21.1499 C   0  0  0  0  0  0  0  0  0  0  0  0
    8.1955   -5.7143   15.6122 C   0  0  0  0  0  0  0  0  0  0  0  0
   10.7619   -3.5799   18.8423 C   0  0  0  0  0  0  0  0  0  0  0  0
   10.3131   -2.8140   25.1118 C   0  0  0  0  0  0  0  0  0  0  0  0
    3.3255   -9.1212   16.3626 N   0  0  0  0  0  0  0  0  0  0  0  0
   10.1659   -3.6567   16.7179 C   0  0  0  0  0  0  0  0  0  0  0  0
    8.2817   -6.9606   17.6177 C   0  0  0  0  0  0  0  0  0  0  0  0
   10.7461   -3.6036   22.4651 C   0  0  0  0  0  0  0  0  0  0  0  0
    5.2248   -9.1229   17.7323 C   0  0  0  0  0  0  0  0  0  0  0  0
   10.4288   -2.2743   22.7574 C   0  0  0  0  0  0  0  0  0  0  0  0
   10.7247   -4.0611   24.8625 N   0  0  0  0  0  0  0  0  0  0  0  0
   11.0194   -3.1808   20.0891 C   0  0  0  0  0  0  0  0  0  0  0  0
    6.4262   -7.2396   16.0864 C   0  0  0  0  0  0  0  0  0  0  0  0
   10.6428   -5.4323   20.8733 C   0  0  0  0  0  0  0  0  0  0  0  0
    8.7732   -5.8924   16.8162 C   0  0  0  0  0  0  0  0  0  0  0  0
    4.5549   -8.6846   16.6056 C   0  0  0  0  0  0  0  0  0  0  0  0
    7.0612   -7.6077   17.3223 C   0  0  0  0  0  0  0  0  0  0  0  0
    9.7160   -4.8943   17.3235 C   0  0  0  0  0  0  0  0  0  0  0  0
   10.3414   -5.8365   19.5493 C   0  0  0  0  0  0  0  0  0  0  0  0
    6.3920   -8.5385   18.0920 C   0  0  0  0  0  0  0  0  0  0  0  0
   10.1725   -1.8635   24.0906 C   0  0  0  0  0  0  0  0  0  0  0  0
    5.1962   -7.7943   15.8145 C   0  0  0  0  0  0  0  0  0  0  0  0
   10.8095   -2.8664   17.6583 N   0  0  0  0  0  0  0  0  0  0  0  0
   10.2655   -4.8588   18.6126 C   0  0  0  0  0  0  0  0  0  0  0  0
   10.9196   -4.4777   23.5940 C   0  0  0  0  0  0  0  0  0  0  0  0
    7.0830   -6.3492   15.2621 C   0  0  0  0  0  0  0  0  0  0  0  0
  1  8  1  0
  1 12  4  0
  1 14  4  0
  2 15  2  0
  2 26  2  0
  3 12  4  0
  3 23  4  0
  3 24  4  0
  4 11  4  0
  4 21  4  0
  5 16  1  0
  6 18  4  0
  6 23  4  0
  7 15  1  0
  7 17  1  0
  8 10  4  0
  8 25  4  0
  9 16  1  0
  9 20  1  0
 10 21  4  0
 11 25  4  0
 13 17  1  0
 13 22  2  0
 13 26  1  0
 14 19  4  0
 15 18  1  0
 16 22  2  0
 17 20  2  0
 18 24  4  0
 19 24  4  0
M  END
$$$$

 Created by Python create_sdf_string function

 26 37  0  0  0  0  0  0  0  0999 V2000
   10.7894   -3.9561   21.1892 C   0  0  0  0  0  0  0  0  0  0  0  0
    8.2339   -5.7941   15.6348 C   0  0  0  0  0  0  0  0  0  0  0  0
   10.5828   -3.4591   19.0100 C   0  0  0  0  0  0  0  0  0  0  0  0
   10.2590   -2.7516   25.1355 C   0  0  0  0  0  0  0  0  0  0  0  0
    3.3398   -9.0268   16.2096 N   0  0  0  0  0  0  0  0  0  0  0  0
    9.9950   -3.6600   16.9219 C   0  0  0  0  0  0  0  0  0  0  0  0
    8.3351   -6.9189   17.8771 C   0  0  0  0  0  0  0  0  0  0  0  0
   10.5326   -3.5963   22.4375 C   0  0  0  0  0  0  0  0  0  0  0  0
    5.0571   -8.9849   17.4230 C   0  0  0  0  0  0  0  0  0  0  0  0
   10.2837   -2.2899   22.6085 C   0  0  0  0  0  0  0  0  0  0  0  0
   10.6694   -3.9133   24.6873 N   0  0  0  0  0  0  0  0  0  0  0  0
   11.1420   -3.1633   20.1228 C   0  0  0  0  0  0  0  0  0  0  0  0
   10.5789   -5.3118   20.7710 C   0  0  0  0  0  0  0  0  0  0  0  0
    8.7392   -5.8818   16.6987 C   0  0  0  0  0  0  0  0  0  0  0  0
    4.3952   -8.7471   16.5265 C   0  0  0  0  0  0  0  0  0  0  0  0
    7.0180   -7.6381   17.2902 C   0  0  0  0  0  0  0  0  0  0  0  0
    9.6015   -5.0093   17.2262 C   0  0  0  0  0  0  0  0  0  0  0  0
   10.5564   -5.9777   19.6095 C   0  0  0  0  0  0  0  0  0  0  0  0
    6.2949   -8.7186   18.0718 C   0  0  0  0  0  0  0  0  0  0  0  0
    5.1945   -7.8102   15.9964 C   0  0  0  0  0  0  0  0  0  0  0  0
   10.7428   -2.9078   17.8132 N   0  0  0  0  0  0  0  0  0  0  0  0
   10.2706   -4.8808   18.5250 C   0  0  0  0  0  0  0  0  0  0  0  0
   10.9309   -4.3064   23.5574 C   0  0  0  0  0  0  0  0  0  0  0  0
    7.1702   -6.3668   15.2773 C   0  0  0  0  0  0  0  0  0  0  0  0
    6.4388   -7.1816   16.0911 He  0  0  0  0  0  0  0  0  0  0  0  0
   10.4554   -1.9199   24.2219 He  0  0  0  0  0  0  0  0  0  0  0  0
  1  3  1  0
  1  8  1  0
  1 12  4  0
  1 13  4  0
  1 20  4  0
  2 12  3  0
  2 14  2  0
  2 24  2  0
  3 12  4  0
  3 22  4  0
  4 11  4  0
  4 15  3  0
  5  6  4  0
  5 15  1  0
  6  9  2  0
  6 17  4  0
  6 21  4  0
  7 10  3  0
  7 16  1  0
  7 19  2  0
  7 21  3  0
  8 17  4  0
  8 18  2  0
  8 23  4  0
  9 15  1  0
  9 19  1  0
 10 13  3  0
 10 15  4  0
 11 13  3  0
 11 23  4  0
 12 21  1  0
 13 18  4  0
 14 17  1  0
 15 20  3  0
 16 19  2  0
 17 22  4  0
 18 22  4  0
M  END
$$$$

 Created by Python create_sdf_string function

 26 30  0  0  0  0  0  0  0  0999 V2000
   10.7755   -4.0135   21.1991 C   0  0  0  0  0  0  0  0  0  0  0  0
    8.1692   -5.7719   15.6468 C   0  0  0  0  0  0  0  0  0  0  0  0
   10.7066   -3.5906   18.9062 C   0  0  0  0  0  0  0  0  0  0  0  0
   10.3731   -2.7342   25.1414 C   0  0  0  0  0  0  0  0  0  0  0  0
    3.2802   -9.0420   16.2004 N   0  0  0  0  0  0  0  0  0  0  0  0
   10.0441   -3.6885   16.7979 C   0  0  0  0  0  0  0  0  0  0  0  0
    8.2243   -6.9337   17.6913 C   0  0  0  0  0  0  0  0  0  0  0  0
   10.7022   -3.5566   22.5230 C   0  0  0  0  0  0  0  0  0  0  0  0
    5.1343   -9.0911   17.6399 C   0  0  0  0  0  0  0  0  0  0  0  0
   10.3959   -2.1990   22.8136 C   0  0  0  0  0  0  0  0  0  0  0  0
   10.6878   -3.9993   24.8604 N   0  0  0  0  0  0  0  0  0  0  0  0
   10.9392   -3.1540   20.1413 C   0  0  0  0  0  0  0  0  0  0  0  0
    6.3741   -7.2528   16.0826 C   0  0  0  0  0  0  0  0  0  0  0  0
   10.6780   -5.4058   20.9343 C   0  0  0  0  0  0  0  0  0  0  0  0
    8.7404   -5.9054   16.8576 C   0  0  0  0  0  0  0  0  0  0  0  0
    4.4856   -8.6296   16.4958 C   0  0  0  0  0  0  0  0  0  0  0  0
    7.0439   -7.6118   17.3279 C   0  0  0  0  0  0  0  0  0  0  0  0
    9.6526   -4.9312   17.3774 C   0  0  0  0  0  0  0  0  0  0  0  0
   10.3622   -5.8609   19.6364 C   0  0  0  0  0  0  0  0  0  0  0  0
    6.3340   -8.5947   18.0258 C   0  0  0  0  0  0  0  0  0  0  0  0
   10.1790   -1.8246   24.1529 N   0  0  0  0  0  0  0  0  0  0  0  0
    5.1661   -7.7290   15.7818 C   0  0  0  0  0  0  0  0  0  0  0  0
   10.6668   -2.8811   17.7257 N   0  0  0  0  0  0  0  0  0  0  0  0
   10.2462   -4.8873   18.6785 C   0  0  0  0  0  0  0  0  0  0  0  0
   10.8442   -4.4271   23.6006 C   0  0  0  0  0  0  0  0  0  0  0  0
    7.0648   -6.3974   15.2685 C   0  0  0  0  0  0  0  0  0  0  0  0
  1  8  1  0
  1 12  4  0
  1 14  4  0
  2 15  2  0
  2 26  2  0
  3 12  4  0
  3 23  4  0
  3 24  4  0
  4 11  4  0
  4 21  4  0
  5 16  1  0
  6 18  4  0
  6 23  4  0
  7 15  1  0
  7 17  1  0
  8 10  4  0
  8 25  4  0
  9 16  1  0
  9 20  1  0
 10 21  4  0
 11 25  4  0
 13 17  1  0
 13 22  2  0
 13 26  1  0
 14 19  4  0
 15 18  1  0
 16 22  1  0
 17 20  2  0
 18 24  4  0
 19 24  4  0
M  END
$$$$

 Created by Python create_sdf_string function

 26 39  0  0  0  0  0  0  0  0999 V2000
   10.7597   -3.9465   21.2923 C   0  0  0  0  0  0  0  0  0  0  0  0
    8.1933   -5.7949   15.7738 F   0  0  0  0  0  0  0  0  0  0  0  0
   10.7617   -3.5516   19.0264 C   0  0  0  0  0  0  0  0  0  0  0  0
   10.3601   -2.6818   25.1645 C   0  0  0  0  0  0  0  0  0  0  0  0
    3.3217   -8.9331   16.3721 N   0  0  0  0  0  0  0  0  0  0  0  0
    9.9513   -3.9278   16.7683 C   0  0  0  0  0  0  0  0  0  0  0  0
    8.3887   -6.7852   17.7841 C   0  0  0  0  0  0  0  0  0  0  0  0
   10.8446   -3.4608   22.4935 C   0  0  0  0  0  0  0  0  0  0  0  0
    5.1273   -9.0876   17.5716 C   0  0  0  0  0  0  0  0  0  0  0  0
   10.3251   -2.2183   22.9047 C   0  0  0  0  0  0  0  0  0  0  0  0
   10.8740   -4.0617   24.7891 N   0  0  0  0  0  0  0  0  0  0  0  0
   10.8560   -3.2893   19.9785 C   0  0  0  0  0  0  0  0  0  0  0  0
    6.3600   -7.1498   16.0029 C   0  0  0  0  0  0  0  0  0  0  0  0
   10.6172   -5.2941   20.8079 C   0  0  0  0  0  0  0  0  0  0  0  0
    8.8177   -5.8768   16.9766 C   0  0  0  0  0  0  0  0  0  0  0  0
    4.1526   -8.6314   16.5570 C   0  0  0  0  0  0  0  0  0  0  0  0
    7.0422   -7.3155   17.1159 C   0  0  0  0  0  0  0  0  0  0  0  0
    9.6491   -4.9927   17.3877 O   0  0  0  0  0  0  0  0  0  0  0  0
   10.2830   -5.9598   19.7684 C   0  0  0  0  0  0  0  0  0  0  0  0
    6.4349   -8.3498   18.0515 C   0  0  0  0  0  0  0  0  0  0  0  0
   10.1639   -1.7611   24.2802 N   0  0  0  0  0  0  0  0  0  0  0  0
    5.1500   -7.9317   15.8707 C   0  0  0  0  0  0  0  0  0  0  0  0
   10.3414   -2.9695   17.7521 N   0  0  0  0  0  0  0  0  0  0  0  0
   10.1317   -4.9565   18.8454 C   0  0  0  0  0  0  0  0  0  0  0  0
   10.9214   -4.2950   23.6311 C   0  0  0  0  0  0  0  0  0  0  0  0
    6.9770   -6.3894   15.3349 C   0  0  0  0  0  0  0  0  0  0  0  0
  1  8  1  0
  1 12  4  0
  1 14  4  0
  1 17  4  0
  2  6  1  0
  2 15  2  0
  2 26  2  0
  3  9  1  0
  3 12  4  0
  3 23  3  0
  3 24  4  0
  4  6  3  0
  4 11  4  0
  4 21  4  0
  5 16  1  0
  6 18  4  0
  6 23  4  0
  7 15  1  0
  7 17  1  0
  8  9  4  0
  8 10  4  0
  8 24  2  0
  8 25  4  0
  9 16  1  0
  9 20  1  0
 10 21  4  0
 10 25  4  0
 11 25  4  0
 13 22  2  0
 13 26  1  0
 14 19  4  0
 14 21  4  0
 15 18  1  0
 16 22  1  0
 17 20  2  0
 17 24  4  0
 19 24  4  0
 20 21  4  0
 24 26  1  0
M  END
$$$$

 Created by Python create_sdf_string function

 26 30  0  0  0  0  0  0  0  0999 V2000
   10.7433   -3.9979   21.2508 C   0  0  0  0  0  0  0  0  0  0  0  0
    8.1288   -5.7483   15.6799 C   0  0  0  0  0  0  0  0  0  0  0  0
   10.5691   -3.5994   18.9178 C   0  0  0  0  0  0  0  0  0  0  0  0
   10.3881   -2.6979   25.1967 C   0  0  0  0  0  0  0  0  0  0  0  0
    3.2384   -8.9753   16.3383 N   0  0  0  0  0  0  0  0  0  0  0  0
    9.9845   -3.7939   16.8078 C   0  0  0  0  0  0  0  0  0  0  0  0
    8.1816   -6.9039   17.6887 C   0  0  0  0  0  0  0  0  0  0  0  0
   10.7069   -3.5180   22.5544 C   0  0  0  0  0  0  0  0  0  0  0  0
    5.1478   -9.0495   17.6839 C   0  0  0  0  0  0  0  0  0  0  0  0
   10.3637   -2.1977   22.8939 C   0  0  0  0  0  0  0  0  0  0  0  0
   10.8067   -3.9253   24.9326 N   0  0  0  0  0  0  0  0  0  0  0  0
   10.8529   -3.1571   20.1412 C   0  0  0  0  0  0  0  0  0  0  0  0
    6.3442   -7.2220   16.0647 C   0  0  0  0  0  0  0  0  0  0  0  0
   10.6205   -5.3785   20.9964 C   0  0  0  0  0  0  0  0  0  0  0  0
    8.7093   -5.8874   16.8759 C   0  0  0  0  0  0  0  0  0  0  0  0
    4.4309   -8.5531   16.5884 C   0  0  0  0  0  0  0  0  0  0  0  0
    7.0078   -7.5153   17.3267 C   0  0  0  0  0  0  0  0  0  0  0  0
    9.6136   -4.9840   17.4239 C   0  0  0  0  0  0  0  0  0  0  0  0
   10.2822   -5.8526   19.7098 C   0  0  0  0  0  0  0  0  0  0  0  0
    6.3159   -8.4480   18.0567 C   0  0  0  0  0  0  0  0  0  0  0  0
   10.1655   -1.8073   24.2044 N   0  0  0  0  0  0  0  0  0  0  0  0
    5.1425   -7.7647   15.7500 C   0  0  0  0  0  0  0  0  0  0  0  0
   10.5645   -2.9402   17.6949 N   0  0  0  0  0  0  0  0  0  0  0  0
   10.1466   -4.9215   18.7468 C   0  0  0  0  0  0  0  0  0  0  0  0
   10.9854   -4.3372   23.6570 C   0  0  0  0  0  0  0  0  0  0  0  0
    7.0270   -6.3423   15.2784 C   0  0  0  0  0  0  0  0  0  0  0  0
  1  8  1  0
  1 12  4  0
  1 14  4  0
  2 15  2  0
  2 26  2  0
  3 12  4  0
  3 23  4  0
  3 24  4  0
  4 11  4  0
  4 21  4  0
  5 16  1  0
  6 18  4  0
  6 23  4  0
  7 15  1  0
  7 17  1  0
  8 10  4  0
  8 25  4  0
  9 16  1  0
  9 20  1  0
 10 21  4  0
 11 25  4  0
 13 17  1  0
 13 22  2  0
 13 26  1  0
 14 19  4  0
 15 18  1  0
 16 22  1  0
 17 20  2  0
 18 24  4  0
 19 24  4  0
M  END
$$$$

 Created by Python create_sdf_string function

 26 38  0  0  0  0  0  0  0  0999 V2000
   10.8351   -4.1169   21.1369 C   0  0  0  0  0  0  0  0  0  0  0  0
    8.0866   -5.8599   15.5922 C   0  0  0  0  0  0  0  0  0  0  0  0
   10.4436   -3.7324   18.8188 C   0  0  0  0  0  0  0  0  0  0  0  0
   10.3300   -2.7112   25.1871 C   0  0  0  0  0  0  0  0  0  0  0  0
    3.3418   -9.0161   16.5047 N   0  0  0  0  0  0  0  0  0  0  0  0
   10.1055   -3.8955   16.7006 C   0  0  0  0  0  0  0  0  0  0  0  0
    8.1898   -6.8319   17.5362 C   0  0  0  0  0  0  0  0  0  0  0  0
   10.5836   -3.5678   22.5582 C   0  0  0  0  0  0  0  0  0  0  0  0
    4.9054   -9.0307   17.5725 C   0  0  0  0  0  0  0  0  0  0  0  0
   10.2676   -2.2144   22.9397 O   0  0  0  0  0  0  0  0  0  0  0  0
   10.7642   -4.0746   25.0625 N   0  0  0  0  0  0  0  0  0  0  0  0
   10.9315   -3.2087   20.4127 P   0  0  0  0  0  0  0  0  0  0  0  0
    6.2831   -7.2584   16.1624 C   0  0  0  0  0  0  0  0  0  0  0  0
   10.5192   -5.3569   21.0756 C   0  0  0  0  0  0  0  0  0  0  0  0
    8.7292   -5.8483   16.8627 C   0  0  0  0  0  0  0  0  0  0  0  0
    4.4692   -8.4358   16.6289 C   0  0  0  0  0  0  0  0  0  0  0  0
    6.9693   -7.6896   17.6005 C   0  0  0  0  0  0  0  0  0  0  0  0
    9.5698   -4.9296   17.5612 C   0  0  0  0  0  0  0  0  0  0  0  0
   10.1607   -5.9691   19.4602 C   0  0  0  0  0  0  0  0  0  0  0  0
    6.2515   -8.5445   18.1705 C   0  0  0  0  0  0  0  0  0  0  0  0
   10.0194   -1.7219   24.5215 N   0  0  0  0  0  0  0  0  0  0  0  0
    5.1619   -7.7851   15.9358 C   0  0  0  0  0  0  0  0  0  0  0  0
   10.5727   -3.0853   17.4763 N   0  0  0  0  0  0  0  0  0  0  0  0
   10.1376   -4.8997   18.7150 C   0  0  0  0  0  0  0  0  0  0  0  0
   11.0153   -4.3028   23.7548 C   0  0  0  0  0  0  0  0  0  0  0  0
    7.1514   -6.3507   15.5043 C   0  0  0  0  0  0  0  0  0  0  0  0
  1  8  1  0
  1 12  4  0
  1 14  4  0
  2 15  2  0
  2 17  3  0
  2 26  2  0
  3 12  4  0
  3 23  4  0
  3 24  4  0
  3 26  4  0
  4 11  4  0
  4 17  2  0
  4 21  4  0
  5  8  2  0
  5 16  1  0
  6 18  4  0
  6 23  4  0
  7 15  1  0
  7 17  1  0
  7 19  4  0
  7 24  4  0
  8 10  4  0
  8 25  4  0
  9 16  1  0
  9 20  1  0
 10 21  4  0
 13 17  1  0
 13 26  1  0
 14 19  4  0
 15 18  1  0
 15 20  4  0
 16 20  4  0
 16 21  2  0
 16 22  1  0
 17 20  2  0
 18 24  4  0
 19 22  4  0
 19 24  4  0
M  END
$$$$

 Created by Python create_sdf_string function

 26 30  0  0  0  0  0  0  0  0999 V2000
   10.6824   -4.0459   21.2858 C   0  0  0  0  0  0  0  0  0  0  0  0
    8.0856   -5.7757   15.6643 C   0  0  0  0  0  0  0  0  0  0  0  0
   10.5974   -3.6509   18.9073 C   0  0  0  0  0  0  0  0  0  0  0  0
   10.3160   -2.7160   25.2683 C   0  0  0  0  0  0  0  0  0  0  0  0
    3.2104   -8.9350   16.3793 N   0  0  0  0  0  0  0  0  0  0  0  0
   10.0582   -3.8356   16.7599 C   0  0  0  0  0  0  0  0  0  0  0  0
    8.1461   -6.9492   17.7132 C   0  0  0  0  0  0  0  0  0  0  0  0
   10.6560   -3.5593   22.6285 C   0  0  0  0  0  0  0  0  0  0  0  0
    5.0466   -9.0443   17.7667 C   0  0  0  0  0  0  0  0  0  0  0  0
   10.2565   -2.2501   22.9356 C   0  0  0  0  0  0  0  0  0  0  0  0
   10.7823   -3.9536   25.0282 N   0  0  0  0  0  0  0  0  0  0  0  0
   10.8294   -3.1975   20.1796 C   0  0  0  0  0  0  0  0  0  0  0  0
    6.3092   -7.2492   16.1449 C   0  0  0  0  0  0  0  0  0  0  0  0
   10.5621   -5.4234   21.0234 C   0  0  0  0  0  0  0  0  0  0  0  0
    8.6670   -5.9215   16.8917 C   0  0  0  0  0  0  0  0  0  0  0  0
    4.3951   -8.5526   16.6412 C   0  0  0  0  0  0  0  0  0  0  0  0
    6.9574   -7.5785   17.3923 C   0  0  0  0  0  0  0  0  0  0  0  0
    9.5961   -4.9973   17.4028 C   0  0  0  0  0  0  0  0  0  0  0  0
   10.1930   -5.8542   19.7090 C   0  0  0  0  0  0  0  0  0  0  0  0
    6.2354   -8.5273   18.1398 C   0  0  0  0  0  0  0  0  0  0  0  0
   10.0567   -1.8461   24.2542 N   0  0  0  0  0  0  0  0  0  0  0  0
    5.1069   -7.7377   15.8655 C   0  0  0  0  0  0  0  0  0  0  0  0
   10.6553   -2.9935   17.6866 N   0  0  0  0  0  0  0  0  0  0  0  0
   10.1100   -4.9176   18.7227 C   0  0  0  0  0  0  0  0  0  0  0  0
   10.9397   -4.3872   23.7326 C   0  0  0  0  0  0  0  0  0  0  0  0
    6.9938   -6.3988   15.3275 C   0  0  0  0  0  0  0  0  0  0  0  0
  1  8  1  0
  1 12  4  0
  1 14  4  0
  2 15  2  0
  2 26  2  0
  3 12  4  0
  3 23  4  0
  3 24  4  0
  4 11  4  0
  4 21  4  0
  5 16  1  0
  6 18  4  0
  6 23  4  0
  7 15  1  0
  7 17  1  0
  8 10  4  0
  8 25  4  0
  9 16  1  0
  9 20  1  0
 10 21  4  0
 11 25  4  0
 13 17  1  0
 13 22  2  0
 13 26  1  0
 14 19  4  0
 15 18  1  0
 16 22  1  0
 17 20  2  0
 18 24  4  0
 19 24  4  0
M  END
$$$$

 Created by Python create_sdf_string function

 26 39  0  0  0  0  0  0  0  0999 V2000
   10.7929   -4.0342   21.2295 C   0  0  0  0  0  0  0  0  0  0  0  0
    8.0377   -5.7086   15.6538 C   0  0  0  0  0  0  0  0  0  0  0  0
   10.6652   -3.6262   18.7064 C   0  0  0  0  0  0  0  0  0  0  0  0
   10.4373   -2.7391   25.3114 C   0  0  0  0  0  0  0  0  0  0  0  0
   10.2234   -3.9471   16.5629 C   0  0  0  0  0  0  0  0  0  0  0  0
    8.1338   -6.8277   17.6197 C   0  0  0  0  0  0  0  0  0  0  0  0
   10.6936   -3.5172   22.5796 C   0  0  0  0  0  0  0  0  0  0  0  0
    5.0675   -8.8689   17.7029 C   0  0  0  0  0  0  0  0  0  0  0  0
   10.2426   -2.4260   22.8047 C   0  0  0  0  0  0  0  0  0  0  0  0
   10.6959   -3.7472   25.0896 N   0  0  0  0  0  0  0  0  0  0  0  0
   10.9717   -3.3156   20.3210 C   0  0  0  0  0  0  0  0  0  0  0  0
    6.1972   -7.3049   16.2612 C   0  0  0  0  0  0  0  0  0  0  0  0
   10.5513   -5.4708   20.8587 C   0  0  0  0  0  0  0  0  0  0  0  0
    8.6235   -5.9248   16.9142 C   0  0  0  0  0  0  0  0  0  0  0  0
    4.5125   -8.4377   16.4437 C   0  0  0  0  0  0  0  0  0  0  0  0
    7.1060   -7.6036   17.1463 C   0  0  0  0  0  0  0  0  0  0  0  0
    9.4234   -4.8383   17.4934 C   0  0  0  0  0  0  0  0  0  0  0  0
   10.2465   -6.0136   19.6979 C   0  0  0  0  0  0  0  0  0  0  0  0
    6.1004   -8.3938   18.1294 C   0  0  0  0  0  0  0  0  0  0  0  0
    9.9188   -1.9405   24.1290 N   0  0  0  0  0  0  0  0  0  0  0  0
    5.0596   -7.7058   15.9974 C   0  0  0  0  0  0  0  0  0  0  0  0
   10.7751   -3.0111   17.7373 C   0  0  0  0  0  0  0  0  0  0  0  0
   10.1712   -5.0581   18.7836 C   0  0  0  0  0  0  0  0  0  0  0  0
   10.9705   -4.5323   23.6019 C   0  0  0  0  0  0  0  0  0  0  0  0
    6.9344   -6.2335   15.3767 C   0  0  0  0  0  0  0  0  0  0  0  0
    3.1361   -8.9026   16.3964 He  0  0  0  0  0  0  0  0  0  0  0  0
  1  7  1  0
  1 11  4  0
  1 13  4  0
  1 17  4  0
  1 18  1  0
  2  7  2  0
  2 14  2  0
  2 17  4  0
  2 25  2  0
  3  6  3  0
  3 11  4  0
  3 14  1  0
  3 22  4  0
  3 23  4  0
  4 10  4  0
  4 20  4  0
  5 14  4  0
  5 17  4  0
  5 22  4  0
  6 14  1  0
  6 16  1  0
  7  9  4  0
  7 22  3  0
  7 24  4  0
  8 15  1  0
  8 19  1  0
  9 20  4  0
 10 14  1  0
 10 24  4  0
 12 14  3  0
 12 21  2  0
 12 25  1  0
 13 18  4  0
 14 17  1  0
 15 21  1  0
 16 19  2  0
 17 23  4  0
 19 23  2  0
 22 24  1  0
M  END
$$$$

 Created by Python create_sdf_string function

 26 30  0  0  0  0  0  0  0  0999 V2000
   10.7331   -4.1031   21.2845 C   0  0  0  0  0  0  0  0  0  0  0  0
    8.0082   -5.6558   15.6746 C   0  0  0  0  0  0  0  0  0  0  0  0
   10.6988   -3.6756   18.9369 C   0  0  0  0  0  0  0  0  0  0  0  0
   10.3081   -2.6983   25.1994 C   0  0  0  0  0  0  0  0  0  0  0  0
    3.1637   -8.9072   16.3463 N   0  0  0  0  0  0  0  0  0  0  0  0
   10.1100   -3.8421   16.7307 C   0  0  0  0  0  0  0  0  0  0  0  0
    8.1280   -6.9456   17.6642 C   0  0  0  0  0  0  0  0  0  0  0  0
   10.6484   -3.6154   22.5882 C   0  0  0  0  0  0  0  0  0  0  0  0
    5.0355   -8.9625   17.7467 C   0  0  0  0  0  0  0  0  0  0  0  0
   10.2113   -2.3206   22.8481 C   0  0  0  0  0  0  0  0  0  0  0  0
   10.8052   -3.9305   24.9887 N   0  0  0  0  0  0  0  0  0  0  0  0
   10.9357   -3.2600   20.1909 C   0  0  0  0  0  0  0  0  0  0  0  0
    6.2636   -7.1638   16.1028 C   0  0  0  0  0  0  0  0  0  0  0  0
   10.5789   -5.4758   21.0155 C   0  0  0  0  0  0  0  0  0  0  0  0
    8.5982   -5.8932   16.8790 C   0  0  0  0  0  0  0  0  0  0  0  0
    4.3947   -8.5526   16.5901 C   0  0  0  0  0  0  0  0  0  0  0  0
    6.9300   -7.5403   17.3273 C   0  0  0  0  0  0  0  0  0  0  0  0
    9.5973   -5.0148   17.4004 C   0  0  0  0  0  0  0  0  0  0  0  0
   10.1938   -5.8979   19.7144 C   0  0  0  0  0  0  0  0  0  0  0  0
    6.2362   -8.4517   18.0918 C   0  0  0  0  0  0  0  0  0  0  0  0
   10.0073   -1.8772   24.1564 N   0  0  0  0  0  0  0  0  0  0  0  0
    5.0548   -7.6646   15.8332 C   0  0  0  0  0  0  0  0  0  0  0  0
   10.8019   -3.0426   17.6794 C   0  0  0  0  0  0  0  0  0  0  0  0
   10.1347   -4.9548   18.7314 C   0  0  0  0  0  0  0  0  0  0  0  0
   10.9662   -4.4129   23.7201 C   0  0  0  0  0  0  0  0  0  0  0  0
    6.9160   -6.2729   15.2896 C   0  0  0  0  0  0  0  0  0  0  0  0
  1  8  1  0
  1 12  4  0
  1 14  4  0
  2 15  2  0
  2 26  2  0
  3 12  4  0
  3 23  4  0
  3 24  4  0
  4 11  4  0
  4 21  4  0
  5 16  1  0
  6 18  4  0
  6 23  4  0
  7 15  1  0
  7 17  1  0
  8 10  4  0
  8 25  4  0
  9 16  1  0
  9 20  1  0
 10 21  4  0
 11 25  4  0
 13 17  1  0
 13 22  2  0
 13 26  1  0
 14 19  4  0
 15 18  1  0
 16 22  1  0
 17 20  2  0
 18 24  4  0
 19 24  4  0
M  END
$$$$

 Created by Python create_sdf_string function

 26 32  0  0  0  0  0  0  0  0999 V2000
   10.5896   -4.1432   21.3992 C   0  0  0  0  0  0  0  0  0  0  0  0
    8.0574   -5.6199   15.5824 C   0  0  0  0  0  0  0  0  0  0  0  0
   10.8066   -3.8571   18.9322 C   0  0  0  0  0  0  0  0  0  0  0  0
   10.2090   -2.8019   25.3911 C   0  0  0  0  0  0  0  0  0  0  0  0
    3.3171   -8.7627   16.4234 N   0  0  0  0  0  0  0  0  0  0  0  0
   10.1341   -3.9199   16.7050 C   0  0  0  0  0  0  0  0  0  0  0  0
    8.1422   -7.1759   17.5579 C   0  0  0  0  0  0  0  0  0  0  0  0
   10.6568   -3.5919   22.5919 C   0  0  0  0  0  0  0  0  0  0  0  0
    5.0591   -9.1438   17.7499 C   0  0  0  0  0  0  0  0  0  0  0  0
   10.2933   -2.3504   22.9779 C   0  0  0  0  0  0  0  0  0  0  0  0
   10.7803   -4.0333   25.1148 N   0  0  0  0  0  0  0  0  0  0  0  0
   10.8798   -3.3068   20.2295 C   0  0  0  0  0  0  0  0  0  0  0  0
    6.1633   -7.2587   16.2257 C   0  0  0  0  0  0  0  0  0  0  0  0
    8.6459   -5.9668   16.7318 C   0  0  0  0  0  0  0  0  0  0  0  0
    4.2889   -8.5518   16.6928 C   0  0  0  0  0  0  0  0  0  0  0  0
    6.9748   -7.4356   17.2958 C   0  0  0  0  0  0  0  0  0  0  0  0
    9.5903   -4.9062   17.3460 C   0  0  0  0  0  0  0  0  0  0  0  0
   10.2661   -5.8738   19.7404 C   0  0  0  0  0  0  0  0  0  0  0  0
    6.1108   -8.5809   18.0369 C   0  0  0  0  0  0  0  0  0  0  0  0
    9.9107   -2.0241   24.1297 N   0  0  0  0  0  0  0  0  0  0  0  0
    5.1508   -7.6156   15.7342 C   0  0  0  0  0  0  0  0  0  0  0  0
   10.8063   -3.0578   17.7851 C   0  0  0  0  0  0  0  0  0  0  0  0
   10.1138   -4.7994   18.6880 C   0  0  0  0  0  0  0  0  0  0  0  0
   10.7736   -4.4208   23.8639 C   0  0  0  0  0  0  0  0  0  0  0  0
    6.9400   -6.3178   15.3352 C   0  0  0  0  0  0  0  0  0  0  0  0
   10.6665   -5.4940   20.8604 He  0  0  0  0  0  0  0  0  0  0  0  0
  1  8  1  0
  1 12  4  0
  2 14  2  0
  2 25  2  0
  3 12  4  0
  3 22  4  0
  3 23  4  0
  4 11  4  0
  5 15  1  0
  6 10  1  0
  6 17  4  0
  6 22  4  0
  7 10  4  0
  7 14  1  0
  7 16  1  0
  8 10  4  0
  8 24  4  0
  9 15  1  0
  9 19  1  0
  9 21  2  0
 10 14  2  0
 10 20  4  0
 11 24  4  0
 12 18  4  0
 13 16  1  0
 13 21  2  0
 14 17  1  0
 15 21  1  0
 16 19  2  0
 17 23  4  0
 18 23  4  0
 18 24  3  0
M  END
$$$$

 Created by Python create_sdf_string function

 26 30  0  0  0  0  0  0  0  0999 V2000
   10.7082   -4.1195   21.3298 C   0  0  0  0  0  0  0  0  0  0  0  0
    8.0186   -5.6764   15.6439 C   0  0  0  0  0  0  0  0  0  0  0  0
   10.6840   -3.6955   18.9768 C   0  0  0  0  0  0  0  0  0  0  0  0
   10.2145   -2.7864   25.2814 C   0  0  0  0  0  0  0  0  0  0  0  0
    3.1964   -8.8409   16.4106 N   0  0  0  0  0  0  0  0  0  0  0  0
   10.1159   -3.8570   16.7511 C   0  0  0  0  0  0  0  0  0  0  0  0
    8.1460   -7.0172   17.5945 C   0  0  0  0  0  0  0  0  0  0  0  0
   10.6104   -3.6527   22.6572 C   0  0  0  0  0  0  0  0  0  0  0  0
    5.0708   -9.0598   17.7371 C   0  0  0  0  0  0  0  0  0  0  0  0
   10.2211   -2.3585   22.9390 C   0  0  0  0  0  0  0  0  0  0  0  0
   10.6925   -4.0313   25.0564 N   0  0  0  0  0  0  0  0  0  0  0  0
   10.9054   -3.2709   20.2297 C   0  0  0  0  0  0  0  0  0  0  0  0
    6.2340   -7.1969   16.1000 C   0  0  0  0  0  0  0  0  0  0  0  0
   10.5341   -5.4718   21.0435 C   0  0  0  0  0  0  0  0  0  0  0  0
    8.6481   -5.9336   16.8465 C   0  0  0  0  0  0  0  0  0  0  0  0
    4.3705   -8.5246   16.6371 C   0  0  0  0  0  0  0  0  0  0  0  0
    6.9293   -7.5798   17.2956 C   0  0  0  0  0  0  0  0  0  0  0  0
    9.6208   -5.0350   17.4043 C   0  0  0  0  0  0  0  0  0  0  0  0
   10.2172   -5.8675   19.7388 C   0  0  0  0  0  0  0  0  0  0  0  0
    6.2691   -8.5047   18.0663 C   0  0  0  0  0  0  0  0  0  0  0  0
    9.9891   -1.9503   24.2538 N   0  0  0  0  0  0  0  0  0  0  0  0
    5.0277   -7.6822   15.8200 C   0  0  0  0  0  0  0  0  0  0  0  0
   10.7958   -3.0571   17.7031 C   0  0  0  0  0  0  0  0  0  0  0  0
   10.1529   -4.9774   18.7408 C   0  0  0  0  0  0  0  0  0  0  0  0
   10.8734   -4.4602   23.7688 C   0  0  0  0  0  0  0  0  0  0  0  0
    6.8866   -6.3007   15.2886 C   0  0  0  0  0  0  0  0  0  0  0  0
  1  8  1  0
  1 12  4  0
  1 14  4  0
  2 15  2  0
  2 26  2  0
  3 12  4  0
  3 23  4  0
  3 24  4  0
  4 11  4  0
  4 21  4  0
  5 16  1  0
  6 18  4  0
  6 23  4  0
  7 15  1  0
  7 17  1  0
  8 10  4  0
  8 25  4  0
  9 16  1  0
  9 20  1  0
 10 21  4  0
 11 25  4  0
 13 17  1  0
 13 22  2  0
 13 26  1  0
 14 19  4  0
 15 18  1  0
 16 22  1  0
 17 20  2  0
 18 24  4  0
 19 24  4  0
M  END
$$$$

 Created by Python create_sdf_string function

 26 28  0  0  0  0  0  0  0  0999 V2000
    7.9365   -5.8148   15.7266 C   0  0  0  0  0  0  0  0  0  0  0  0
   10.7803   -3.6921   18.8778 C   0  0  0  0  0  0  0  0  0  0  0  0
   10.2819   -2.6592   25.2580 F   0  0  0  0  0  0  0  0  0  0  0  0
    3.2462   -8.9232   16.4728 N   0  0  0  0  0  0  0  0  0  0  0  0
   10.0503   -3.9571   16.6474 C   0  0  0  0  0  0  0  0  0  0  0  0
    8.2445   -7.0246   17.7789 C   0  0  0  0  0  0  0  0  0  0  0  0
   10.7152   -3.6107   22.6865 C   0  0  0  0  0  0  0  0  0  0  0  0
    4.9629   -8.9989   17.7912 C   0  0  0  0  0  0  0  0  0  0  0  0
   10.2183   -2.3327   23.0235 C   0  0  0  0  0  0  0  0  0  0  0  0
   10.9056   -3.2542   20.1855 C   0  0  0  0  0  0  0  0  0  0  0  0
    6.2031   -7.0803   16.1538 C   0  0  0  0  0  0  0  0  0  0  0  0
   10.6310   -5.4491   20.9240 C   0  0  0  0  0  0  0  0  0  0  0  0
    8.7671   -5.9888   16.8662 C   0  0  0  0  0  0  0  0  0  0  0  0
    4.3948   -8.6207   16.3789 C   0  0  0  0  0  0  0  0  0  0  0  0
    7.0037   -7.5259   17.3799 C   0  0  0  0  0  0  0  0  0  0  0  0
    9.5972   -5.0440   17.4649 C   0  0  0  0  0  0  0  0  0  0  0  0
   10.1415   -5.8257   19.8390 C   0  0  0  0  0  0  0  0  0  0  0  0
    6.3452   -8.5134   18.0450 C   0  0  0  0  0  0  0  0  0  0  0  0
    9.9731   -1.9805   24.2586 N   0  0  0  0  0  0  0  0  0  0  0  0
    5.1724   -7.6694   15.7373 C   0  0  0  0  0  0  0  0  0  0  0  0
   10.8119   -3.0649   17.7485 C   0  0  0  0  0  0  0  0  0  0  0  0
   10.2394   -5.0071   18.7065 C   0  0  0  0  0  0  0  0  0  0  0  0
    6.8521   -6.3446   15.4423 C   0  0  0  0  0  0  0  0  0  0  0  0
   10.7629   -4.0322   21.4420 He  0  0  0  0  0  0  0  0  0  0  0  0
   10.6352   -4.1227   24.9254 He  0  0  0  0  0  0  0  0  0  0  0  0
   10.9144   -4.5703   23.7009 He  0  0  0  0  0  0  0  0  0  0  0  0
  1  3  3  0
  1 13  2  0
  1 23  2  0
  2 10  4  0
  2 21  1  0
  2 22  4  0
  3 19  4  0
  4 14  1  0
  4 17  2  0
  5 16  4  0
  5 21  4  0
  6 13  1  0
  6 15  1  0
  7  9  4  0
  8 14  1  0
  8 18  1  0
  9 19  4  0
 11 15  1  0
 11 20  2  0
 11 23  1  0
 12 16  1  0
 12 17  4  0
 13 16  1  0
 14 20  1  0
 15 18  2  0
 16 22  4  0
 17 22  4  0
 21 22  1  0
M  END
$$$$

 Created by Python create_sdf_string function

 26 30  0  0  0  0  0  0  0  0999 V2000
   10.7389   -4.0731   21.3316 C   0  0  0  0  0  0  0  0  0  0  0  0
    8.0388   -5.7282   15.7365 C   0  0  0  0  0  0  0  0  0  0  0  0
   10.6959   -3.6901   18.9755 C   0  0  0  0  0  0  0  0  0  0  0  0
   10.2437   -2.7839   25.2373 C   0  0  0  0  0  0  0  0  0  0  0  0
    3.2120   -8.9368   16.3576 N   0  0  0  0  0  0  0  0  0  0  0  0
   10.1287   -3.8937   16.7345 C   0  0  0  0  0  0  0  0  0  0  0  0
    8.1665   -7.0066   17.7065 C   0  0  0  0  0  0  0  0  0  0  0  0
   10.6433   -3.6155   22.6424 C   0  0  0  0  0  0  0  0  0  0  0  0
    5.0414   -8.9922   17.7461 C   0  0  0  0  0  0  0  0  0  0  0  0
   10.2557   -2.3265   22.9218 C   0  0  0  0  0  0  0  0  0  0  0  0
   10.6846   -4.0362   25.0161 C   0  0  0  0  0  0  0  0  0  0  0  0
   10.9576   -3.2452   20.2011 C   0  0  0  0  0  0  0  0  0  0  0  0
    6.2619   -7.1839   16.1392 C   0  0  0  0  0  0  0  0  0  0  0  0
   10.5683   -5.4257   21.0580 C   0  0  0  0  0  0  0  0  0  0  0  0
    8.6921   -5.9541   16.8945 C   0  0  0  0  0  0  0  0  0  0  0  0
    4.4453   -8.6320   16.5209 C   0  0  0  0  0  0  0  0  0  0  0  0
    6.9576   -7.5629   17.3502 C   0  0  0  0  0  0  0  0  0  0  0  0
    9.6393   -5.0619   17.4368 C   0  0  0  0  0  0  0  0  0  0  0  0
   10.2241   -5.8531   19.7753 C   0  0  0  0  0  0  0  0  0  0  0  0
    6.2723   -8.5190   18.0708 C   0  0  0  0  0  0  0  0  0  0  0  0
   10.0229   -1.9206   24.2252 N   0  0  0  0  0  0  0  0  0  0  0  0
    5.0929   -7.7087   15.8038 C   0  0  0  0  0  0  0  0  0  0  0  0
   10.7994   -3.0585   17.6830 C   0  0  0  0  0  0  0  0  0  0  0  0
   10.1408   -4.9623   18.7764 C   0  0  0  0  0  0  0  0  0  0  0  0
   10.8938   -4.4836   23.7278 C   0  0  0  0  0  0  0  0  0  0  0  0
    6.9116   -6.2655   15.3727 C   0  0  0  0  0  0  0  0  0  0  0  0
  1  8  1  0
  1 12  4  0
  1 14  4  0
  2 15  2  0
  2 26  2  0
  3 12  4  0
  3 23  4  0
  3 24  4  0
  4 11  4  0
  4 21  4  0
  5 16  1  0
  6 18  4  0
  6 23  4  0
  7 15  1  0
  7 17  1  0
  8 10  4  0
  8 25  4  0
  9 16  1  0
  9 20  1  0
 10 21  4  0
 11 25  4  0
 13 17  1  0
 13 22  2  0
 13 26  1  0
 14 19  4  0
 15 18  1  0
 16 22  1  0
 17 20  2  0
 18 24  4  0
 19 24  4  0
M  END
$$$$

 Created by Python create_sdf_string function

 26 42  0  0  0  0  0  0  0  0999 V2000
   10.7586   -3.9819   21.2768 C   0  0  0  0  0  0  0  0  0  0  0  0
    8.0992   -5.6681   15.5912 C   0  0  0  0  0  0  0  0  0  0  0  0
   10.7121   -3.7481   19.0113 C   0  0  0  0  0  0  0  0  0  0  0  0
   10.3104   -2.8226   25.1956 C   0  0  0  0  0  0  0  0  0  0  0  0
    3.1806   -8.9611   16.3193 N   0  0  0  0  0  0  0  0  0  0  0  0
   10.2246   -4.0137   16.6674 C   0  0  0  0  0  0  0  0  0  0  0  0
    8.0633   -6.9778   17.7016 C   0  0  0  0  0  0  0  0  0  0  0  0
   10.5882   -3.5772   22.6119 C   0  0  0  0  0  0  0  0  0  0  0  0
    5.0841   -8.9455   17.8022 C   0  0  0  0  0  0  0  0  0  0  0  0
   10.2680   -2.4239   23.0285 C   0  0  0  0  0  0  0  0  0  0  0  0
   10.6619   -4.1336   25.0600 C   0  0  0  0  0  0  0  0  0  0  0  0
   10.9533   -3.2297   20.3264 C   0  0  0  0  0  0  0  0  0  0  0  0
    6.2784   -7.1772   16.0821 C   0  0  0  0  0  0  0  0  0  0  0  0
   10.6657   -5.5937   21.0601 C   0  0  0  0  0  0  0  0  0  0  0  0
    8.6990   -5.9987   16.8889 C   0  0  0  0  0  0  0  0  0  0  0  0
    4.3685   -8.7209   16.6929 C   0  0  0  0  0  0  0  0  0  0  0  0
    6.9953   -7.4491   17.4663 C   0  0  0  0  0  0  0  0  0  0  0  0
    9.7318   -5.1135   17.6745 C   0  0  0  0  0  0  0  0  0  0  0  0
   10.2054   -5.9419   19.6856 C   0  0  0  0  0  0  0  0  0  0  0  0
    6.3359   -8.4797   18.0506 C   0  0  0  0  0  0  0  0  0  0  0  0
    9.7975   -2.0433   24.3193 N   0  0  0  0  0  0  0  0  0  0  0  0
    5.1620   -7.6737   15.7080 C   0  0  0  0  0  0  0  0  0  0  0  0
   10.8146   -3.0527   17.6819 C   0  0  0  0  0  0  0  0  0  0  0  0
   10.1079   -5.0227   18.9538 C   0  0  0  0  0  0  0  0  0  0  0  0
   10.9010   -4.5546   23.6019 C   0  0  0  0  0  0  0  0  0  0  0  0
    6.9056   -6.2161   15.3605 C   0  0  0  0  0  0  0  0  0  0  0  0
  1  6  2  0
  1  8  1  0
  1 12  4  0
  1 14  4  0
  2 15  2  0
  2 26  2  0
  3 12  4  0
  3 23  4  0
  3 24  4  0
  4  5  2  0
  4 11  4  0
  4 21  4  0
  5 16  1  0
  5 19  2  0
  5 26  4  0
  6 18  4  0
  6 23  4  0
  7 15  1  0
  7 17  1  0
  8 10  4  0
  8 18  2  0
  8 25  4  0
  9 14  2  0
  9 16  1  0
  9 20  1  0
  9 22  4  0
 10 21  4  0
 10 26  1  0
 11 13  3  0
 11 25  4  0
 13 17  1  0
 13 20  2  0
 13 22  2  0
 13 26  1  0
 14 19  4  0
 14 20  3  0
 15 18  1  0
 16 22  1  0
 17 20  2  0
 17 23  1  0
 18 24  4  0
 19 24  4  0
M  END
$$$$

 Created by Python create_sdf_string function

 26 30  0  0  0  0  0  0  0  0999 V2000
   10.7201   -4.1039   21.3368 C   0  0  0  0  0  0  0  0  0  0  0  0
    8.0775   -5.7082   15.7017 C   0  0  0  0  0  0  0  0  0  0  0  0
   10.7003   -3.6894   19.0070 C   0  0  0  0  0  0  0  0  0  0  0  0
   10.2107   -2.8479   25.2715 C   0  0  0  0  0  0  0  0  0  0  0  0
    3.2265   -8.9880   16.3387 N   0  0  0  0  0  0  0  0  0  0  0  0
   10.1918   -3.9516   16.7755 C   0  0  0  0  0  0  0  0  0  0  0  0
    8.1085   -6.9590   17.7241 C   0  0  0  0  0  0  0  0  0  0  0  0
   10.6262   -3.6563   22.6575 C   0  0  0  0  0  0  0  0  0  0  0  0
    5.0717   -8.9622   17.7807 C   0  0  0  0  0  0  0  0  0  0  0  0
   10.1876   -2.3812   22.9393 C   0  0  0  0  0  0  0  0  0  0  0  0
   10.7088   -4.0954   25.0449 C   0  0  0  0  0  0  0  0  0  0  0  0
   10.9084   -3.2475   20.2471 C   0  0  0  0  0  0  0  0  0  0  0  0
    6.2703   -7.1811   16.1304 C   0  0  0  0  0  0  0  0  0  0  0  0
   10.5814   -5.4811   21.0900 C   0  0  0  0  0  0  0  0  0  0  0  0
    8.6809   -5.9590   16.9274 C   0  0  0  0  0  0  0  0  0  0  0  0
    4.4270   -8.6067   16.6031 C   0  0  0  0  0  0  0  0  0  0  0  0
    6.9361   -7.5382   17.3545 C   0  0  0  0  0  0  0  0  0  0  0  0
    9.6672   -5.0817   17.4820 C   0  0  0  0  0  0  0  0  0  0  0  0
   10.2343   -5.9065   19.7920 C   0  0  0  0  0  0  0  0  0  0  0  0
    6.2816   -8.4702   18.0971 C   0  0  0  0  0  0  0  0  0  0  0  0
    9.9533   -1.9937   24.2555 N   0  0  0  0  0  0  0  0  0  0  0  0
    5.0988   -7.7334   15.7937 C   0  0  0  0  0  0  0  0  0  0  0  0
   10.8169   -3.0789   17.7273 C   0  0  0  0  0  0  0  0  0  0  0  0
   10.1802   -4.9941   18.8101 C   0  0  0  0  0  0  0  0  0  0  0  0
   10.9132   -4.5251   23.7231 C   0  0  0  0  0  0  0  0  0  0  0  0
    6.9250   -6.2533   15.3381 C   0  0  0  0  0  0  0  0  0  0  0  0
  1  8  1  0
  1 12  4  0
  1 14  4  0
  2 15  2  0
  2 26  2  0
  3 12  4  0
  3 23  4  0
  3 24  4  0
  4 11  4  0
  4 21  4  0
  5 16  1  0
  6 18  4  0
  6 23  4  0
  7 15  1  0
  7 17  1  0
  8 10  4  0
  8 25  4  0
  9 16  1  0
  9 20  1  0
 10 21  4  0
 11 25  4  0
 13 17  1  0
 13 22  2  0
 13 26  1  0
 14 19  4  0
 15 18  1  0
 16 22  1  0
 17 20  2  0
 18 24  4  0
 19 24  4  0
M  END
$$$$

 Created by Python create_sdf_string function

 26 43  0  0  0  0  0  0  0  0999 V2000
   10.6664   -3.8941   21.3380 C   0  0  0  0  0  0  0  0  0  0  0  0
    8.0988   -5.6212   15.6228 C   0  0  0  0  0  0  0  0  0  0  0  0
   10.6740   -3.7101   19.0314 C   0  0  0  0  0  0  0  0  0  0  0  0
   10.2574   -2.7891   25.2687 C   0  0  0  0  0  0  0  0  0  0  0  0
    3.3387   -8.9894   16.3493 N   0  0  0  0  0  0  0  0  0  0  0  0
   10.1842   -4.0376   16.7054 C   0  0  0  0  0  0  0  0  0  0  0  0
    8.0725   -6.8861   17.7404 C   0  0  0  0  0  0  0  0  0  0  0  0
   10.6707   -3.7161   22.6123 C   0  0  0  0  0  0  0  0  0  0  0  0
    5.1242   -9.0493   17.7400 C   0  0  0  0  0  0  0  0  0  0  0  0
   10.1834   -2.4699   22.8663 C   0  0  0  0  0  0  0  0  0  0  0  0
   10.6764   -4.1022   25.0509 C   0  0  0  0  0  0  0  0  0  0  0  0
   10.8864   -3.2404   20.2646 C   0  0  0  0  0  0  0  0  0  0  0  0
    6.0838   -7.1890   16.1064 C   0  0  0  0  0  0  0  0  0  0  0  0
   10.5973   -5.4325   21.0612 C   0  0  0  0  0  0  0  0  0  0  0  0
    8.6907   -6.0694   16.7583 C   0  0  0  0  0  0  0  0  0  0  0  0
    4.3334   -8.5954   16.6021 C   0  0  0  0  0  0  0  0  0  0  0  0
    6.9492   -7.4422   17.3692 C   0  0  0  0  0  0  0  0  0  0  0  0
    9.7606   -4.9418   17.4739 C   0  0  0  0  0  0  0  0  0  0  0  0
   10.3159   -5.7168   19.6585 C   0  0  0  0  0  0  0  0  0  0  0  0
    6.3137   -8.4951   18.1316 C   0  0  0  0  0  0  0  0  0  0  0  0
   10.0033   -2.0598   24.2134 N   0  0  0  0  0  0  0  0  0  0  0  0
    5.1014   -7.6626   15.7681 F   0  0  0  0  0  0  0  0  0  0  0  0
   10.9185   -3.1184   17.7741 C   0  0  0  0  0  0  0  0  0  0  0  0
   10.1289   -4.9456   18.7168 C   0  0  0  0  0  0  0  0  0  0  0  0
   10.8854   -4.4114   23.7311 C   0  0  0  0  0  0  0  0  0  0  0  0
    6.9583   -6.2739   15.4543 C   0  0  0  0  0  0  0  0  0  0  0  0
  1  8  1  0
  1 12  4  0
  1 14  4  0
  1 19  2  0
  1 20  4  0
  2  6  1  0
  2 15  2  0
  2 26  2  0
  3  6  4  0
  3 10  1  0
  3 12  4  0
  3 23  4  0
  3 24  4  0
  4 11  4  0
  4 21  4  0
  5 16  1  0
  6 10  1  0
  6 13  3  0
  6 14  4  0
  6 18  4  0
  6 23  4  0
  7 13  3  0
  7 15  1  0
  7 17  1  0
  8 10  4  0
  8 25  4  0
  9 10  3  0
  9 16  1  0
  9 20  1  0
 10 21  4  0
 11 25  4  0
 12 25  1  0
 13 17  1  0
 13 22  2  0
 13 26  1  0
 14 19  4  0
 14 21  2  0
 15 18  1  0
 16 22  1  0
 17 20  2  0
 18 24  4  0
 19 24  4  0
 20 21  2  0
M  END
$$$$

 Created by Python create_sdf_string function

 26 30  0  0  0  0  0  0  0  0999 V2000
   10.7020   -4.0728   21.3311 C   0  0  0  0  0  0  0  0  0  0  0  0
    8.0522   -5.6944   15.6758 C   0  0  0  0  0  0  0  0  0  0  0  0
   10.7071   -3.6520   18.9649 C   0  0  0  0  0  0  0  0  0  0  0  0
   10.2358   -2.7908   25.2701 C   0  0  0  0  0  0  0  0  0  0  0  0
    3.2813   -9.0058   16.3245 N   0  0  0  0  0  0  0  0  0  0  0  0
   10.2177   -3.9086   16.7314 C   0  0  0  0  0  0  0  0  0  0  0  0
    8.0847   -6.8863   17.6969 C   0  0  0  0  0  0  0  0  0  0  0  0
   10.6094   -3.6395   22.6595 C   0  0  0  0  0  0  0  0  0  0  0  0
    5.1080   -9.0217   17.7326 C   0  0  0  0  0  0  0  0  0  0  0  0
   10.1987   -2.3644   22.9238 C   0  0  0  0  0  0  0  0  0  0  0  0
   10.7105   -4.0602   25.0536 C   0  0  0  0  0  0  0  0  0  0  0  0
   10.8871   -3.2100   20.2192 C   0  0  0  0  0  0  0  0  0  0  0  0
    6.2271   -7.1568   16.1261 C   0  0  0  0  0  0  0  0  0  0  0  0
   10.5674   -5.4284   21.0501 C   0  0  0  0  0  0  0  0  0  0  0  0
    8.7030   -5.9247   16.8752 C   0  0  0  0  0  0  0  0  0  0  0  0
    4.4186   -8.5661   16.5942 C   0  0  0  0  0  0  0  0  0  0  0  0
    6.9137   -7.4947   17.3508 C   0  0  0  0  0  0  0  0  0  0  0  0
    9.6843   -5.0371   17.4113 C   0  0  0  0  0  0  0  0  0  0  0  0
   10.2453   -5.8247   19.7475 C   0  0  0  0  0  0  0  0  0  0  0  0
    6.2763   -8.4566   18.0894 C   0  0  0  0  0  0  0  0  0  0  0  0
    9.9851   -1.9688   24.2232 N   0  0  0  0  0  0  0  0  0  0  0  0
    5.0761   -7.6885   15.8405 C   0  0  0  0  0  0  0  0  0  0  0  0
   10.8317   -3.0583   17.6916 C   0  0  0  0  0  0  0  0  0  0  0  0
   10.1927   -4.9401   18.7492 C   0  0  0  0  0  0  0  0  0  0  0  0
   10.9072   -4.4904   23.7494 C   0  0  0  0  0  0  0  0  0  0  0  0
    6.8971   -6.2567   15.3278 C   0  0  0  0  0  0  0  0  0  0  0  0
  1  8  1  0
  1 12  4  0
  1 14  4  0
  2 15  2  0
  2 26  2  0
  3 12  4  0
  3 23  4  0
  3 24  4  0
  4 11  4  0
  4 21  4  0
  5 16  1  0
  6 18  4  0
  6 23  4  0
  7 15  1  0
  7 17  1  0
  8 10  4  0
  8 25  4  0
  9 16  1  0
  9 20  1  0
 10 21  4  0
 11 25  4  0
 13 17  1  0
 13 22  2  0
 13 26  1  0
 14 19  4  0
 15 18  1  0
 16 22  1  0
 17 20  2  0
 18 24  4  0
 19 24  4  0
M  END
$$$$

 Created by Python create_sdf_string function

 26 36  0  0  0  0  0  0  0  0999 V2000
   10.6471   -4.0955   21.2419 C   0  0  0  0  0  0  0  0  0  0  0  0
    8.1227   -5.7302   15.6358 C   0  0  0  0  0  0  0  0  0  0  0  0
   10.6689   -3.6236   19.0288 C   0  0  0  0  0  0  0  0  0  0  0  0
   10.2775   -2.8135   25.2988 C   0  0  0  0  0  0  0  0  0  0  0  0
    3.2427   -9.0752   16.2937 N   0  0  0  0  0  0  0  0  0  0  0  0
   10.3339   -3.9363   16.6478 C   0  0  0  0  0  0  0  0  0  0  0  0
    8.1449   -6.8043   17.7714 C   0  0  0  0  0  0  0  0  0  0  0  0
    5.0801   -8.9997   17.7305 C   0  0  0  0  0  0  0  0  0  0  0  0
   10.1994   -2.2815   22.9123 C   0  0  0  0  0  0  0  0  0  0  0  0
   10.8070   -4.1047   25.0481 C   0  0  0  0  0  0  0  0  0  0  0  0
   10.9046   -3.1075   20.3118 C   0  0  0  0  0  0  0  0  0  0  0  0
    6.2370   -7.1629   16.1083 F   0  0  0  0  0  0  0  0  0  0  0  0
   10.6871   -5.4102   21.1319 C   0  0  0  0  0  0  0  0  0  0  0  0
    8.7565   -5.9885   16.7585 C   0  0  0  0  0  0  0  0  0  0  0  0
    4.3928   -8.7015   16.5812 C   0  0  0  0  0  0  0  0  0  0  0  0
    7.0198   -7.5665   17.3284 C   0  0  0  0  0  0  0  0  0  0  0  0
    9.7411   -4.8750   17.3415 C   0  0  0  0  0  0  0  0  0  0  0  0
   10.2704   -5.9777   19.7048 C   0  0  0  0  0  0  0  0  0  0  0  0
    6.2446   -8.4571   18.0775 C   0  0  0  0  0  0  0  0  0  0  0  0
   10.0610   -1.9711   24.3134 N   0  0  0  0  0  0  0  0  0  0  0  0
    5.0675   -7.6686   15.7827 C   0  0  0  0  0  0  0  0  0  0  0  0
   10.8874   -3.0357   17.6518 C   0  0  0  0  0  0  0  0  0  0  0  0
   10.2634   -4.9735   18.6673 C   0  0  0  0  0  0  0  0  0  0  0  0
   10.9848   -4.5219   23.7125 C   0  0  0  0  0  0  0  0  0  0  0  0
    6.8193   -6.2396   15.3386 C   0  0  0  0  0  0  0  0  0  0  0  0
   10.6568   -3.6151   22.7498 He  0  0  0  0  0  0  0  0  0  0  0  0
  1  6  3  0
  1 11  4  0
  1 13  4  0
  2  8  4  0
  2 14  2  0
  2 25  2  0
  3 11  4  0
  3 14  1  0
  3 19  3  0
  3 22  4  0
  3 23  4  0
  4 10  4  0
  4 20  4  0
  5 15  1  0
  6 11  4  0
  6 13  4  0
  6 17  4  0
  6 22  4  0
  7 14  1  0
  7 16  1  0
  8 15  1  0
  8 19  1  0
  9 20  4  0
 10 24  4  0
 11 19  2  0
 12 16  1  0
 12 21  2  0
 12 25  1  0
 13 18  4  0
 14 17  1  0
 15 21  2  0
 16 19  2  0
 17 22  3  0
 17 23  4  0
 18 23  4  0
 22 24  1  0
M  END
$$$$

 Created by Python create_sdf_string function

 26 30  0  0  0  0  0  0  0  0999 V2000
   10.7115   -4.0581   21.3249 C   0  0  0  0  0  0  0  0  0  0  0  0
    8.0790   -5.7146   15.6695 C   0  0  0  0  0  0  0  0  0  0  0  0
   10.7115   -3.6306   18.9747 C   0  0  0  0  0  0  0  0  0  0  0  0
   10.3066   -2.8032   25.3057 C   0  0  0  0  0  0  0  0  0  0  0  0
    3.2931   -9.0737   16.2944 N   0  0  0  0  0  0  0  0  0  0  0  0
   10.2829   -3.8849   16.7044 C   0  0  0  0  0  0  0  0  0  0  0  0
    8.1203   -6.8704   17.7052 C   0  0  0  0  0  0  0  0  0  0  0  0
   10.6402   -3.6196   22.6746 C   0  0  0  0  0  0  0  0  0  0  0  0
    5.1095   -8.9907   17.7292 C   0  0  0  0  0  0  0  0  0  0  0  0
   10.2302   -2.3224   22.9505 C   0  0  0  0  0  0  0  0  0  0  0  0
   10.7920   -4.0702   25.0613 C   0  0  0  0  0  0  0  0  0  0  0  0
   10.8742   -3.1879   20.2323 C   0  0  0  0  0  0  0  0  0  0  0  0
    6.2733   -7.1603   16.1186 C   0  0  0  0  0  0  0  0  0  0  0  0
   10.5870   -5.4447   21.0519 C   0  0  0  0  0  0  0  0  0  0  0  0
    8.7429   -5.9043   16.8329 C   0  0  0  0  0  0  0  0  0  0  0  0
    4.4457   -8.5963   16.5586 C   0  0  0  0  0  0  0  0  0  0  0  0
    6.9678   -7.5078   17.3356 C   0  0  0  0  0  0  0  0  0  0  0  0
    9.7355   -5.0138   17.3826 C   0  0  0  0  0  0  0  0  0  0  0  0
   10.2715   -5.8604   19.7249 C   0  0  0  0  0  0  0  0  0  0  0  0
    6.2853   -8.4447   18.0716 C   0  0  0  0  0  0  0  0  0  0  0  0
   10.0383   -1.9450   24.2800 N   0  0  0  0  0  0  0  0  0  0  0  0
    5.1084   -7.6908   15.8205 C   0  0  0  0  0  0  0  0  0  0  0  0
   10.8677   -3.0295   17.6828 C   0  0  0  0  0  0  0  0  0  0  0  0
   10.2064   -4.9318   18.7432 C   0  0  0  0  0  0  0  0  0  0  0  0
   10.9525   -4.4817   23.7330 C   0  0  0  0  0  0  0  0  0  0  0  0
    6.9008   -6.2484   15.3218 C   0  0  0  0  0  0  0  0  0  0  0  0
  1  8  1  0
  1 12  4  0
  1 14  4  0
  2 15  2  0
  2 26  2  0
  3 12  4  0
  3 23  4  0
  3 24  4  0
  4 11  4  0
  4 21  4  0
  5 16  1  0
  6 18  4  0
  6 23  4  0
  7 15  1  0
  7 17  1  0
  8 10  4  0
  8 25  4  0
  9 16  1  0
  9 20  1  0
 10 21  4  0
 11 25  4  0
 13 17  1  0
 13 22  2  0
 13 26  1  0
 14 19  4  0
 15 18  1  0
 16 22  2  0
 17 20  2  0
 18 24  4  0
 19 24  4  0
M  END
$$$$

 Created by Python create_sdf_string function

 26 33  0  0  0  0  0  0  0  0999 V2000
   10.7456   -4.0912   21.3720 C   0  0  0  0  0  0  0  0  0  0  0  0
    8.0698   -5.6786   15.6462 C   0  0  0  0  0  0  0  0  0  0  0  0
   10.6361   -3.7270   19.0976 C   0  0  0  0  0  0  0  0  0  0  0  0
   10.1737   -2.8584   25.3763 C   0  0  0  0  0  0  0  0  0  0  0  0
    3.2089   -9.1033   16.3675 N   0  0  0  0  0  0  0  0  0  0  0  0
   10.2870   -3.6742   16.6624 C   0  0  0  0  0  0  0  0  0  0  0  0
    8.0645   -6.7903   17.6717 C   0  0  0  0  0  0  0  0  0  0  0  0
   10.6085   -3.6590   22.5503 C   0  0  0  0  0  0  0  0  0  0  0  0
    5.1213   -8.9434   17.7865 C   0  0  0  0  0  0  0  0  0  0  0  0
   10.1360   -2.3021   22.8752 C   0  0  0  0  0  0  0  0  0  0  0  0
   10.7286   -4.0528   25.1119 C   0  0  0  0  0  0  0  0  0  0  0  0
   10.8703   -3.2373   20.2270 C   0  0  0  0  0  0  0  0  0  0  0  0
    6.3517   -7.1153   16.1366 C   0  0  0  0  0  0  0  0  0  0  0  0
   10.5401   -5.3611   21.0088 C   0  0  0  0  0  0  0  0  0  0  0  0
    8.8129   -5.8577   16.9410 C   0  0  0  0  0  0  0  0  0  0  0  0
    4.4155   -8.5653   16.5191 C   0  0  0  0  0  0  0  0  0  0  0  0
    6.9947   -7.3955   17.3813 C   0  0  0  0  0  0  0  0  0  0  0  0
    9.7893   -5.0616   17.4816 C   0  0  0  0  0  0  0  0  0  0  0  0
   10.1455   -5.7662   19.7650 C   0  0  0  0  0  0  0  0  0  0  0  0
    6.2316   -8.5185   18.0277 C   0  0  0  0  0  0  0  0  0  0  0  0
    4.9875   -7.6946   15.7834 C   0  0  0  0  0  0  0  0  0  0  0  0
   10.8841   -2.9622   17.7782 C   0  0  0  0  0  0  0  0  0  0  0  0
   10.1302   -4.9326   18.7551 C   0  0  0  0  0  0  0  0  0  0  0  0
   10.9606   -4.4751   23.8100 C   0  0  0  0  0  0  0  0  0  0  0  0
    6.8686   -6.2472   15.2727 C   0  0  0  0  0  0  0  0  0  0  0  0
   10.0022   -1.8637   24.2859 He  0  0  0  0  0  0  0  0  0  0  0  0
  1  8  1  0
  1 12  4  0
  1 14  4  0
  2 15  2  0
  2 25  2  0
  3 12  4  0
  3 14  3  0
  3 22  4  0
  3 23  4  0
  3 24  3  0
  4 11  4  0
  5 16  1  0
  6 18  4  0
  6 22  4  0
  7 15  1  0
  7 17  1  0
  8 10  4  0
  8 24  4  0
  9 16  1  0
  9 20  1  0
  9 23  2  0
 10 18  3  0
 11 24  4  0
 13 17  1  0
 13 21  2  0
 13 25  1  0
 14 19  4  0
 15 18  1  0
 16 21  2  0
 16 23  3  0
 17 20  2  0
 18 23  4  0
 19 23  4  0
M  END
$$$$

 Created by Python create_sdf_string function

 26 30  0  0  0  0  0  0  0  0999 V2000
   10.6774   -4.0652   21.3431 C   0  0  0  0  0  0  0  0  0  0  0  0
    8.0833   -5.6737   15.6955 C   0  0  0  0  0  0  0  0  0  0  0  0
   10.7070   -3.6242   19.0169 C   0  0  0  0  0  0  0  0  0  0  0  0
   10.2113   -2.7932   25.3405 C   0  0  0  0  0  0  0  0  0  0  0  0
    3.2824   -9.0567   16.3452 N   0  0  0  0  0  0  0  0  0  0  0  0
   10.2472   -3.7965   16.7524 C   0  0  0  0  0  0  0  0  0  0  0  0
    8.0963   -6.8298   17.6967 C   0  0  0  0  0  0  0  0  0  0  0  0
   10.6124   -3.6173   22.6849 C   0  0  0  0  0  0  0  0  0  0  0  0
    5.0871   -8.9627   17.7573 C   0  0  0  0  0  0  0  0  0  0  0  0
   10.1905   -2.3210   22.9187 C   0  0  0  0  0  0  0  0  0  0  0  0
   10.7244   -4.0597   25.0902 C   0  0  0  0  0  0  0  0  0  0  0  0
   10.9020   -3.2045   20.2621 C   0  0  0  0  0  0  0  0  0  0  0  0
    6.2663   -7.1282   16.1065 C   0  0  0  0  0  0  0  0  0  0  0  0
   10.5067   -5.4185   21.0537 C   0  0  0  0  0  0  0  0  0  0  0  0
    8.7148   -5.8460   16.8867 C   0  0  0  0  0  0  0  0  0  0  0  0
    4.4236   -8.5689   16.5820 C   0  0  0  0  0  0  0  0  0  0  0  0
    6.9420   -7.4652   17.3432 C   0  0  0  0  0  0  0  0  0  0  0  0
    9.6867   -4.9461   17.4352 C   0  0  0  0  0  0  0  0  0  0  0  0
   10.1739   -5.8117   19.7589 C   0  0  0  0  0  0  0  0  0  0  0  0
    6.2877   -8.4340   18.0630 C   0  0  0  0  0  0  0  0  0  0  0  0
    9.9602   -1.9077   24.2733 C   0  0  0  0  0  0  0  0  0  0  0  0
    5.0914   -7.6753   15.8252 C   0  0  0  0  0  0  0  0  0  0  0  0
   10.8574   -2.9662   17.7591 C   0  0  0  0  0  0  0  0  0  0  0  0
   10.1575   -4.9034   18.7787 C   0  0  0  0  0  0  0  0  0  0  0  0
   10.9294   -4.4729   23.7570 C   0  0  0  0  0  0  0  0  0  0  0  0
    6.9442   -6.2385   15.3199 C   0  0  0  0  0  0  0  0  0  0  0  0
  1  8  1  0
  1 12  4  0
  1 14  4  0
  2 15  2  0
  2 26  2  0
  3 12  4  0
  3 23  4  0
  3 24  4  0
  4 11  4  0
  4 21  4  0
  5 16  1  0
  6 18  4  0
  6 23  4  0
  7 15  1  0
  7 17  1  0
  8 10  4  0
  8 25  4  0
  9 16  1  0
  9 20  1  0
 10 21  4  0
 11 25  4  0
 13 17  1  0
 13 22  2  0
 13 26  1  0
 14 19  4  0
 15 18  1  0
 16 22  2  0
 17 20  2  0
 18 24  4  0
 19 24  4  0
M  END
$$$$

 Created by Python create_sdf_string function

 26 33  0  0  0  0  0  0  0  0999 V2000
   10.6652   -4.0959   21.3850 C   0  0  0  0  0  0  0  0  0  0  0  0
    8.0159   -5.6652   15.7942 C   0  0  0  0  0  0  0  0  0  0  0  0
   10.7216   -3.6403   19.0349 C   0  0  0  0  0  0  0  0  0  0  0  0
   10.2180   -2.7613   25.3743 C   0  0  0  0  0  0  0  0  0  0  0  0
    3.2346   -9.1152   16.4095 N   0  0  0  0  0  0  0  0  0  0  0  0
    8.1266   -6.8068   17.7356 C   0  0  0  0  0  0  0  0  0  0  0  0
   10.6034   -3.5755   22.7093 C   0  0  0  0  0  0  0  0  0  0  0  0
    4.9853   -8.9303   17.7314 C   0  0  0  0  0  0  0  0  0  0  0  0
   10.2706   -2.2668   22.9152 C   0  0  0  0  0  0  0  0  0  0  0  0
   10.6932   -4.0466   24.9892 C   0  0  0  0  0  0  0  0  0  0  0  0
   10.8781   -3.0657   20.2007 C   0  0  0  0  0  0  0  0  0  0  0  0
    6.3140   -7.1425   16.0999 C   0  0  0  0  0  0  0  0  0  0  0  0
   10.5670   -5.3988   21.0583 C   0  0  0  0  0  0  0  0  0  0  0  0
    8.7524   -5.8681   16.8425 C   0  0  0  0  0  0  0  0  0  0  0  0
    4.4188   -8.4535   16.5837 C   0  0  0  0  0  0  0  0  0  0  0  0
    6.9873   -7.4452   17.2713 C   0  0  0  0  0  0  0  0  0  0  0  0
    9.6410   -5.0702   17.4575 C   0  0  0  0  0  0  0  0  0  0  0  0
   10.0623   -5.7764   19.7782 C   0  0  0  0  0  0  0  0  0  0  0  0
    9.9705   -1.9722   24.2610 C   0  0  0  0  0  0  0  0  0  0  0  0
    5.1090   -7.6202   15.7941 C   0  0  0  0  0  0  0  0  0  0  0  0
   10.9500   -3.0637   17.7925 C   0  0  0  0  0  0  0  0  0  0  0  0
   10.0789   -4.9697   18.7504 C   0  0  0  0  0  0  0  0  0  0  0  0
   10.9377   -4.3618   23.8919 C   0  0  0  0  0  0  0  0  0  0  0  0
    6.9884   -6.3371   15.3923 C   0  0  0  0  0  0  0  0  0  0  0  0
   10.2735   -3.7638   16.8177 He  0  0  0  0  0  0  0  0  0  0  0  0
    6.3235   -8.4377   18.0748 He  0  0  0  0  0  0  0  0  0  0  0  0
  1  7  1  0
  1  8  4  0
  1 11  4  0
  1 13  4  0
  2 14  2  0
  2 24  2  0
  3 11  4  0
  3 19  2  0
  3 21  4  0
  3 22  4  0
  4  8  1  0
  4 10  4  0
  4 19  4  0
  5 15  1  0
  6 14  1  0
  6 16  1  0
  6 22  2  0
  7  9  4  0
  7 11  1  0
  7 23  4  0
  8 15  1  0
 10 18  2  0
 10 23  4  0
 10 24  3  0
 12 16  1  0
 12 20  2  0
 12 24  1  0
 13 18  4  0
 14 17  1  0
 15 20  2  0
 17 22  4  0
 17 24  4  0
 18 22  4  0
M  END
$$$$

 Created by Python create_sdf_string function

 26 30  0  0  0  0  0  0  0  0999 V2000
   10.6851   -4.0387   21.3684 C   0  0  0  0  0  0  0  0  0  0  0  0
    8.0876   -5.6515   15.7418 C   0  0  0  0  0  0  0  0  0  0  0  0
   10.7074   -3.6325   19.0371 C   0  0  0  0  0  0  0  0  0  0  0  0
   10.2192   -2.7609   25.3202 C   0  0  0  0  0  0  0  0  0  0  0  0
    3.2771   -9.0134   16.3527 N   0  0  0  0  0  0  0  0  0  0  0  0
   10.2479   -3.8396   16.8112 C   0  0  0  0  0  0  0  0  0  0  0  0
    8.1250   -6.8597   17.7200 C   0  0  0  0  0  0  0  0  0  0  0  0
   10.6257   -3.5705   22.7022 C   0  0  0  0  0  0  0  0  0  0  0  0
    5.0759   -8.9078   17.7632 C   0  0  0  0  0  0  0  0  0  0  0  0
   10.2292   -2.2722   22.9490 C   0  0  0  0  0  0  0  0  0  0  0  0
   10.7088   -4.0166   25.0709 C   0  0  0  0  0  0  0  0  0  0  0  0
   10.9118   -3.1855   20.2676 C   0  0  0  0  0  0  0  0  0  0  0  0
    6.3142   -7.1361   16.1099 C   0  0  0  0  0  0  0  0  0  0  0  0
   10.4849   -5.4030   21.1094 C   0  0  0  0  0  0  0  0  0  0  0  0
    8.6931   -5.8237   16.9188 C   0  0  0  0  0  0  0  0  0  0  0  0
    4.4270   -8.5021   16.5848 C   0  0  0  0  0  0  0  0  0  0  0  0
    6.9658   -7.4824   17.3480 C   0  0  0  0  0  0  0  0  0  0  0  0
    9.6630   -4.9509   17.4718 C   0  0  0  0  0  0  0  0  0  0  0  0
   10.1271   -5.8000   19.7947 C   0  0  0  0  0  0  0  0  0  0  0  0
    6.2917   -8.4129   18.0649 C   0  0  0  0  0  0  0  0  0  0  0  0
    9.9813   -1.8850   24.2823 C   0  0  0  0  0  0  0  0  0  0  0  0
    5.1303   -7.6380   15.8252 C   0  0  0  0  0  0  0  0  0  0  0  0
   10.8873   -3.0276   17.7713 C   0  0  0  0  0  0  0  0  0  0  0  0
   10.1337   -4.8909   18.8140 C   0  0  0  0  0  0  0  0  0  0  0  0
   10.9119   -4.4284   23.7651 C   0  0  0  0  0  0  0  0  0  0  0  0
    7.0004   -6.2655   15.3226 C   0  0  0  0  0  0  0  0  0  0  0  0
  1  8  1  0
  1 12  4  0
  1 14  4  0
  2 15  2  0
  2 26  2  0
  3 12  4  0
  3 23  4  0
  3 24  4  0
  4 11  4  0
  4 21  4  0
  5 16  1  0
  6 18  4  0
  6 23  4  0
  7 15  1  0
  7 17  1  0
  8 10  4  0
  8 25  4  0
  9 16  1  0
  9 20  1  0
 10 21  4  0
 11 25  4  0
 13 17  1  0
 13 22  2  0
 13 26  1  0
 14 19  4  0
 15 18  1  0
 16 22  2  0
 17 20  2  0
 18 24  4  0
 19 24  4  0
M  END
$$$$

 Created by Python create_sdf_string function

 26 30  0  0  0  0  0  0  0  0999 V2000
   10.7254   -4.0380   21.2908 C   0  0  0  0  0  0  0  0  0  0  0  0
    8.0205   -5.6458   15.7783 C   0  0  0  0  0  0  0  0  0  0  0  0
   10.7265   -3.6341   19.0482 C   0  0  0  0  0  0  0  0  0  0  0  0
    3.2529   -9.0464   16.3406 N   0  0  0  0  0  0  0  0  0  0  0  0
    8.1241   -6.8414   17.6904 C   0  0  0  0  0  0  0  0  0  0  0  0
   10.6165   -3.5395   22.6607 C   0  0  0  0  0  0  0  0  0  0  0  0
    5.1299   -8.9914   17.7589 C   0  0  0  0  0  0  0  0  0  0  0  0
   10.1920   -2.3068   22.9357 C   0  0  0  0  0  0  0  0  0  0  0  0
   10.8215   -4.0199   25.1761 C   0  0  0  0  0  0  0  0  0  0  0  0
   10.8538   -3.0997   20.2675 C   0  0  0  0  0  0  0  0  0  0  0  0
    6.3624   -7.1689   16.0656 C   0  0  0  0  0  0  0  0  0  0  0  0
   10.4547   -5.4363   21.1148 C   0  0  0  0  0  0  0  0  0  0  0  0
    8.6296   -5.9158   16.9259 C   0  0  0  0  0  0  0  0  0  0  0  0
    4.4199   -8.5219   16.6890 C   0  0  0  0  0  0  0  0  0  0  0  0
    7.0595   -7.4236   17.3563 C   0  0  0  0  0  0  0  0  0  0  0  0
    9.6161   -4.9850   17.5379 C   0  0  0  0  0  0  0  0  0  0  0  0
   10.1657   -5.7694   19.7192 C   0  0  0  0  0  0  0  0  0  0  0  0
    9.9192   -1.8482   24.3667 C   0  0  0  0  0  0  0  0  0  0  0  0
    5.0790   -7.6043   15.8443 C   0  0  0  0  0  0  0  0  0  0  0  0
   10.8437   -3.0538   17.7471 C   0  0  0  0  0  0  0  0  0  0  0  0
   10.1463   -4.8684   18.7770 C   0  0  0  0  0  0  0  0  0  0  0  0
   10.8860   -4.4579   23.7896 C   0  0  0  0  0  0  0  0  0  0  0  0
    6.9941   -6.2113   15.3147 O   0  0  0  0  0  0  0  0  0  0  0  0
   10.2892   -2.7744   25.3119 He  0  0  0  0  0  0  0  0  0  0  0  0
   10.3436   -3.9364   16.8787 He  0  0  0  0  0  0  0  0  0  0  0  0
    6.2950   -8.4415   18.1051 He  0  0  0  0  0  0  0  0  0  0  0  0
  1  6  1  0
  1 10  4  0
  1 12  4  0
  2 13  2  0
  2 23  2  0
  3 10  4  0
  3 20  4  0
  3 21  4  0
  4 14  1  0
  5 13  1  0
  5 15  1  0
  6  8  4  0
  6 18  4  0
  6 22  4  0
  7 14  1  0
  8 18  4  0
  9 22  4  0
 10 22  4  0
 11 14  1  0
 11 15  1  0
 11 19  2  0
 11 23  1  0
 12 16  1  0
 12 17  4  0
 13 16  1  0
 14 19  2  0
 14 20  2  0
 16 21  4  0
 16 22  3  0
 17 21  4  0
M  END
$$$$

 Created by Python create_sdf_string function

 26 30  0  0  0  0  0  0  0  0999 V2000
   10.6633   -4.0228   21.3574 C   0  0  0  0  0  0  0  0  0  0  0  0
    8.0679   -5.6310   15.7684 C   0  0  0  0  0  0  0  0  0  0  0  0
   10.6980   -3.6177   19.0275 C   0  0  0  0  0  0  0  0  0  0  0  0
   10.2828   -2.7410   25.3406 C   0  0  0  0  0  0  0  0  0  0  0  0
    3.3125   -8.9931   16.3647 N   0  0  0  0  0  0  0  0  0  0  0  0
   10.2440   -3.8693   16.8254 C   0  0  0  0  0  0  0  0  0  0  0  0
    8.1233   -6.8773   17.7189 C   0  0  0  0  0  0  0  0  0  0  0  0
   10.5984   -3.5711   22.7161 C   0  0  0  0  0  0  0  0  0  0  0  0
    5.1443   -8.9594   17.7655 C   0  0  0  0  0  0  0  0  0  0  0  0
   10.1875   -2.2798   22.9593 C   0  0  0  0  0  0  0  0  0  0  0  0
   10.7837   -4.0068   25.1208 C   0  0  0  0  0  0  0  0  0  0  0  0
   10.8987   -3.1651   20.2707 C   0  0  0  0  0  0  0  0  0  0  0  0
    6.3238   -7.1368   16.1075 C   0  0  0  0  0  0  0  0  0  0  0  0
   10.4810   -5.4035   21.1120 C   0  0  0  0  0  0  0  0  0  0  0  0
    8.6668   -5.8348   16.9474 C   0  0  0  0  0  0  0  0  0  0  0  0
    4.4671   -8.5140   16.6252 C   0  0  0  0  0  0  0  0  0  0  0  0
    6.9807   -7.4864   17.3522 C   0  0  0  0  0  0  0  0  0  0  0  0
    9.6674   -4.9673   17.4944 C   0  0  0  0  0  0  0  0  0  0  0  0
   10.1517   -5.7991   19.8045 C   0  0  0  0  0  0  0  0  0  0  0  0
    6.3327   -8.4063   18.0872 C   0  0  0  0  0  0  0  0  0  0  0  0
    9.9614   -1.8672   24.2997 C   0  0  0  0  0  0  0  0  0  0  0  0
    5.1285   -7.6263   15.8608 C   0  0  0  0  0  0  0  0  0  0  0  0
   10.8612   -3.0473   17.7551 C   0  0  0  0  0  0  0  0  0  0  0  0
   10.1428   -4.8872   18.8326 C   0  0  0  0  0  0  0  0  0  0  0  0
   10.9144   -4.4310   23.7833 C   0  0  0  0  0  0  0  0  0  0  0  0
    6.9788   -6.2376   15.3463 O   0  0  0  0  0  0  0  0  0  0  0  0
  1  8  1  0
  1 12  4  0
  1 14  4  0
  2 15  2  0
  2 26  2  0
  3 12  4  0
  3 23  4  0
  3 24  4  0
  4 11  4  0
  4 21  4  0
  5 16  1  0
  6 18  4  0
  6 23  4  0
  7 15  1  0
  7 17  1  0
  8 10  4  0
  8 25  4  0
  9 16  1  0
  9 20  1  0
 10 21  4  0
 11 25  4  0
 13 17  1  0
 13 22  2  0
 13 26  1  0
 14 19  4  0
 15 18  1  0
 16 22  2  0
 17 20  2  0
 18 24  4  0
 19 24  4  0
M  END
$$$$

 Created by Python create_sdf_string function

 26 31  0  0  0  0  0  0  0  0999 V2000
   10.6960   -3.9988   21.4475 C   0  0  0  0  0  0  0  0  0  0  0  0
    8.0665   -5.6252   15.7426 C   0  0  0  0  0  0  0  0  0  0  0  0
   10.7346   -3.6834   19.0726 C   0  0  0  0  0  0  0  0  0  0  0  0
   10.2753   -2.7074   25.3448 C   0  0  0  0  0  0  0  0  0  0  0  0
    3.2940   -8.9693   16.3364 N   0  0  0  0  0  0  0  0  0  0  0  0
   10.1977   -3.8546   16.7847 C   0  0  0  0  0  0  0  0  0  0  0  0
    8.1649   -6.8655   17.6799 C   0  0  0  0  0  0  0  0  0  0  0  0
    5.0842   -8.8622   17.7376 C   0  0  0  0  0  0  0  0  0  0  0  0
   10.1055   -2.3420   22.9834 C   0  0  0  0  0  0  0  0  0  0  0  0
   10.7703   -4.0422   25.1541 C   0  0  0  0  0  0  0  0  0  0  0  0
   10.8527   -3.1917   20.2515 C   0  0  0  0  0  0  0  0  0  0  0  0
    6.3436   -7.0879   16.0981 C   0  0  0  0  0  0  0  0  0  0  0  0
   10.6165   -5.3887   21.0846 C   0  0  0  0  0  0  0  0  0  0  0  0
    8.7106   -5.8431   16.9240 C   0  0  0  0  0  0  0  0  0  0  0  0
    4.4570   -8.4156   16.6843 C   0  0  0  0  0  0  0  0  0  0  0  0
    6.9224   -7.5614   17.3734 C   0  0  0  0  0  0  0  0  0  0  0  0
    9.6820   -4.9342   17.4955 C   0  0  0  0  0  0  0  0  0  0  0  0
   10.0628   -5.7388   19.7509 C   0  0  0  0  0  0  0  0  0  0  0  0
    6.3802   -8.4636   18.1507 C   0  0  0  0  0  0  0  0  0  0  0  0
    9.9289   -1.8138   24.3327 C   0  0  0  0  0  0  0  0  0  0  0  0
    5.1860   -7.6521   15.7986 C   0  0  0  0  0  0  0  0  0  0  0  0
   10.9289   -3.1024   17.6983 C   0  0  0  0  0  0  0  0  0  0  0  0
   10.1589   -4.8462   18.7747 C   0  0  0  0  0  0  0  0  0  0  0  0
   10.8783   -4.4784   23.8488 C   0  0  0  0  0  0  0  0  0  0  0  0
    6.9491   -6.1596   15.3352 O   0  0  0  0  0  0  0  0  0  0  0  0
   10.5354   -3.5550   22.6459 He  0  0  0  0  0  0  0  0  0  0  0  0
  1 11  4  0
  1 13  4  0
  2 14  2  0
  2 25  2  0
  3 11  4  0
  3 22  4  0
  3 23  4  0
  4 10  4  0
  4 20  4  0
  5 15  1  0
  5 19  1  0
  6 10  1  0
  6 17  4  0
  6 22  4  0
  7 14  1  0
  7 16  1  0
  8 15  1  0
  8 19  1  0
  9 20  4  0
 10 24  4  0
 12 16  1  0
 12 21  2  0
 12 25  1  0
 13 18  4  0
 14 17  1  0
 15 21  2  0
 15 25  4  0
 16 19  2  0
 17 23  4  0
 18 23  4  0
 21 25  1  0
M  END
$$$$

 Created by Python create_sdf_string function

 26 30  0  0  0  0  0  0  0  0999 V2000
   10.6710   -4.0211   21.3858 C   0  0  0  0  0  0  0  0  0  0  0  0
    8.0605   -5.6299   15.7626 C   0  0  0  0  0  0  0  0  0  0  0  0
   10.7234   -3.6252   19.0102 C   0  0  0  0  0  0  0  0  0  0  0  0
   10.2735   -2.7137   25.3724 C   0  0  0  0  0  0  0  0  0  0  0  0
    3.3474   -8.9078   16.3522 N   0  0  0  0  0  0  0  0  0  0  0  0
   10.2157   -3.8463   16.7801 C   0  0  0  0  0  0  0  0  0  0  0  0
    8.1484   -6.8845   17.6919 C   0  0  0  0  0  0  0  0  0  0  0  0
   10.5701   -3.5753   22.7371 C   0  0  0  0  0  0  0  0  0  0  0  0
    5.1033   -8.8914   17.7947 C   0  0  0  0  0  0  0  0  0  0  0  0
   10.1250   -2.3036   22.9669 C   0  0  0  0  0  0  0  0  0  0  0  0
   10.7496   -4.0102   25.1347 C   0  0  0  0  0  0  0  0  0  0  0  0
   10.9093   -3.1827   20.2753 C   0  0  0  0  0  0  0  0  0  0  0  0
    6.3394   -7.0989   16.1298 C   0  0  0  0  0  0  0  0  0  0  0  0
   10.5177   -5.3890   21.1002 C   0  0  0  0  0  0  0  0  0  0  0  0
    8.6752   -5.8256   16.9220 C   0  0  0  0  0  0  0  0  0  0  0  0
    4.4916   -8.4528   16.6114 C   0  0  0  0  0  0  0  0  0  0  0  0
    6.9860   -7.4862   17.3489 C   0  0  0  0  0  0  0  0  0  0  0  0
    9.6594   -4.9387   17.4771 C   0  0  0  0  0  0  0  0  0  0  0  0
   10.1428   -5.7820   19.8044 C   0  0  0  0  0  0  0  0  0  0  0  0
    6.3465   -8.4170   18.1001 C   0  0  0  0  0  0  0  0  0  0  0  0
    9.9401   -1.8517   24.3043 C   0  0  0  0  0  0  0  0  0  0  0  0
    5.1815   -7.6142   15.8429 C   0  0  0  0  0  0  0  0  0  0  0  0
   10.9017   -3.0481   17.7033 C   0  0  0  0  0  0  0  0  0  0  0  0
   10.1367   -4.8821   18.8068 C   0  0  0  0  0  0  0  0  0  0  0  0
   10.8810   -4.4474   23.7943 C   0  0  0  0  0  0  0  0  0  0  0  0
    6.9750   -6.1951   15.3831 O   0  0  0  0  0  0  0  0  0  0  0  0
  1  8  1  0
  1 12  4  0
  1 14  4  0
  2 15  2  0
  2 26  2  0
  3 12  4  0
  3 23  4  0
  3 24  4  0
  4 11  4  0
  4 21  4  0
  5 16  1  0
  6 18  4  0
  6 23  4  0
  7 15  1  0
  7 17  1  0
  8 10  4  0
  8 25  4  0
  9 16  1  0
  9 20  1  0
 10 21  4  0
 11 25  4  0
 13 17  1  0
 13 22  2  0
 13 26  1  0
 14 19  4  0
 15 18  1  0
 16 22  2  0
 17 20  2  0
 18 24  4  0
 19 24  4  0
M  END
$$$$

 Created by Python create_sdf_string function

 26 27  0  0  0  0  0  0  0  0999 V2000
   10.6959   -4.0690   21.3910 C   0  0  0  0  0  0  0  0  0  0  0  0
    8.0982   -5.6028   15.8032 C   0  0  0  0  0  0  0  0  0  0  0  0
   10.6844   -3.6304   19.0086 C   0  0  0  0  0  0  0  0  0  0  0  0
   10.2464   -2.7162   25.3263 C   0  0  0  0  0  0  0  0  0  0  0  0
    3.3568   -8.9118   16.3896 N   0  0  0  0  0  0  0  0  0  0  0  0
   10.2498   -3.8618   16.8358 C   0  0  0  0  0  0  0  0  0  0  0  0
    8.0949   -6.8593   17.6985 C   0  0  0  0  0  0  0  0  0  0  0  0
   10.5801   -3.5269   22.7430 C   0  0  0  0  0  0  0  0  0  0  0  0
    5.0653   -8.8391   17.7207 C   0  0  0  0  0  0  0  0  0  0  0  0
   10.1291   -2.3173   22.9021 C   0  0  0  0  0  0  0  0  0  0  0  0
   10.7534   -4.0971   25.1795 C   0  0  0  0  0  0  0  0  0  0  0  0
   10.8926   -3.1519   20.2640 C   0  0  0  0  0  0  0  0  0  0  0  0
    6.3834   -7.0568   16.1595 C   0  0  0  0  0  0  0  0  0  0  0  0
   10.4746   -5.4582   21.1483 C   0  0  0  0  0  0  0  0  0  0  0  0
    8.6803   -5.8291   16.9182 C   0  0  0  0  0  0  0  0  0  0  0  0
    4.4429   -8.4525   16.5823 C   0  0  0  0  0  0  0  0  0  0  0  0
    6.9719   -7.4473   17.3447 C   0  0  0  0  0  0  0  0  0  0  0  0
    9.6219   -4.8066   17.4953 O   0  0  0  0  0  0  0  0  0  0  0  0
   10.1112   -5.7945   19.7974 C   0  0  0  0  0  0  0  0  0  0  0  0
    6.3606   -8.3733   18.0636 C   0  0  0  0  0  0  0  0  0  0  0  0
    9.9740   -1.8422   24.2552 C   0  0  0  0  0  0  0  0  0  0  0  0
    5.1873   -7.6343   15.7915 C   0  0  0  0  0  0  0  0  0  0  0  0
   10.8169   -2.9830   17.7272 C   0  0  0  0  0  0  0  0  0  0  0  0
   10.8968   -4.4346   23.8242 C   0  0  0  0  0  0  0  0  0  0  0  0
    6.9401   -6.1858   15.4073 O   0  0  0  0  0  0  0  0  0  0  0  0
   10.1574   -4.8700   18.7669 He  0  0  0  0  0  0  0  0  0  0  0  0
  1  8  1  0
  1 12  4  0
  1 13  4  0
  1 14  4  0
  2 15  2  0
  2 25  2  0
  3 12  4  0
  3 23  4  0
  4 11  4  0
  4 21  4  0
  5 16  1  0
  6 18  4  0
  6 23  4  0
  7 17  1  0
  8 10  4  0
  8 24  4  0
  9 16  1  0
  9 20  1  0
 10 21  4  0
 11 24  4  0
 13 17  1  0
 13 22  2  0
 13 25  1  0
 14 19  4  0
 15 18  1  0
 16 22  2  0
 17 20  2  0
M  END
$$$$

 Created by Python create_sdf_string function

 26 30  0  0  0  0  0  0  0  0999 V2000
   10.6627   -4.0469   21.3723 C   0  0  0  0  0  0  0  0  0  0  0  0
    8.0842   -5.5858   15.7837 C   0  0  0  0  0  0  0  0  0  0  0  0
   10.7013   -3.5835   19.0289 C   0  0  0  0  0  0  0  0  0  0  0  0
   10.2525   -2.7119   25.3492 C   0  0  0  0  0  0  0  0  0  0  0  0
    3.3747   -8.8836   16.3563 N   0  0  0  0  0  0  0  0  0  0  0  0
   10.2064   -3.8134   16.8319 C   0  0  0  0  0  0  0  0  0  0  0  0
    8.1204   -6.8369   17.7122 C   0  0  0  0  0  0  0  0  0  0  0  0
   10.5821   -3.5846   22.7275 C   0  0  0  0  0  0  0  0  0  0  0  0
    5.1118   -8.8587   17.7678 C   0  0  0  0  0  0  0  0  0  0  0  0
   10.1716   -2.2839   22.9433 C   0  0  0  0  0  0  0  0  0  0  0  0
   10.7313   -4.0172   25.1410 C   0  0  0  0  0  0  0  0  0  0  0  0
   10.9077   -3.1801   20.2924 C   0  0  0  0  0  0  0  0  0  0  0  0
    6.3366   -7.0758   16.1334 C   0  0  0  0  0  0  0  0  0  0  0  0
   10.4647   -5.4253   21.1075 C   0  0  0  0  0  0  0  0  0  0  0  0
    8.6853   -5.7917   16.9690 C   0  0  0  0  0  0  0  0  0  0  0  0
    4.4959   -8.4451   16.5825 C   0  0  0  0  0  0  0  0  0  0  0  0
    6.9715   -7.4418   17.3473 C   0  0  0  0  0  0  0  0  0  0  0  0
    9.6590   -4.9006   17.4921 N   0  0  0  0  0  0  0  0  0  0  0  0
   10.1219   -5.7881   19.7774 C   0  0  0  0  0  0  0  0  0  0  0  0
    6.3208   -8.3707   18.0714 C   0  0  0  0  0  0  0  0  0  0  0  0
    9.9703   -1.8567   24.2785 C   0  0  0  0  0  0  0  0  0  0  0  0
    5.1920   -7.6012   15.8146 C   0  0  0  0  0  0  0  0  0  0  0  0
   10.8334   -2.9872   17.7469 C   0  0  0  0  0  0  0  0  0  0  0  0
   10.1245   -4.8659   18.8152 C   0  0  0  0  0  0  0  0  0  0  0  0
   10.8856   -4.4350   23.7990 C   0  0  0  0  0  0  0  0  0  0  0  0
    6.9863   -6.1717   15.4026 O   0  0  0  0  0  0  0  0  0  0  0  0
  1  8  1  0
  1 12  4  0
  1 14  4  0
  2 15  2  0
  2 26  2  0
  3 12  4  0
  3 23  4  0
  3 24  4  0
  4 11  4  0
  4 21  4  0
  5 16  1  0
  6 18  4  0
  6 23  4  0
  7 15  1  0
  7 17  1  0
  8 10  4  0
  8 25  4  0
  9 16  1  0
  9 20  1  0
 10 21  4  0
 11 25  4  0
 13 17  1  0
 13 22  2  0
 13 26  1  0
 14 19  4  0
 15 18  1  0
 16 22  2  0
 17 20  2  0
 18 24  4  0
 19 24  4  0
M  END
$$$$

 Created by Python create_sdf_string function

 26 33  0  0  0  0  0  0  0  0999 V2000
   10.6909   -4.1112   21.3612 C   0  0  0  0  0  0  0  0  0  0  0  0
    8.0202   -5.5807   15.7335 C   0  0  0  0  0  0  0  0  0  0  0  0
   10.7206   -3.5346   19.0349 C   0  0  0  0  0  0  0  0  0  0  0  0
   10.3184   -2.7364   25.3987 C   0  0  0  0  0  0  0  0  0  0  0  0
    3.3549   -8.9026   16.2934 N   0  0  0  0  0  0  0  0  0  0  0  0
   10.2403   -3.8271   16.8276 C   0  0  0  0  0  0  0  0  0  0  0  0
    8.1647   -6.8633   17.6782 C   0  0  0  0  0  0  0  0  0  0  0  0
   10.5829   -3.6294   22.7131 C   0  0  0  0  0  0  0  0  0  0  0  0
    5.0618   -8.9010   17.7410 C   0  0  0  0  0  0  0  0  0  0  0  0
   10.1318   -2.2317   22.8967 C   0  0  0  0  0  0  0  0  0  0  0  0
   10.7018   -4.0296   25.2002 C   0  0  0  0  0  0  0  0  0  0  0  0
   10.9225   -3.1814   20.3214 C   0  0  0  0  0  0  0  0  0  0  0  0
    6.3845   -7.0484   16.0956 C   0  0  0  0  0  0  0  0  0  0  0  0
   10.4262   -5.4540   21.1465 C   0  0  0  0  0  0  0  0  0  0  0  0
    8.7202   -5.8117   16.9631 C   0  0  0  0  0  0  0  0  0  0  0  0
    4.5588   -8.4419   16.5824 C   0  0  0  0  0  0  0  0  0  0  0  0
    6.9313   -7.3963   17.3133 C   0  0  0  0  0  0  0  0  0  0  0  0
    9.6886   -4.9259   17.4346 N   0  0  0  0  0  0  0  0  0  0  0  0
   10.0976   -5.7954   19.8060 C   0  0  0  0  0  0  0  0  0  0  0  0
    6.3084   -8.3516   18.0784 C   0  0  0  0  0  0  0  0  0  0  0  0
    9.9536   -1.8850   24.2625 C   0  0  0  0  0  0  0  0  0  0  0  0
    5.1546   -7.6181   15.9097 C   0  0  0  0  0  0  0  0  0  0  0  0
   10.8520   -3.0402   17.7295 C   0  0  0  0  0  0  0  0  0  0  0  0
   10.1259   -4.8218   18.8186 C   0  0  0  0  0  0  0  0  0  0  0  0
   10.9065   -4.5093   23.8062 C   0  0  0  0  0  0  0  0  0  0  0  0
    6.9973   -6.1981   15.3764 O   0  0  0  0  0  0  0  0  0  0  0  0
  1  8  1  0
  1 12  4  0
  1 14  4  0
  2 15  2  0
  2 26  2  0
  3 12  4  0
  3 23  4  0
  3 24  4  0
  4 11  4  0
  4 21  4  0
  5 16  1  0
  6 18  4  0
  6 23  4  0
  7 15  1  0
  7 17  1  0
  8 10  4  0
  8 25  4  0
  9 16  1  0
  9 20  1  0
 10 21  4  0
 11 25  4  0
 13 17  1  0
 13 22  2  0
 13 26  1  0
 14 19  4  0
 14 21  1  0
 15 18  1  0
 16 22  2  0
 17 20  2  0
 18 24  4  0
 19 21  4  0
 19 24  4  0
 20 25  2  0
M  END
$$$$

 Created by Python create_sdf_string function

 26 30  0  0  0  0  0  0  0  0999 V2000
   10.6593   -4.0735   21.3789 C   0  0  0  0  0  0  0  0  0  0  0  0
    8.0670   -5.5951   15.7886 C   0  0  0  0  0  0  0  0  0  0  0  0
   10.7145   -3.5827   19.0417 C   0  0  0  0  0  0  0  0  0  0  0  0
   10.2854   -2.7198   25.3676 C   0  0  0  0  0  0  0  0  0  0  0  0
    3.4113   -8.8851   16.2967 N   0  0  0  0  0  0  0  0  0  0  0  0
   10.2221   -3.8229   16.8338 C   0  0  0  0  0  0  0  0  0  0  0  0
    8.1440   -6.8415   17.6818 C   0  0  0  0  0  0  0  0  0  0  0  0
   10.5846   -3.6096   22.7400 C   0  0  0  0  0  0  0  0  0  0  0  0
    5.1279   -8.8734   17.7617 C   0  0  0  0  0  0  0  0  0  0  0  0
   10.1774   -2.2857   22.9475 C   0  0  0  0  0  0  0  0  0  0  0  0
   10.7264   -4.0421   25.1579 C   0  0  0  0  0  0  0  0  0  0  0  0
   10.9159   -3.1914   20.3181 C   0  0  0  0  0  0  0  0  0  0  0  0
    6.3426   -7.0646   16.1359 C   0  0  0  0  0  0  0  0  0  0  0  0
   10.4329   -5.4551   21.1248 C   0  0  0  0  0  0  0  0  0  0  0  0
    8.7031   -5.7911   16.9487 C   0  0  0  0  0  0  0  0  0  0  0  0
    4.5258   -8.4393   16.5764 C   0  0  0  0  0  0  0  0  0  0  0  0
    6.9799   -7.4198   17.3435 C   0  0  0  0  0  0  0  0  0  0  0  0
    9.6679   -4.9000   17.5151 N   0  0  0  0  0  0  0  0  0  0  0  0
   10.0961   -5.7808   19.7864 C   0  0  0  0  0  0  0  0  0  0  0  0
    6.3323   -8.3363   18.0911 C   0  0  0  0  0  0  0  0  0  0  0  0
    9.9756   -1.8669   24.2934 C   0  0  0  0  0  0  0  0  0  0  0  0
    5.1956   -7.5783   15.8468 C   0  0  0  0  0  0  0  0  0  0  0  0
   10.8612   -2.9910   17.7420 C   0  0  0  0  0  0  0  0  0  0  0  0
   10.1330   -4.8439   18.8309 C   0  0  0  0  0  0  0  0  0  0  0  0
   10.8752   -4.4719   23.8104 C   0  0  0  0  0  0  0  0  0  0  0  0
    7.0019   -6.1956   15.3960 O   0  0  0  0  0  0  0  0  0  0  0  0
  1  8  1  0
  1 12  4  0
  1 14  4  0
  2 15  2  0
  2 26  2  0
  3 12  4  0
  3 23  4  0
  3 24  4  0
  4 11  4  0
  4 21  4  0
  5 16  1  0
  6 18  4  0
  6 23  4  0
  7 15  1  0
  7 17  1  0
  8 10  4  0
  8 25  4  0
  9 16  1  0
  9 20  1  0
 10 21  4  0
 11 25  4  0
 13 17  1  0
 13 22  2  0
 13 26  1  0
 14 19  4  0
 15 18  1  0
 16 22  2  0
 17 20  2  0
 18 24  4  0
 19 24  4  0
M  END
$$$$

 Created by Python create_sdf_string function

 26 27  0  0  0  0  0  0  0  0999 V2000
   10.6586   -4.0552   21.3820 C   0  0  0  0  0  0  0  0  0  0  0  0
    8.0909   -5.6066   15.7716 C   0  0  0  0  0  0  0  0  0  0  0  0
   10.7320   -3.6074   19.0228 C   0  0  0  0  0  0  0  0  0  0  0  0
   10.2598   -2.7727   25.3883 C   0  0  0  0  0  0  0  0  0  0  0  0
    3.4240   -8.9037   16.2794 N   0  0  0  0  0  0  0  0  0  0  0  0
   10.2186   -3.8239   16.8213 C   0  0  0  0  0  0  0  0  0  0  0  0
    8.1349   -6.8232   17.6803 C   0  0  0  0  0  0  0  0  0  0  0  0
   10.5552   -3.6110   22.7518 C   0  0  0  0  0  0  0  0  0  0  0  0
    5.1813   -8.8711   17.7658 C   0  0  0  0  0  0  0  0  0  0  0  0
   10.1857   -2.3032   22.9336 C   0  0  0  0  0  0  0  0  0  0  0  0
   10.7258   -3.9945   25.1583 C   0  0  0  0  0  0  0  0  0  0  0  0
   10.8905   -3.2036   20.2924 C   0  0  0  0  0  0  0  0  0  0  0  0
    6.3128   -7.0974   16.1395 C   0  0  0  0  0  0  0  0  0  0  0  0
   10.4523   -5.4795   21.1164 C   0  0  0  0  0  0  0  0  0  0  0  0
    8.7262   -5.7752   16.9374 C   0  0  0  0  0  0  0  0  0  0  0  0
    4.5027   -8.4591   16.5797 C   0  0  0  0  0  0  0  0  0  0  0  0
    6.9602   -7.4088   17.2896 C   0  0  0  0  0  0  0  0  0  0  0  0
    9.6653   -4.9054   17.5122 N   0  0  0  0  0  0  0  0  0  0  0  0
   10.0411   -5.8115   19.7939 C   0  0  0  0  0  0  0  0  0  0  0  0
    6.3122   -8.3450   18.0974 C   0  0  0  0  0  0  0  0  0  0  0  0
    9.9962   -1.8739   24.2780 C   0  0  0  0  0  0  0  0  0  0  0  0
    5.2600   -7.5593   15.8177 C   0  0  0  0  0  0  0  0  0  0  0  0
   10.1460   -4.8586   18.8211 C   0  0  0  0  0  0  0  0  0  0  0  0
   10.9352   -4.4878   23.7521 C   0  0  0  0  0  0  0  0  0  0  0  0
    6.9873   -6.2242   15.3744 O   0  0  0  0  0  0  0  0  0  0  0  0
   10.8294   -2.9621   17.7259 He  0  0  0  0  0  0  0  0  0  0  0  0
  1  7  4  0
  1  8  1  0
  1 12  4  0
  1 14  4  0
  2 15  2  0
  2 25  2  0
  3 12  4  0
  3 23  4  0
  4 21  4  0
  5 16  1  0
  6 18  4  0
  7 15  1  0
  8 10  2  0
  8 24  4  0
  9 16  1  0
  9 20  1  0
 10 21  4  0
 11 24  4  0
 13 17  1  0
 13 22  2  0
 13 25  1  0
 14 19  4  0
 15 18  1  0
 16 22  4  0
 17 20  2  0
 18 23  4  0
 19 23  4  0
M  END
$$$$

 Created by Python create_sdf_string function

 26 30  0  0  0  0  0  0  0  0999 V2000
   10.6532   -4.0710   21.3679 C   0  0  0  0  0  0  0  0  0  0  0  0
    8.0992   -5.5993   15.7801 C   0  0  0  0  0  0  0  0  0  0  0  0
   10.6978   -3.6052   19.0410 C   0  0  0  0  0  0  0  0  0  0  0  0
   10.2639   -2.7445   25.3589 C   0  0  0  0  0  0  0  0  0  0  0  0
    3.4289   -8.9021   16.2829 N   0  0  0  0  0  0  0  0  0  0  0  0
   10.2049   -3.8105   16.8480 C   0  0  0  0  0  0  0  0  0  0  0  0
    8.1607   -6.8221   17.7079 C   0  0  0  0  0  0  0  0  0  0  0  0
   10.5891   -3.6051   22.7236 C   0  0  0  0  0  0  0  0  0  0  0  0
    5.1594   -8.8752   17.7660 C   0  0  0  0  0  0  0  0  0  0  0  0
   10.1937   -2.3075   22.9648 C   0  0  0  0  0  0  0  0  0  0  0  0
   10.7402   -4.0300   25.1258 C   0  0  0  0  0  0  0  0  0  0  0  0
   10.9098   -3.2082   20.2993 C   0  0  0  0  0  0  0  0  0  0  0  0
    6.3605   -7.0704   16.1334 C   0  0  0  0  0  0  0  0  0  0  0  0
   10.4320   -5.4541   21.1252 C   0  0  0  0  0  0  0  0  0  0  0  0
    8.7050   -5.7770   16.9554 C   0  0  0  0  0  0  0  0  0  0  0  0
    4.5241   -8.4637   16.5775 C   0  0  0  0  0  0  0  0  0  0  0  0
    7.0021   -7.4049   17.3474 C   0  0  0  0  0  0  0  0  0  0  0  0
    9.6683   -4.8936   17.5066 N   0  0  0  0  0  0  0  0  0  0  0  0
   10.0780   -5.8084   19.7927 C   0  0  0  0  0  0  0  0  0  0  0  0
    6.3454   -8.3330   18.1046 C   0  0  0  0  0  0  0  0  0  0  0  0
    9.9898   -1.8638   24.2947 C   0  0  0  0  0  0  0  0  0  0  0  0
    5.2015   -7.5933   15.8210 C   0  0  0  0  0  0  0  0  0  0  0  0
   10.8413   -2.9772   17.7537 C   0  0  0  0  0  0  0  0  0  0  0  0
   10.1217   -4.8623   18.8200 C   0  0  0  0  0  0  0  0  0  0  0  0
   10.8969   -4.4637   23.7943 C   0  0  0  0  0  0  0  0  0  0  0  0
    7.0214   -6.1914   15.3770 O   0  0  0  0  0  0  0  0  0  0  0  0
  1  8  1  0
  1 12  4  0
  1 14  4  0
  2 15  2  0
  2 26  2  0
  3 12  4  0
  3 23  4  0
  3 24  4  0
  4 11  4  0
  4 21  4  0
  5 16  1  0
  6 18  4  0
  6 23  4  0
  7 15  1  0
  7 17  1  0
  8 10  4  0
  8 25  4  0
  9 16  1  0
  9 20  1  0
 10 21  4  0
 11 25  4  0
 13 17  1  0
 13 22  2  0
 13 26  1  0
 14 19  4  0
 15 18  1  0
 16 22  2  0
 17 20  2  0
 18 24  4  0
 19 24  4  0
M  END
$$$$

 Created by Python create_sdf_string function

 26 32  0  0  0  0  0  0  0  0999 V2000
   10.6421   -4.1016   21.3708 C   0  0  0  0  0  0  0  0  0  0  0  0
    8.0957   -5.5848   15.7840 C   0  0  0  0  0  0  0  0  0  0  0  0
   10.6885   -3.6325   19.0148 C   0  0  0  0  0  0  0  0  0  0  0  0
   10.2834   -2.7356   25.3742 C   0  0  0  0  0  0  0  0  0  0  0  0
    3.4086   -8.9573   16.3040 N   0  0  0  0  0  0  0  0  0  0  0  0
   10.1937   -3.8262   16.8251 C   0  0  0  0  0  0  0  0  0  0  0  0
    8.1674   -6.8057   17.6570 C   0  0  0  0  0  0  0  0  0  0  0  0
   10.6286   -3.6226   22.6908 C   0  0  0  0  0  0  0  0  0  0  0  0
    5.1430   -8.8977   17.7633 C   0  0  0  0  0  0  0  0  0  0  0  0
   10.1359   -2.3016   22.9990 C   0  0  0  0  0  0  0  0  0  0  0  0
   10.7525   -4.0482   25.1220 C   0  0  0  0  0  0  0  0  0  0  0  0
   10.9100   -3.2053   20.2619 C   0  0  0  0  0  0  0  0  0  0  0  0
    6.3075   -7.0648   16.0879 C   0  0  0  0  0  0  0  0  0  0  0  0
   10.4438   -5.4315   21.1103 C   0  0  0  0  0  0  0  0  0  0  0  0
    8.7497   -5.7927   16.9311 C   0  0  0  0  0  0  0  0  0  0  0  0
    4.5356   -8.4462   16.5428 C   0  0  0  0  0  0  0  0  0  0  0  0
    9.6613   -4.9035   17.5556 N   0  0  0  0  0  0  0  0  0  0  0  0
   10.0709   -5.8249   19.7649 C   0  0  0  0  0  0  0  0  0  0  0  0
    6.3249   -8.3037   18.0786 C   0  0  0  0  0  0  0  0  0  0  0  0
    9.9829   -1.8362   24.2633 C   0  0  0  0  0  0  0  0  0  0  0  0
    5.1703   -7.5913   15.8090 C   0  0  0  0  0  0  0  0  0  0  0  0
   10.8020   -2.9891   17.7533 C   0  0  0  0  0  0  0  0  0  0  0  0
   10.1072   -4.8723   18.8153 C   0  0  0  0  0  0  0  0  0  0  0  0
   10.9264   -4.4895   23.8716 C   0  0  0  0  0  0  0  0  0  0  0  0
    7.0051   -6.1871   15.3922 O   0  0  0  0  0  0  0  0  0  0  0  0
    6.9489   -7.4307   17.3112 He  0  0  0  0  0  0  0  0  0  0  0  0
  1  8  1  0
  1 12  4  0
  1 14  4  0
  2 15  2  0
  2 25  2  0
  3 12  4  0
  3 22  4  0
  3 23  4  0
  4 11  4  0
  4 15  3  0
  4 20  4  0
  4 23  1  0
  4 24  4  0
  5  7  4  0
  5 16  1  0
  6 17  4  0
  6 22  4  0
  7 15  1  0
  8 10  4  0
  8 19  4  0
  8 24  4  0
  9 16  1  0
  9 19  1  0
 10 20  4  0
 11 24  4  0
 13 21  2  0
 13 25  1  0
 14 18  4  0
 15 17  1  0
 16 21  2  0
 16 25  2  0
 17 23  4  0
M  END
$$$$

 Created by Python create_sdf_string function

 26 30  0  0  0  0  0  0  0  0999 V2000
   10.6569   -4.0673   21.3731 C   0  0  0  0  0  0  0  0  0  0  0  0
    8.0998   -5.5922   15.7846 C   0  0  0  0  0  0  0  0  0  0  0  0
   10.6874   -3.6084   19.0390 C   0  0  0  0  0  0  0  0  0  0  0  0
   10.2865   -2.7302   25.3527 C   0  0  0  0  0  0  0  0  0  0  0  0
    3.4392   -8.9341   16.2946 N   0  0  0  0  0  0  0  0  0  0  0  0
   10.1813   -3.8056   16.8457 C   0  0  0  0  0  0  0  0  0  0  0  0
    8.1628   -6.8344   17.6905 C   0  0  0  0  0  0  0  0  0  0  0  0
   10.5908   -3.6036   22.7283 C   0  0  0  0  0  0  0  0  0  0  0  0
    5.1628   -8.8720   17.7571 C   0  0  0  0  0  0  0  0  0  0  0  0
   10.1811   -2.3108   22.9576 C   0  0  0  0  0  0  0  0  0  0  0  0
   10.7542   -4.0255   25.1205 C   0  0  0  0  0  0  0  0  0  0  0  0
   10.9071   -3.2098   20.2958 C   0  0  0  0  0  0  0  0  0  0  0  0
    6.3522   -7.0513   16.1171 C   0  0  0  0  0  0  0  0  0  0  0  0
   10.4336   -5.4396   21.1146 C   0  0  0  0  0  0  0  0  0  0  0  0
    8.7151   -5.7860   16.9512 C   0  0  0  0  0  0  0  0  0  0  0  0
    4.5484   -8.4579   16.5677 C   0  0  0  0  0  0  0  0  0  0  0  0
    6.9917   -7.4020   17.3291 C   0  0  0  0  0  0  0  0  0  0  0  0
    9.6624   -4.8976   17.5144 N   0  0  0  0  0  0  0  0  0  0  0  0
   10.0850   -5.8015   19.7960 C   0  0  0  0  0  0  0  0  0  0  0  0
    6.3435   -8.3109   18.0894 C   0  0  0  0  0  0  0  0  0  0  0  0
    9.9881   -1.8561   24.2900 C   0  0  0  0  0  0  0  0  0  0  0  0
    5.2042   -7.5837   15.8235 C   0  0  0  0  0  0  0  0  0  0  0  0
   10.8127   -2.9882   17.7598 C   0  0  0  0  0  0  0  0  0  0  0  0
   10.1153   -4.8698   18.8207 C   0  0  0  0  0  0  0  0  0  0  0  0
   10.9027   -4.4600   23.7995 C   0  0  0  0  0  0  0  0  0  0  0  0
    7.0216   -6.1711   15.3887 O   0  0  0  0  0  0  0  0  0  0  0  0
  1  8  1  0
  1 12  4  0
  1 14  4  0
  2 15  2  0
  2 26  2  0
  3 12  4  0
  3 23  4  0
  3 24  4  0
  4 11  4  0
  4 21  4  0
  5 16  1  0
  6 18  4  0
  6 23  4  0
  7 15  1  0
  7 17  1  0
  8 10  4  0
  8 25  4  0
  9 16  1  0
  9 20  1  0
 10 21  4  0
 11 25  4  0
 13 17  1  0
 13 22  2  0
 13 26  1  0
 14 19  4  0
 15 18  1  0
 16 22  2  0
 17 20  2  0
 18 24  4  0
 19 24  4  0
M  END
$$$$

 Created by Python create_sdf_string function

 26 28  0  0  0  0  0  0  0  0999 V2000
   10.6879   -4.0559   21.3796 C   0  0  0  0  0  0  0  0  0  0  0  0
    8.0756   -5.5989   15.7736 C   0  0  0  0  0  0  0  0  0  0  0  0
   10.6706   -3.5781   19.0484 C   0  0  0  0  0  0  0  0  0  0  0  0
   10.3030   -2.7203   25.3473 C   0  0  0  0  0  0  0  0  0  0  0  0
    3.4374   -8.9403   16.3089 N   0  0  0  0  0  0  0  0  0  0  0  0
   10.1486   -3.8019   16.8385 C   0  0  0  0  0  0  0  0  0  0  0  0
    8.1309   -6.8148   17.7203 C   0  0  0  0  0  0  0  0  0  0  0  0
   10.5690   -3.6233   22.7437 C   0  0  0  0  0  0  0  0  0  0  0  0
    5.1804   -8.8384   17.7187 C   0  0  0  0  0  0  0  0  0  0  0  0
   10.1522   -2.3280   22.9532 C   0  0  0  0  0  0  0  0  0  0  0  0
   10.7612   -4.0509   25.1285 C   0  0  0  0  0  0  0  0  0  0  0  0
   10.9078   -3.2200   20.2713 C   0  0  0  0  0  0  0  0  0  0  0  0
    6.3555   -7.0302   16.1503 C   0  0  0  0  0  0  0  0  0  0  0  0
   10.4564   -5.4478   21.1333 C   0  0  0  0  0  0  0  0  0  0  0  0
    8.7400   -5.8097   16.9651 C   0  0  0  0  0  0  0  0  0  0  0  0
    4.5267   -8.4625   16.5645 C   0  0  0  0  0  0  0  0  0  0  0  0
    7.0113   -7.4296   17.3428 C   0  0  0  0  0  0  0  0  0  0  0  0
    9.6799   -4.9313   17.4627 N   0  0  0  0  0  0  0  0  0  0  0  0
   10.0938   -5.7772   19.7542 C   0  0  0  0  0  0  0  0  0  0  0  0
    6.3470   -8.3366   18.1425 C   0  0  0  0  0  0  0  0  0  0  0  0
    9.9876   -1.8713   24.2896 C   0  0  0  0  0  0  0  0  0  0  0  0
    5.2013   -7.6185   15.8222 C   0  0  0  0  0  0  0  0  0  0  0  0
   10.8120   -3.0183   17.7850 C   0  0  0  0  0  0  0  0  0  0  0  0
   10.9088   -4.4657   23.8214 C   0  0  0  0  0  0  0  0  0  0  0  0
    7.0378   -6.1892   15.3622 O   0  0  0  0  0  0  0  0  0  0  0  0
   10.1059   -4.8692   18.8218 He  0  0  0  0  0  0  0  0  0  0  0  0
  1  8  1  0
  1 12  4  0
  1 14  4  0
  2 15  2  0
  2 25  2  0
  3 12  4  0
  3 23  4  0
  4 11  4  0
  4 21  4  0
  5 16  1  0
  6 18  4  0
  6 23  4  0
  7 15  1  0
  7 17  1  0
  8 10  4  0
  8 24  4  0
  9 16  1  0
  9 20  2  0
 10 21  4  0
 11 24  4  0
 13 17  1  0
 13 22  2  0
 13 25  1  0
 14 19  4  0
 15 18  1  0
 16 22  2  0
 17 20  2  0
 20 24  1  0
M  END
$$$$

 Created by Python create_sdf_string function

 26 30  0  0  0  0  0  0  0  0999 V2000
   10.6669   -4.0552   21.3865 C   0  0  0  0  0  0  0  0  0  0  0  0
    8.1006   -5.6100   15.7970 C   0  0  0  0  0  0  0  0  0  0  0  0
   10.6818   -3.6058   19.0486 C   0  0  0  0  0  0  0  0  0  0  0  0
   10.3046   -2.7322   25.3473 C   0  0  0  0  0  0  0  0  0  0  0  0
    3.4799   -8.9219   16.3131 N   0  0  0  0  0  0  0  0  0  0  0  0
   10.1727   -3.7766   16.8497 C   0  0  0  0  0  0  0  0  0  0  0  0
    8.1489   -6.8242   17.7252 C   0  0  0  0  0  0  0  0  0  0  0  0
   10.5921   -3.6098   22.7358 C   0  0  0  0  0  0  0  0  0  0  0  0
    5.1966   -8.8431   17.7577 C   0  0  0  0  0  0  0  0  0  0  0  0
   10.1708   -2.3112   22.9614 C   0  0  0  0  0  0  0  0  0  0  0  0
   10.7594   -4.0325   25.1196 C   0  0  0  0  0  0  0  0  0  0  0  0
   10.9044   -3.2060   20.3054 C   0  0  0  0  0  0  0  0  0  0  0  0
    6.3687   -7.0604   16.1357 C   0  0  0  0  0  0  0  0  0  0  0  0
   10.4523   -5.4366   21.1133 C   0  0  0  0  0  0  0  0  0  0  0  0
    8.7187   -5.7997   16.9634 C   0  0  0  0  0  0  0  0  0  0  0  0
    4.5737   -8.4528   16.5776 C   0  0  0  0  0  0  0  0  0  0  0  0
    7.0099   -7.4085   17.3615 C   0  0  0  0  0  0  0  0  0  0  0  0
    9.6564   -4.8921   17.4989 N   0  0  0  0  0  0  0  0  0  0  0  0
   10.1018   -5.7999   19.7834 C   0  0  0  0  0  0  0  0  0  0  0  0
    6.3394   -8.3193   18.0918 C   0  0  0  0  0  0  0  0  0  0  0  0
    9.9907   -1.8674   24.2772 C   0  0  0  0  0  0  0  0  0  0  0  0
    5.2289   -7.5823   15.8226 C   0  0  0  0  0  0  0  0  0  0  0  0
   10.8115   -2.9797   17.7784 C   0  0  0  0  0  0  0  0  0  0  0  0
   10.1140   -4.8725   18.8232 C   0  0  0  0  0  0  0  0  0  0  0  0
   10.8946   -4.4538   23.8080 C   0  0  0  0  0  0  0  0  0  0  0  0
    7.0347   -6.1954   15.3931 O   0  0  0  0  0  0  0  0  0  0  0  0
  1  8  1  0
  1 12  4  0
  1 14  4  0
  2 15  2  0
  2 26  2  0
  3 12  4  0
  3 23  4  0
  3 24  4  0
  4 11  4  0
  4 21  4  0
  5 16  1  0
  6 18  4  0
  6 23  4  0
  7 15  1  0
  7 17  1  0
  8 10  4  0
  8 25  4  0
  9 16  1  0
  9 20  2  0
 10 21  4  0
 11 25  4  0
 13 17  1  0
 13 22  2  0
 13 26  1  0
 14 19  4  0
 15 18  1  0
 16 22  2  0
 17 20  2  0
 18 24  4  0
 19 24  4  0
M  END
$$$$

 Created by Python create_sdf_string function

 26 30  0  0  0  0  0  0  0  0999 V2000
   10.6708   -4.0442   21.3689 C   0  0  0  0  0  0  0  0  0  0  0  0
    8.1394   -5.5806   15.8101 C   0  0  0  0  0  0  0  0  0  0  0  0
   10.6814   -3.6212   19.0469 C   0  0  0  0  0  0  0  0  0  0  0  0
   10.2911   -2.7108   25.3620 C   0  0  0  0  0  0  0  0  0  0  0  0
    3.4687   -8.9346   16.3131 N   0  0  0  0  0  0  0  0  0  0  0  0
   10.1349   -3.7759   16.8558 C   0  0  0  0  0  0  0  0  0  0  0  0
    8.1503   -6.8464   17.7128 C   0  0  0  0  0  0  0  0  0  0  0  0
   10.6055   -3.5871   22.7581 C   0  0  0  0  0  0  0  0  0  0  0  0
    5.1800   -8.8748   17.7200 B   0  0  0  0  0  0  0  0  0  0  0  0
   10.1575   -2.3099   22.9645 C   0  0  0  0  0  0  0  0  0  0  0  0
   10.7432   -4.0311   25.1224 C   0  0  0  0  0  0  0  0  0  0  0  0
   10.9050   -3.1736   20.3413 C   0  0  0  0  0  0  0  0  0  0  0  0
    6.3554   -7.0487   16.1209 C   0  0  0  0  0  0  0  0  0  0  0  0
   10.4589   -5.4304   21.1011 C   0  0  0  0  0  0  0  0  0  0  0  0
    8.7179   -5.7645   16.9249 C   0  0  0  0  0  0  0  0  0  0  0  0
    7.0087   -7.3985   17.3765 C   0  0  0  0  0  0  0  0  0  0  0  0
    9.6616   -4.8924   17.4761 N   0  0  0  0  0  0  0  0  0  0  0  0
   10.0798   -5.8214   19.7707 C   0  0  0  0  0  0  0  0  0  0  0  0
    6.3553   -8.3088   18.1112 C   0  0  0  0  0  0  0  0  0  0  0  0
    9.9943   -1.8671   24.2906 C   0  0  0  0  0  0  0  0  0  0  0  0
    5.2248   -7.5684   15.8350 C   0  0  0  0  0  0  0  0  0  0  0  0
   10.8092   -2.9876   17.7866 C   0  0  0  0  0  0  0  0  0  0  0  0
   10.1340   -4.8675   18.8524 C   0  0  0  0  0  0  0  0  0  0  0  0
   10.9330   -4.4289   23.7970 C   0  0  0  0  0  0  0  0  0  0  0  0
    6.9981   -6.2167   15.3795 O   0  0  0  0  0  0  0  0  0  0  0  0
    4.5707   -8.4268   16.5751 He  0  0  0  0  0  0  0  0  0  0  0  0
  1  8  1  0
  1 12  4  0
  1 14  4  0
  2 15  2  0
  2 25  2  0
  3 12  4  0
  3 22  4  0
  3 23  4  0
  4 11  4  0
  4 20  4  0
  4 23  3  0
  5  9  1  0
  6 17  4  0
  6 22  4  0
  7 15  1  0
  7 16  1  0
  8 10  4  0
  8 24  4  0
  9 19  2  0
 10 20  4  0
 11 24  4  0
 13 16  1  0
 13 21  2  0
 13 25  1  0
 14 18  4  0
 15 17  1  0
 16 19  2  0
 17 23  4  0
 18 23  4  0
 19 25  2  0
M  END
$$$$

 Created by Python create_sdf_string function

 26 30  0  0  0  0  0  0  0  0999 V2000
   10.6688   -4.0482   21.3923 C   0  0  0  0  0  0  0  0  0  0  0  0
    8.1098   -5.5992   15.7953 C   0  0  0  0  0  0  0  0  0  0  0  0
   10.6892   -3.6027   19.0654 C   0  0  0  0  0  0  0  0  0  0  0  0
   10.2946   -2.7238   25.3520 C   0  0  0  0  0  0  0  0  0  0  0  0
    3.5016   -8.9254   16.3383 N   0  0  0  0  0  0  0  0  0  0  0  0
   10.1497   -3.7680   16.8745 C   0  0  0  0  0  0  0  0  0  0  0  0
    8.1675   -6.8355   17.7210 C   0  0  0  0  0  0  0  0  0  0  0  0
   10.6029   -3.5910   22.7383 C   0  0  0  0  0  0  0  0  0  0  0  0
    5.1962   -8.8396   17.7339 C   0  0  0  0  0  0  0  0  0  0  0  0
   10.1820   -2.2910   22.9645 C   0  0  0  0  0  0  0  0  0  0  0  0
   10.7533   -4.0214   25.1138 C   0  0  0  0  0  0  0  0  0  0  0  0
   10.8987   -3.1932   20.3273 C   0  0  0  0  0  0  0  0  0  0  0  0
    6.3738   -7.0521   16.1433 C   0  0  0  0  0  0  0  0  0  0  0  0
   10.4570   -5.4314   21.1183 C   0  0  0  0  0  0  0  0  0  0  0  0
    8.7189   -5.7805   16.9693 C   0  0  0  0  0  0  0  0  0  0  0  0
    4.5859   -8.4491   16.5881 C   0  0  0  0  0  0  0  0  0  0  0  0
    7.0050   -7.4084   17.3694 C   0  0  0  0  0  0  0  0  0  0  0  0
    9.6577   -4.8794   17.5278 N   0  0  0  0  0  0  0  0  0  0  0  0
   10.1020   -5.8033   19.8061 C   0  0  0  0  0  0  0  0  0  0  0  0
    6.3284   -8.3257   18.0927 C   0  0  0  0  0  0  0  0  0  0  0  0
    9.9941   -1.8547   24.2810 C   0  0  0  0  0  0  0  0  0  0  0  0
    5.2308   -7.5592   15.8238 C   0  0  0  0  0  0  0  0  0  0  0  0
   10.8110   -2.9618   17.7927 C   0  0  0  0  0  0  0  0  0  0  0  0
   10.1284   -4.8543   18.8447 C   0  0  0  0  0  0  0  0  0  0  0  0
   10.9165   -4.4299   23.8050 C   0  0  0  0  0  0  0  0  0  0  0  0
    7.0414   -6.1885   15.4004 O   0  0  0  0  0  0  0  0  0  0  0  0
  1  8  1  0
  1 12  4  0
  1 14  4  0
  2 15  2  0
  2 26  1  0
  3 12  4  0
  3 23  4  0
  3 24  4  0
  4 11  4  0
  4 21  4  0
  5 16  1  0
  6 18  4  0
  6 23  4  0
  7 15  1  0
  7 17  1  0
  8 10  4  0
  8 25  4  0
  9 16  1  0
  9 20  2  0
 10 21  4  0
 11 25  4  0
 13 17  1  0
 13 22  2  0
 13 26  1  0
 14 19  4  0
 15 18  1  0
 16 22  2  0
 17 20  2  0
 18 24  4  0
 19 24  4  0
M  END
$$$$

 Created by Python create_sdf_string function

 26 28  0  0  0  0  0  0  0  0999 V2000
   10.6588   -4.0754   21.4009 C   0  0  0  0  0  0  0  0  0  0  0  0
    8.1048   -5.5828   15.7856 C   0  0  0  0  0  0  0  0  0  0  0  0
   10.6953   -3.6202   19.0616 C   0  0  0  0  0  0  0  0  0  0  0  0
   10.3103   -2.7121   25.3470 C   0  0  0  0  0  0  0  0  0  0  0  0
    3.4999   -8.9227   16.3358 N   0  0  0  0  0  0  0  0  0  0  0  0
   10.1401   -3.7697   16.8768 C   0  0  0  0  0  0  0  0  0  0  0  0
    8.1745   -6.8427   17.6900 C   0  0  0  0  0  0  0  0  0  0  0  0
   10.5808   -3.5981   22.7341 C   0  0  0  0  0  0  0  0  0  0  0  0
   10.1909   -2.2788   22.9488 C   0  0  0  0  0  0  0  0  0  0  0  0
   10.7430   -4.0168   25.1359 C   0  0  0  0  0  0  0  0  0  0  0  0
   10.9029   -3.2150   20.3522 C   0  0  0  0  0  0  0  0  0  0  0  0
    6.3756   -7.0714   16.1492 C   0  0  0  0  0  0  0  0  0  0  0  0
   10.4529   -5.3936   21.1233 C   0  0  0  0  0  0  0  0  0  0  0  0
    8.7286   -5.7643   16.9612 C   0  0  0  0  0  0  0  0  0  0  0  0
    4.5866   -8.4492   16.5994 C   0  0  0  0  0  0  0  0  0  0  0  0
    7.0040   -7.4083   17.3730 C   0  0  0  0  0  0  0  0  0  0  0  0
    9.6522   -4.8905   17.5247 N   0  0  0  0  0  0  0  0  0  0  0  0
   10.1078   -5.8001   19.8147 C   0  0  0  0  0  0  0  0  0  0  0  0
    6.3328   -8.3200   18.0801 C   0  0  0  0  0  0  0  0  0  0  0  0
    9.9607   -1.8404   24.2535 C   0  0  0  0  0  0  0  0  0  0  0  0
    5.2372   -7.5404   15.8435 C   0  0  0  0  0  0  0  0  0  0  0  0
   10.7961   -2.9478   17.8037 C   0  0  0  0  0  0  0  0  0  0  0  0
   10.1239   -4.8255   18.8597 C   0  0  0  0  0  0  0  0  0  0  0  0
   10.9323   -4.4278   23.8124 C   0  0  0  0  0  0  0  0  0  0  0  0
    7.0377   -6.1752   15.3776 O   0  0  0  0  0  0  0  0  0  0  0  0
    5.1969   -8.8495   17.7312 He  0  0  0  0  0  0  0  0  0  0  0  0
  1  8  1  0
  1 11  4  0
  1 13  4  0
  2 14  2  0
  2 25  1  0
  3 11  4  0
  3 22  4  0
  3 23  4  0
  4 10  4  0
  4 20  4  0
  5 15  1  0
  5 22  3  0
  6 17  4  0
  6 22  4  0
  7 14  1  0
  7 16  1  0
  8  9  4  0
  8 24  4  0
  9 20  4  0
 10 24  4  0
 12 16  1  0
 12 21  2  0
 13 18  4  0
 14 17  1  0
 15 21  2  0
 16 19  2  0
 17 23  4  0
 18 23  4  0
M  END
$$$$

 Created by Python create_sdf_string function

 26 30  0  0  0  0  0  0  0  0999 V2000
   10.6665   -4.0505   21.4070 C   0  0  0  0  0  0  0  0  0  0  0  0
    8.1442   -5.5676   15.7973 C   0  0  0  0  0  0  0  0  0  0  0  0
   10.6825   -3.5963   19.0811 C   0  0  0  0  0  0  0  0  0  0  0  0
   10.2979   -2.7048   25.3404 C   0  0  0  0  0  0  0  0  0  0  0  0
    3.4988   -8.9290   16.3452 N   0  0  0  0  0  0  0  0  0  0  0  0
   10.1460   -3.7577   16.8894 C   0  0  0  0  0  0  0  0  0  0  0  0
    8.1811   -6.8302   17.7113 C   0  0  0  0  0  0  0  0  0  0  0  0
   10.6013   -3.5926   22.7366 C   0  0  0  0  0  0  0  0  0  0  0  0
    5.2255   -8.8280   17.7564 C   0  0  0  0  0  0  0  0  0  0  0  0
   10.1995   -2.2840   22.9505 C   0  0  0  0  0  0  0  0  0  0  0  0
   10.7507   -4.0020   25.1152 C   0  0  0  0  0  0  0  0  0  0  0  0
   10.8999   -3.2030   20.3460 C   0  0  0  0  0  0  0  0  0  0  0  0
    6.3885   -7.0456   16.1451 C   0  0  0  0  0  0  0  0  0  0  0  0
   10.4479   -5.4108   21.1280 C   0  0  0  0  0  0  0  0  0  0  0  0
    8.7028   -5.7644   16.9789 C   0  0  0  0  0  0  0  0  0  0  0  0
    4.5971   -8.4401   16.5973 C   0  0  0  0  0  0  0  0  0  0  0  0
    7.0256   -7.4038   17.3652 C   0  0  0  0  0  0  0  0  0  0  0  0
    9.6521   -4.8719   17.5491 N   0  0  0  0  0  0  0  0  0  0  0  0
   10.1100   -5.7765   19.8197 C   0  0  0  0  0  0  0  0  0  0  0  0
    6.3593   -8.3103   18.0812 C   0  0  0  0  0  0  0  0  0  0  0  0
    9.9829   -1.8450   24.2682 C   0  0  0  0  0  0  0  0  0  0  0  0
    5.2373   -7.5506   15.8291 C   0  0  0  0  0  0  0  0  0  0  0  0
   10.8000   -2.9489   17.8071 C   0  0  0  0  0  0  0  0  0  0  0  0
   10.1244   -4.8448   18.8576 C   0  0  0  0  0  0  0  0  0  0  0  0
   10.9065   -4.4281   23.8083 C   0  0  0  0  0  0  0  0  0  0  0  0
    7.0404   -6.1791   15.3921 O   0  0  0  0  0  0  0  0  0  0  0  0
  1  8  1  0
  1 12  4  0
  1 14  4  0
  2 15  2  0
  2 26  1  0
  3 12  4  0
  3 23  4  0
  3 24  4  0
  4 11  4  0
  4 21  4  0
  5 16  1  0
  6 18  4  0
  6 23  4  0
  7 15  1  0
  7 17  1  0
  8 10  4  0
  8 25  4  0
  9 16  1  0
  9 20  2  0
 10 21  4  0
 11 25  4  0
 13 17  1  0
 13 22  2  0
 13 26  1  0
 14 19  4  0
 15 18  1  0
 16 22  2  0
 17 20  2  0
 18 24  4  0
 19 24  4  0
M  END
$$$$

 Created by Python create_sdf_string function

 26 31  0  0  0  0  0  0  0  0999 V2000
   10.6856   -4.0577   21.4016 C   0  0  0  0  0  0  0  0  0  0  0  0
    8.1465   -5.5696   15.7963 C   0  0  0  0  0  0  0  0  0  0  0  0
   10.6747   -3.5983   19.0764 C   0  0  0  0  0  0  0  0  0  0  0  0
   10.2932   -2.7081   25.3401 C   0  0  0  0  0  0  0  0  0  0  0  0
    3.4781   -8.9238   16.3428 N   0  0  0  0  0  0  0  0  0  0  0  0
   10.1314   -3.7584   16.8931 C   0  0  0  0  0  0  0  0  0  0  0  0
    8.1926   -6.8361   17.7243 C   0  0  0  0  0  0  0  0  0  0  0  0
   10.6035   -3.5751   22.7279 C   0  0  0  0  0  0  0  0  0  0  0  0
    5.1990   -8.8430   17.7573 C   0  0  0  0  0  0  0  0  0  0  0  0
   10.2101   -2.2867   22.9314 C   0  0  0  0  0  0  0  0  0  0  0  0
   10.7478   -3.9902   25.1128 C   0  0  0  0  0  0  0  0  0  0  0  0
   10.8809   -3.1932   20.3358 C   0  0  0  0  0  0  0  0  0  0  0  0
    6.3814   -7.0253   16.1322 C   0  0  0  0  0  0  0  0  0  0  0  0
   10.4515   -5.4191   21.1334 C   0  0  0  0  0  0  0  0  0  0  0  0
    8.6927   -5.7733   16.9789 C   0  0  0  0  0  0  0  0  0  0  0  0
    4.5999   -8.4442   16.5938 C   0  0  0  0  0  0  0  0  0  0  0  0
    7.0171   -7.4115   17.3695 C   0  0  0  0  0  0  0  0  0  0  0  0
    9.6568   -4.8582   17.5680 F   0  0  0  0  0  0  0  0  0  0  0  0
   10.1222   -5.7794   19.8429 C   0  0  0  0  0  0  0  0  0  0  0  0
    6.3593   -8.2866   18.0823 C   0  0  0  0  0  0  0  0  0  0  0  0
    9.9736   -1.8565   24.2654 C   0  0  0  0  0  0  0  0  0  0  0  0
    5.2367   -7.5396   15.8206 C   0  0  0  0  0  0  0  0  0  0  0  0
   10.7980   -2.9408   17.7992 C   0  0  0  0  0  0  0  0  0  0  0  0
   10.1274   -4.8335   18.8465 C   0  0  0  0  0  0  0  0  0  0  0  0
   10.9159   -4.4412   23.8043 C   0  0  0  0  0  0  0  0  0  0  0  0
    7.0352   -6.1717   15.4003 O   0  0  0  0  0  0  0  0  0  0  0  0
  1  8  1  0
  1 12  4  0
  1 14  4  0
  2 10  4  0
  2 15  2  0
  2 26  1  0
  3 12  4  0
  3 23  4  0
  3 24  4  0
  4 11  4  0
  4 21  4  0
  5 16  1  0
  6 18  4  0
  6 23  4  0
  7 10  3  0
  7 15  1  0
  7 17  1  0
  8 10  4  0
  8 25  4  0
  9 16  1  0
  9 20  2  0
 11 25  4  0
 13 17  1  0
 13 22  2  0
 13 26  1  0
 14 19  4  0
 15 18  1  0
 16 22  2  0
 17 20  2  0
 18 24  4  0
 19 24  4  0
M  END
$$$$

 Created by Python create_sdf_string function

 26 30  0  0  0  0  0  0  0  0999 V2000
   10.6736   -4.0427   21.4024 C   0  0  0  0  0  0  0  0  0  0  0  0
    8.1523   -5.5664   15.7934 C   0  0  0  0  0  0  0  0  0  0  0  0
   10.6808   -3.5794   19.0811 C   0  0  0  0  0  0  0  0  0  0  0  0
   10.2910   -2.7067   25.3318 C   0  0  0  0  0  0  0  0  0  0  0  0
    3.5226   -8.9085   16.3456 N   0  0  0  0  0  0  0  0  0  0  0  0
   10.1348   -3.7497   16.8941 C   0  0  0  0  0  0  0  0  0  0  0  0
    8.1748   -6.8380   17.7226 C   0  0  0  0  0  0  0  0  0  0  0  0
   10.6107   -3.5866   22.7313 C   0  0  0  0  0  0  0  0  0  0  0  0
    5.2351   -8.8241   17.7736 C   0  0  0  0  0  0  0  0  0  0  0  0
   10.2178   -2.2798   22.9515 C   0  0  0  0  0  0  0  0  0  0  0  0
   10.7536   -3.9965   25.1020 C   0  0  0  0  0  0  0  0  0  0  0  0
   10.8989   -3.1782   20.3437 C   0  0  0  0  0  0  0  0  0  0  0  0
    6.3877   -7.0332   16.1392 C   0  0  0  0  0  0  0  0  0  0  0  0
   10.4606   -5.4148   21.1302 C   0  0  0  0  0  0  0  0  0  0  0  0
    8.6891   -5.7736   16.9814 C   0  0  0  0  0  0  0  0  0  0  0  0
    4.6049   -8.4312   16.5924 C   0  0  0  0  0  0  0  0  0  0  0  0
    7.0241   -7.3956   17.3605 C   0  0  0  0  0  0  0  0  0  0  0  0
    9.6550   -4.8571   17.5553 N   0  0  0  0  0  0  0  0  0  0  0  0
   10.1202   -5.7776   19.8268 C   0  0  0  0  0  0  0  0  0  0  0  0
    6.3754   -8.2877   18.0800 C   0  0  0  0  0  0  0  0  0  0  0  0
    9.9886   -1.8411   24.2576 C   0  0  0  0  0  0  0  0  0  0  0  0
    5.2455   -7.5370   15.8129 C   0  0  0  0  0  0  0  0  0  0  0  0
   10.7959   -2.9349   17.8046 C   0  0  0  0  0  0  0  0  0  0  0  0
   10.1305   -4.8405   18.8668 C   0  0  0  0  0  0  0  0  0  0  0  0
   10.9013   -4.4353   23.7970 C   0  0  0  0  0  0  0  0  0  0  0  0
    7.0468   -6.1766   15.4211 O   0  0  0  0  0  0  0  0  0  0  0  0
  1  8  1  0
  1 12  4  0
  1 14  4  0
  2 15  2  0
  2 26  1  0
  3 12  4  0
  3 23  4  0
  3 24  4  0
  4 11  4  0
  4 21  4  0
  5 16  1  0
  6 18  4  0
  6 23  4  0
  7 15  1  0
  7 17  1  0
  8 10  4  0
  8 25  4  0
  9 16  1  0
  9 20  2  0
 10 21  4  0
 11 25  4  0
 13 17  1  0
 13 22  2  0
 13 26  1  0
 14 19  4  0
 15 18  1  0
 16 22  2  0
 17 20  2  0
 18 24  4  0
 19 24  4  0
M  END
$$$$

 Created by Python create_sdf_string function

 26 30  0  0  0  0  0  0  0  0999 V2000
   10.6733   -4.0358   21.4066 C   0  0  0  0  0  0  0  0  0  0  0  0
    8.1536   -5.5597   15.7928 C   0  0  0  0  0  0  0  0  0  0  0  0
   10.6708   -3.5793   19.0839 C   0  0  0  0  0  0  0  0  0  0  0  0
   10.2921   -2.7135   25.3350 C   0  0  0  0  0  0  0  0  0  0  0  0
    3.5241   -8.9086   16.3413 N   0  0  0  0  0  0  0  0  0  0  0  0
   10.1382   -3.7444   16.9057 C   0  0  0  0  0  0  0  0  0  0  0  0
    8.1730   -6.8338   17.7306 C   0  0  0  0  0  0  0  0  0  0  0  0
   10.6035   -3.5796   22.7277 C   0  0  0  0  0  0  0  0  0  0  0  0
    5.2355   -8.8254   17.7757 C   0  0  0  0  0  0  0  0  0  0  0  0
   10.2217   -2.2769   22.9458 C   0  0  0  0  0  0  0  0  0  0  0  0
   10.7467   -4.0126   25.1001 C   0  0  0  0  0  0  0  0  0  0  0  0
   10.8974   -3.1738   20.3387 C   0  0  0  0  0  0  0  0  0  0  0  0
    6.3877   -7.0279   16.1437 C   0  0  0  0  0  0  0  0  0  0  0  0
   10.4631   -5.4264   21.1391 C   0  0  0  0  0  0  0  0  0  0  0  0
    8.6925   -5.7841   16.9910 C   0  0  0  0  0  0  0  0  0  0  0  0
    4.6023   -8.4379   16.5887 C   0  0  0  0  0  0  0  0  0  0  0  0
    7.0140   -7.3980   17.3654 C   0  0  0  0  0  0  0  0  0  0  0  0
    9.6563   -4.8588   17.5583 N   0  0  0  0  0  0  0  0  0  0  0  0
   10.1234   -5.7792   19.8294 C   0  0  0  0  0  0  0  0  0  0  0  0
    6.3881   -8.2815   18.0871 C   0  0  0  0  0  0  0  0  0  0  0  0
    9.9937   -1.8312   24.2454 C   0  0  0  0  0  0  0  0  0  0  0  0
    5.2400   -7.5288   15.8196 C   0  0  0  0  0  0  0  0  0  0  0  0
   10.7961   -2.9358   17.7979 C   0  0  0  0  0  0  0  0  0  0  0  0
   10.1300   -4.8298   18.8592 C   0  0  0  0  0  0  0  0  0  0  0  0
   10.9097   -4.4267   23.7991 C   0  0  0  0  0  0  0  0  0  0  0  0
    7.0451   -6.1792   15.4228 O   0  0  0  0  0  0  0  0  0  0  0  0
  1  8  1  0
  1 12  4  0
  1 14  4  0
  2 15  2  0
  2 26  1  0
  3 12  4  0
  3 23  4  0
  3 24  4  0
  4 11  4  0
  4 21  4  0
  5 16  1  0
  6 18  4  0
  6 23  4  0
  7 15  1  0
  7 17  1  0
  8 10  4  0
  8 25  4  0
  9 16  1  0
  9 20  2  0
 10 21  4  0
 11 25  4  0
 13 17  1  0
 13 22  2  0
 13 26  1  0
 14 19  4  0
 15 18  1  0
 16 22  2  0
 17 20  2  0
 18 24  4  0
 19 24  4  0
M  END
$$$$

 Created by Python create_sdf_string function

 26 30  0  0  0  0  0  0  0  0999 V2000
   10.6723   -4.0353   21.3960 C   0  0  0  0  0  0  0  0  0  0  0  0
    8.1540   -5.5655   15.8030 C   0  0  0  0  0  0  0  0  0  0  0  0
   10.6759   -3.5765   19.0875 C   0  0  0  0  0  0  0  0  0  0  0  0
   10.2922   -2.7088   25.3277 C   0  0  0  0  0  0  0  0  0  0  0  0
    3.5523   -8.9018   16.3482 N   0  0  0  0  0  0  0  0  0  0  0  0
   10.1374   -3.7420   16.9054 C   0  0  0  0  0  0  0  0  0  0  0  0
    8.1820   -6.8315   17.7384 C   0  0  0  0  0  0  0  0  0  0  0  0
   10.6102   -3.5802   22.7290 C   0  0  0  0  0  0  0  0  0  0  0  0
    5.2551   -8.8130   17.7802 C   0  0  0  0  0  0  0  0  0  0  0  0
   10.2340   -2.2652   22.9412 C   0  0  0  0  0  0  0  0  0  0  0  0
   10.7473   -4.0025   25.0934 C   0  0  0  0  0  0  0  0  0  0  0  0
   10.8958   -3.1719   20.3417 C   0  0  0  0  0  0  0  0  0  0  0  0
    6.3923   -7.0313   16.1478 C   0  0  0  0  0  0  0  0  0  0  0  0
   10.4673   -5.4173   21.1393 C   0  0  0  0  0  0  0  0  0  0  0  0
    8.6909   -5.7717   16.9963 C   0  0  0  0  0  0  0  0  0  0  0  0
    4.6222   -8.4242   16.5984 C   0  0  0  0  0  0  0  0  0  0  0  0
    7.0310   -7.3866   17.3643 C   0  0  0  0  0  0  0  0  0  0  0  0
    9.6522   -4.8550   17.5550 N   0  0  0  0  0  0  0  0  0  0  0  0
   10.1225   -5.7736   19.8241 C   0  0  0  0  0  0  0  0  0  0  0  0
    6.3889   -8.2842   18.0851 C   0  0  0  0  0  0  0  0  0  0  0  0
   10.0080   -1.8294   24.2521 C   0  0  0  0  0  0  0  0  0  0  0  0
    5.2501   -7.5313   15.8170 C   0  0  0  0  0  0  0  0  0  0  0  0
   10.7989   -2.9215   17.8123 C   0  0  0  0  0  0  0  0  0  0  0  0
   10.1277   -4.8361   18.8639 C   0  0  0  0  0  0  0  0  0  0  0  0
   10.8935   -4.4289   23.7951 C   0  0  0  0  0  0  0  0  0  0  0  0
    7.0511   -6.1779   15.4273 O   0  0  0  0  0  0  0  0  0  0  0  0
  1  8  1  0
  1 12  4  0
  1 14  4  0
  2 15  2  0
  2 26  1  0
  3 12  4  0
  3 23  4  0
  3 24  4  0
  4 11  4  0
  4 21  4  0
  5 16  1  0
  6 18  4  0
  6 23  4  0
  7 15  1  0
  7 17  1  0
  8 10  4  0
  8 25  4  0
  9 16  1  0
  9 20  2  0
 10 21  4  0
 11 25  4  0
 13 17  1  0
 13 22  2  0
 13 26  1  0
 14 19  4  0
 15 18  1  0
 16 22  2  0
 17 20  2  0
 18 24  4  0
 19 24  4  0
M  END
$$$$

 Created by Python create_sdf_string function

 26 30  0  0  0  0  0  0  0  0999 V2000
   10.6738   -4.0363   21.3974 C   0  0  0  0  0  0  0  0  0  0  0  0
    8.1570   -5.5670   15.7989 C   0  0  0  0  0  0  0  0  0  0  0  0
   10.6745   -3.5765   19.0898 C   0  0  0  0  0  0  0  0  0  0  0  0
   10.2926   -2.7106   25.3285 C   0  0  0  0  0  0  0  0  0  0  0  0
    3.5561   -8.9017   16.3524 N   0  0  0  0  0  0  0  0  0  0  0  0
   10.1384   -3.7422   16.9079 C   0  0  0  0  0  0  0  0  0  0  0  0
    8.1857   -6.8313   17.7331 C   0  0  0  0  0  0  0  0  0  0  0  0
   10.6139   -3.5834   22.7235 C   0  0  0  0  0  0  0  0  0  0  0  0
    5.2549   -8.8107   17.7806 C   0  0  0  0  0  0  0  0  0  0  0  0
   10.2375   -2.2686   22.9391 C   0  0  0  0  0  0  0  0  0  0  0  0
   10.7448   -4.0020   25.0903 C   0  0  0  0  0  0  0  0  0  0  0  0
   10.8978   -3.1705   20.3335 C   0  0  0  0  0  0  0  0  0  0  0  0
    6.3924   -7.0341   16.1442 C   0  0  0  0  0  0  0  0  0  0  0  0
   10.4637   -5.4178   21.1375 C   0  0  0  0  0  0  0  0  0  0  0  0
    8.6867   -5.7743   16.9952 C   0  0  0  0  0  0  0  0  0  0  0  0
    4.6202   -8.4250   16.5977 C   0  0  0  0  0  0  0  0  0  0  0  0
    7.0259   -7.3846   17.3681 C   0  0  0  0  0  0  0  0  0  0  0  0
    9.6514   -4.8569   17.5527 N   0  0  0  0  0  0  0  0  0  0  0  0
   10.1213   -5.7740   19.8203 C   0  0  0  0  0  0  0  0  0  0  0  0
    6.3916   -8.2857   18.0857 C   0  0  0  0  0  0  0  0  0  0  0  0
   10.0061   -1.8255   24.2510 C   0  0  0  0  0  0  0  0  0  0  0  0
    5.2503   -7.5312   15.8166 C   0  0  0  0  0  0  0  0  0  0  0  0
   10.7940   -2.9188   17.8079 C   0  0  0  0  0  0  0  0  0  0  0  0
   10.1332   -4.8301   18.8693 C   0  0  0  0  0  0  0  0  0  0  0  0
   10.8896   -4.4239   23.7920 C   0  0  0  0  0  0  0  0  0  0  0  0
    7.0474   -6.1844   15.4249 O   0  0  0  0  0  0  0  0  0  0  0  0
  1  8  1  0
  1 12  4  0
  1 14  4  0
  2 15  2  0
  2 26  1  0
  3 12  4  0
  3 23  4  0
  3 24  4  0
  4 11  4  0
  4 21  4  0
  5 16  1  0
  6 18  4  0
  6 23  4  0
  7 15  1  0
  7 17  1  0
  8 10  4  0
  8 25  4  0
  9 16  1  0
  9 20  2  0
 10 21  4  0
 11 25  4  0
 13 17  1  0
 13 22  2  0
 13 26  1  0
 14 19  4  0
 15 18  1  0
 16 22  2  0
 17 20  2  0
 18 24  4  0
 19 24  4  0
M  END
$$$$

 Created by Python create_sdf_string function

 26 30  0  0  0  0  0  0  0  0999 V2000
   10.6748   -4.0295   21.3922 C   0  0  0  0  0  0  0  0  0  0  0  0
    8.1557   -5.5701   15.8065 C   0  0  0  0  0  0  0  0  0  0  0  0
   10.6760   -3.5710   19.0924 C   0  0  0  0  0  0  0  0  0  0  0  0
   10.2951   -2.7067   25.3226 C   0  0  0  0  0  0  0  0  0  0  0  0
    3.5688   -8.8998   16.3592 N   0  0  0  0  0  0  0  0  0  0  0  0
   10.1364   -3.7353   16.9061 C   0  0  0  0  0  0  0  0  0  0  0  0
    8.1877   -6.8270   17.7421 C   0  0  0  0  0  0  0  0  0  0  0  0
   10.6128   -3.5780   22.7257 C   0  0  0  0  0  0  0  0  0  0  0  0
    5.2678   -8.8031   17.7844 C   0  0  0  0  0  0  0  0  0  0  0  0
   10.2487   -2.2568   22.9393 C   0  0  0  0  0  0  0  0  0  0  0  0
   10.7443   -4.0004   25.0865 C   0  0  0  0  0  0  0  0  0  0  0  0
   10.9007   -3.1644   20.3420 C   0  0  0  0  0  0  0  0  0  0  0  0
    6.3973   -7.0335   16.1479 C   0  0  0  0  0  0  0  0  0  0  0  0
   10.4671   -5.4064   21.1315 C   0  0  0  0  0  0  0  0  0  0  0  0
    8.6896   -5.7648   16.9973 C   0  0  0  0  0  0  0  0  0  0  0  0
    4.6346   -8.4202   16.6042 C   0  0  0  0  0  0  0  0  0  0  0  0
    7.0399   -7.3829   17.3675 C   0  0  0  0  0  0  0  0  0  0  0  0
    9.6481   -4.8534   17.5554 N   0  0  0  0  0  0  0  0  0  0  0  0
   10.1197   -5.7726   19.8212 C   0  0  0  0  0  0  0  0  0  0  0  0
    6.3995   -8.2807   18.0863 C   0  0  0  0  0  0  0  0  0  0  0  0
   10.0213   -1.8224   24.2489 C   0  0  0  0  0  0  0  0  0  0  0  0
    5.2574   -7.5345   15.8166 C   0  0  0  0  0  0  0  0  0  0  0  0
   10.7978   -2.9097   17.8192 C   0  0  0  0  0  0  0  0  0  0  0  0
   10.1273   -4.8304   18.8670 C   0  0  0  0  0  0  0  0  0  0  0  0
   10.8798   -4.4295   23.7905 C   0  0  0  0  0  0  0  0  0  0  0  0
    7.0540   -6.1826   15.4289 O   0  0  0  0  0  0  0  0  0  0  0  0
  1  8  1  0
  1 12  4  0
  1 14  4  0
  2 15  2  0
  2 26  1  0
  3 12  4  0
  3 23  4  0
  3 24  4  0
  4 11  4  0
  4 21  4  0
  5 16  1  0
  6 18  4  0
  6 23  4  0
  7 15  1  0
  7 17  1  0
  8 10  4  0
  8 25  4  0
  9 16  1  0
  9 20  2  0
 10 21  4  0
 11 25  4  0
 13 17  1  0
 13 22  2  0
 13 26  1  0
 14 19  4  0
 15 18  1  0
 16 22  2  0
 17 20  2  0
 18 24  4  0
 19 24  4  0
M  END
$$$$

 Created by Python create_sdf_string function

 26 30  0  0  0  0  0  0  0  0999 V2000
   10.6748   -4.0295   21.3922 C   0  0  0  0  0  0  0  0  0  0  0  0
    8.1557   -5.5701   15.8065 C   0  0  0  0  0  0  0  0  0  0  0  0
   10.6760   -3.5710   19.0924 C   0  0  0  0  0  0  0  0  0  0  0  0
   10.2951   -2.7067   25.3226 C   0  0  0  0  0  0  0  0  0  0  0  0
    3.5688   -8.8998   16.3592 N   0  0  0  0  0  0  0  0  0  0  0  0
   10.1364   -3.7353   16.9061 C   0  0  0  0  0  0  0  0  0  0  0  0
    8.1877   -6.8270   17.7421 C   0  0  0  0  0  0  0  0  0  0  0  0
   10.6128   -3.5780   22.7257 C   0  0  0  0  0  0  0  0  0  0  0  0
    5.2678   -8.8031   17.7844 C   0  0  0  0  0  0  0  0  0  0  0  0
   10.2487   -2.2568   22.9393 C   0  0  0  0  0  0  0  0  0  0  0  0
   10.7443   -4.0004   25.0865 C   0  0  0  0  0  0  0  0  0  0  0  0
   10.9007   -3.1644   20.3420 C   0  0  0  0  0  0  0  0  0  0  0  0
    6.3973   -7.0335   16.1479 C   0  0  0  0  0  0  0  0  0  0  0  0
   10.4671   -5.4064   21.1315 C   0  0  0  0  0  0  0  0  0  0  0  0
    8.6896   -5.7648   16.9973 C   0  0  0  0  0  0  0  0  0  0  0  0
    4.6346   -8.4202   16.6042 C   0  0  0  0  0  0  0  0  0  0  0  0
    7.0399   -7.3829   17.3675 C   0  0  0  0  0  0  0  0  0  0  0  0
    9.6481   -4.8534   17.5554 N   0  0  0  0  0  0  0  0  0  0  0  0
   10.1197   -5.7726   19.8212 C   0  0  0  0  0  0  0  0  0  0  0  0
    6.3995   -8.2807   18.0863 C   0  0  0  0  0  0  0  0  0  0  0  0
   10.0213   -1.8224   24.2489 C   0  0  0  0  0  0  0  0  0  0  0  0
    5.2574   -7.5345   15.8166 C   0  0  0  0  0  0  0  0  0  0  0  0
   10.7978   -2.9097   17.8192 C   0  0  0  0  0  0  0  0  0  0  0  0
   10.1273   -4.8304   18.8670 C   0  0  0  0  0  0  0  0  0  0  0  0
   10.8798   -4.4295   23.7905 C   0  0  0  0  0  0  0  0  0  0  0  0
    7.0540   -6.1826   15.4289 O   0  0  0  0  0  0  0  0  0  0  0  0
  1  8  1  0
  1 12  4  0
  1 14  4  0
  2 15  2  0
  2 26  1  0
  3 12  4  0
  3 23  4  0
  3 24  4  0
  4 11  4  0
  4 21  4  0
  5 16  1  0
  6 18  4  0
  6 23  4  0
  7 15  1  0
  7 17  1  0
  8 10  4  0
  8 25  4  0
  9 16  1  0
  9 20  2  0
 10 21  4  0
 11 25  4  0
 13 17  1  0
 13 22  2  0
 13 26  1  0
 14 19  4  0
 15 18  1  0
 16 22  2  0
 17 20  2  0
 18 24  4  0
 19 24  4  0
M  END
$$$$

 Created by Python create_sdf_string function

 26 53  0  0  0  0  0  0  0  0999 V2000
   10.6546   -3.3544   19.4626 C   0  0  0  0  0  0  0  0  0  0  0  0
   10.6643   -2.4956   25.3035 C   0  0  0  0  0  0  0  0  0  0  0  0
    7.2366   -8.5674   17.3291 S   0  0  0  0  0  0  0  0  0  0  0  0
   10.2832   -3.2247   22.5841 C   0  0  0  0  0  0  0  0  0  0  0  0
    7.8476   -8.3345   17.1079 N   0  0  0  0  0  0  0  0  0  0  0  0
   10.4664   -2.3163   22.5856 C   0  0  0  0  0  0  0  0  0  0  0  0
   10.8833   -4.4437   24.4298 C   0  0  0  0  0  0  0  0  0  0  0  0
   10.6271   -3.2483   20.3835 O   0  0  0  0  0  0  0  0  0  0  0  0
    7.5834   -9.1357   17.9477 N   0  0  0  0  0  0  0  0  0  0  0  0
    8.7125   -8.6220   17.3711 N   0  0  0  0  0  0  0  0  0  0  0  0
    6.9388   -7.6718   14.8910 Cl  0  0  0  0  0  0  0  0  0  0  0  0
    9.7682   -5.6533   20.1163 C   0  0  0  0  0  0  0  0  0  0  0  0
    9.2230   -1.5522   23.5430 C   0  0  0  0  0  0  0  0  0  0  0  0
   10.8265   -3.1319   17.6816 C   0  0  0  0  0  0  0  0  0  0  0  0
    9.8687   -5.0195   18.8365 C   0  0  0  0  0  0  0  0  0  0  0  0
   10.3456   -5.1294   24.0660 C   0  0  0  0  0  0  0  0  0  0  0  0
    8.4917   -6.9627   17.1793 Cl  0  0  0  0  0  0  0  0  0  0  0  0
   10.8159   -3.7229   20.9412 He  0  0  0  0  0  0  0  0  0  0  0  0
    9.4772   -7.9669   17.9782 He  0  0  0  0  0  0  0  0  0  0  0  0
    7.3481   -7.1163   18.0181 He  0  0  0  0  0  0  0  0  0  0  0  0
    6.6002   -7.7432   16.8437 He  0  0  0  0  0  0  0  0  0  0  0  0
    9.9860   -5.3002   21.0400 He  0  0  0  0  0  0  0  0  0  0  0  0
    8.8577   -8.9921   15.9127 He  0  0  0  0  0  0  0  0  0  0  0  0
    8.0116   -9.5324   16.0278 He  0  0  0  0  0  0  0  0  0  0  0  0
    9.0800   -7.6216   15.5958 He  0  0  0  0  0  0  0  0  0  0  0  0
    7.3242   -6.3440   17.3110 He  0  0  0  0  0  0  0  0  0  0  0  0
  1  2  3  0
  1  3  1  0
  1  4  4  0
  1  6  1  0
  1  8  4  0
  1 14  4  0
  1 16  2  0
  2  3  2  0
  2  7  4  0
  2  9  2  0
  2 13  4  0
  3  7  2  0
  3  9  2  0
  3 10  1  0
  3 13  2  0
  3 14  1  0
  3 17  1  0
  4  6  4  0
  4  7  2  0
  4  9  1  0
  4 10  4  0
  4 16  4  0
  5  6  1  0
  5  9  2  0
  5 11  1  0
  5 14  2  0
  5 16  3  0
  6 10  2  0
  6 13  2  0
  6 14  3  0
  7  8  2  0
  7  9  2  0
  7 11  4  0
  7 12  4  0
  7 16  4  0
  8  9  4  0
  8 11  1  0
  9 10  1  0
  9 12  4  0
  9 14  2  0
  9 15  4  0
 10 12  1  0
 10 13  1  0
 10 14  4  0
 10 15  4  0
 10 16  2  0
 11 13  4  0
 11 16  3  0
 12 13  1  0
 12 15  4  0
 12 17  3  0
 13 14  3  0
 15 16  4  0
M  END
$$$$

 Created by Python create_sdf_string function

 26 16  0  0  0  0  0  0  0  0999 V2000
   10.6689   -3.8995   21.1884 C   0  0  0  0  0  0  0  0  0  0  0  0
    9.1204   -7.4717   17.8944 C   0  0  0  0  0  0  0  0  0  0  0  0
   10.6812   -3.3285   18.8969 C   0  0  0  0  0  0  0  0  0  0  0  0
   10.2838   -2.7387   25.1345 C   0  0  0  0  0  0  0  0  0  0  0  0
    6.8721   -8.0547   17.3696 C   0  0  0  0  0  0  0  0  0  0  0  0
    7.5868   -6.6371   17.9097 C   0  0  0  0  0  0  0  0  0  0  0  0
    6.2965   -7.5865   16.9925 C   0  0  0  0  0  0  0  0  0  0  0  0
   10.6408   -3.4648   22.5387 C   0  0  0  0  0  0  0  0  0  0  0  0
    7.5407   -8.0575   16.8765 C   0  0  0  0  0  0  0  0  0  0  0  0
   10.2533   -2.2203   22.8322 C   0  0  0  0  0  0  0  0  0  0  0  0
   10.7825   -3.9841   24.8659 C   0  0  0  0  0  0  0  0  0  0  0  0
   10.8471   -3.0717   20.1941 N   0  0  0  0  0  0  0  0  0  0  0  0
    7.4642   -8.3932   17.8261 C   0  0  0  0  0  0  0  0  0  0  0  0
   10.4517   -5.1130   20.8707 C   0  0  0  0  0  0  0  0  0  0  0  0
    8.4948   -8.1115   17.4123 C   0  0  0  0  0  0  0  0  0  0  0  0
    8.2793   -8.4186   15.7036 C   0  0  0  0  0  0  0  0  0  0  0  0
    7.4918   -8.8387   15.8328 C   0  0  0  0  0  0  0  0  0  0  0  0
    6.9034   -7.6330   15.5792 C   0  0  0  0  0  0  0  0  0  0  0  0
   10.0803   -5.6173   19.5696 C   0  0  0  0  0  0  0  0  0  0  0  0
    8.5147   -7.4682   15.7389 C   0  0  0  0  0  0  0  0  0  0  0  0
   10.0308   -1.8319   24.1592 C   0  0  0  0  0  0  0  0  0  0  0  0
    8.0360   -6.0978   17.1518 C   0  0  0  0  0  0  0  0  0  0  0  0
   10.4721   -3.6264   17.7860 C   0  0  0  0  0  0  0  0  0  0  0  0
   10.0044   -5.0338   18.6444 C   0  0  0  0  0  0  0  0  0  0  0  0
   10.9769   -4.3633   23.5587 C   0  0  0  0  0  0  0  0  0  0  0  0
    8.7518   -6.1960   17.3660 C   0  0  0  0  0  0  0  0  0  0  0  0
  1  8  1  0
  1 12  4  0
  1 14  4  0
  3 12  4  0
  3 23  4  0
  4 11  4  0
  4 21  4  0
  8 10  4  0
  8 25  4  0
 10 21  4  0
 11 25  4  0
 14 19  4  0
 16 20  1  0
 19 24  4  0
 22 26  1  0
 23 24  4  0
M  END
$$$$

 Created by Python create_sdf_string function

 26 43  0  0  0  0  0  0  0  0999 V2000
   10.3334   -3.2980   20.5701 C   0  0  0  0  0  0  0  0  0  0  0  0
    7.6129   -7.5401   16.2631 N   0  0  0  0  0  0  0  0  0  0  0  0
   11.1393   -3.2191   19.1110 Br  0  0  0  0  0  0  0  0  0  0  0  0
    9.8125   -2.9234   25.3988 C   0  0  0  0  0  0  0  0  0  0  0  0
    7.1520   -8.0321   16.5477 F   0  0  0  0  0  0  0  0  0  0  0  0
   10.7360   -3.6214   21.8987 C   0  0  0  0  0  0  0  0  0  0  0  0
    5.7680   -6.8277   17.4449 N   0  0  0  0  0  0  0  0  0  0  0  0
   10.6437   -1.6573   22.4828 C   0  0  0  0  0  0  0  0  0  0  0  0
   11.0314   -3.6189   24.2466 C   0  0  0  0  0  0  0  0  0  0  0  0
   10.9612   -2.8607   20.3774 N   0  0  0  0  0  0  0  0  0  0  0  0
   10.3365   -5.6347   21.4596 C   0  0  0  0  0  0  0  0  0  0  0  0
    9.6484   -5.5760   18.9347 C   0  0  0  0  0  0  0  0  0  0  0  0
   10.2020   -1.9808   23.2262 C   0  0  0  0  0  0  0  0  0  0  0  0
    8.9186   -4.0164   17.8300 C   0  0  0  0  0  0  0  0  0  0  0  0
   10.4913   -3.4546   17.7706 N   0  0  0  0  0  0  0  0  0  0  0  0
   10.2717   -5.4671   18.2934 C   0  0  0  0  0  0  0  0  0  0  0  0
   11.1584   -4.0052   23.2102 C   0  0  0  0  0  0  0  0  0  0  0  0
    8.6784   -8.1310   16.4962 C   0  0  0  0  0  0  0  0  0  0  0  0
    6.1259   -6.2811   16.2481 He  0  0  0  0  0  0  0  0  0  0  0  0
    5.2937   -7.9773   16.8536 He  0  0  0  0  0  0  0  0  0  0  0  0
    6.7271   -9.0185   16.7067 He  0  0  0  0  0  0  0  0  0  0  0  0
    7.8950  -10.3326   17.8644 He  0  0  0  0  0  0  0  0  0  0  0  0
    8.4369   -7.3126   17.2502 He  0  0  0  0  0  0  0  0  0  0  0  0
    8.4451   -8.6718   16.7796 He  0  0  0  0  0  0  0  0  0  0  0  0
    6.1009   -8.2694   14.6281 He  0  0  0  0  0  0  0  0  0  0  0  0
    8.6582   -8.0223   16.7568 He  0  0  0  0  0  0  0  0  0  0  0  0
  1  2  1  0
  1  4  4  0
  1  7  1  0
  1 10  1  0
  1 11  4  0
  1 14  4  0
  1 16  4  0
  2  6  1  0
  2 12  1  0
  2 13  4  0
  2 16  2  0
  2 17  3  0
  3  7  3  0
  3 10  4  0
  3 15  4  0
  4  6  4  0
  4  7  2  0
  4  9  4  0
  5  6  2  0
  5  9  2  0
  5 10  2  0
  5 11  3  0
  5 14  2  0
  5 18  2  0
  6  7  1  0
  6  8  3  0
  6 11  2  0
  6 15  4  0
  6 16  4  0
  6 17  2  0
  7 16  3  0
  7 17  2  0
  8 13  4  0
  8 18  2  0
  9 17  4  0
 11 12  4  0
 12 14  4  0
 12 15  4  0
 12 16  1  0
 13 14  4  0
 13 17  3  0
 13 18  4  0
 14 16  1  0
M  END
$$$$

 Created by Python create_sdf_string function

 26 17  0  0  0  0  0  0  0  0999 V2000
   10.7164   -3.7976   20.8359 C   0  0  0  0  0  0  0  0  0  0  0  0
    7.4946   -7.1633   16.3175 C   0  0  0  0  0  0  0  0  0  0  0  0
   10.6855   -3.3222   18.8900 C   0  0  0  0  0  0  0  0  0  0  0  0
   10.1718   -2.7019   24.9204 C   0  0  0  0  0  0  0  0  0  0  0  0
    6.8741   -8.1786   16.5013 C   0  0  0  0  0  0  0  0  0  0  0  0
    6.5560   -6.8087   15.9787 C   0  0  0  0  0  0  0  0  0  0  0  0
    5.2949   -8.0952   16.8053 C   0  0  0  0  0  0  0  0  0  0  0  0
   10.7484   -3.3967   22.2638 C   0  0  0  0  0  0  0  0  0  0  0  0
    6.0231   -7.3250   17.3183 C   0  0  0  0  0  0  0  0  0  0  0  0
   10.4549   -2.0092   22.6140 C   0  0  0  0  0  0  0  0  0  0  0  0
   10.6742   -3.8609   24.5944 C   0  0  0  0  0  0  0  0  0  0  0  0
   10.9153   -2.8602   20.0299 N   0  0  0  0  0  0  0  0  0  0  0  0
    6.4690   -8.6984   16.6240 C   0  0  0  0  0  0  0  0  0  0  0  0
   10.4136   -5.1605   20.4884 C   0  0  0  0  0  0  0  0  0  0  0  0
    7.5426   -8.9895   17.3230 C   0  0  0  0  0  0  0  0  0  0  0  0
    8.8505   -6.9564   17.6321 C   0  0  0  0  0  0  0  0  0  0  0  0
    8.3992   -8.1923   16.9471 C   0  0  0  0  0  0  0  0  0  0  0  0
    6.0503   -8.3092   15.6016 C   0  0  0  0  0  0  0  0  0  0  0  0
   10.0212   -5.3634   19.0502 C   0  0  0  0  0  0  0  0  0  0  0  0
    8.6770   -7.7252   17.2501 C   0  0  0  0  0  0  0  0  0  0  0  0
   10.0790   -1.7216   23.8573 C   0  0  0  0  0  0  0  0  0  0  0  0
    9.5087   -4.9699   17.0620 C   0  0  0  0  0  0  0  0  0  0  0  0
   10.5731   -3.4891   17.9416 N   0  0  0  0  0  0  0  0  0  0  0  0
    9.8590   -5.5243   18.1286 C   0  0  0  0  0  0  0  0  0  0  0  0
   10.9376   -4.2368   23.2699 C   0  0  0  0  0  0  0  0  0  0  0  0
    8.5482   -7.7156   16.5740 C   0  0  0  0  0  0  0  0  0  0  0  0
  1  8  1  0
  1 12  4  0
  1 14  4  0
  3 12  4  0
  3 23  4  0
  4 11  4  0
  4 21  4  0
  5 13  1  0
  7  9  1  0
  8 10  4  0
  8 25  4  0
 10 21  4  0
 11 25  4  0
 14 19  4  0
 17 20  1  0
 19 24  1  0
 22 24  1  0
M  END
$$$$

 Created by Python create_sdf_string function

 26 77  0  0  0  0  0  0  0  0999 V2000
   10.8861   -4.5728   20.9497 O   0  0  0  0  0  0  0  0  0  0  0  0
    7.4889   -6.7041   16.5436 C   0  0  0  0  0  0  0  0  0  0  0  0
   10.8091   -3.3198   18.7190 C   0  0  0  0  0  0  0  0  0  0  0  0
    9.8522   -3.0538   24.6965 O   0  0  0  0  0  0  0  0  0  0  0  0
    8.4194   -7.5398   15.8267 F   0  0  0  0  0  0  0  0  0  0  0  0
    7.1895   -5.5713   16.4961 N   0  0  0  0  0  0  0  0  0  0  0  0
    5.5599  -10.1164   17.6203 P   0  0  0  0  0  0  0  0  0  0  0  0
   10.2369   -2.9292   21.7399 C   0  0  0  0  0  0  0  0  0  0  0  0
    7.6030   -6.1671   19.0815 F   0  0  0  0  0  0  0  0  0  0  0  0
   10.8699   -2.5956   23.0733 Cl  0  0  0  0  0  0  0  0  0  0  0  0
   10.3138   -3.9631   23.9839 C   0  0  0  0  0  0  0  0  0  0  0  0
   10.8150   -2.4776   19.7388 N   0  0  0  0  0  0  0  0  0  0  0  0
   10.6375   -5.6833   20.4795 C   0  0  0  0  0  0  0  0  0  0  0  0
    6.2119   -7.9139   17.2037 P   0  0  0  0  0  0  0  0  0  0  0  0
    8.5896   -7.9108   17.9669 N   0  0  0  0  0  0  0  0  0  0  0  0
    4.9305   -9.6531   16.0062 O   0  0  0  0  0  0  0  0  0  0  0  0
   10.2889   -6.0849   18.9594 C   0  0  0  0  0  0  0  0  0  0  0  0
    9.5703   -7.9378   17.5922 N   0  0  0  0  0  0  0  0  0  0  0  0
   10.2832   -1.3867   23.7217 C   0  0  0  0  0  0  0  0  0  0  0  0
    9.6353   -6.0643   18.5563 C   0  0  0  0  0  0  0  0  0  0  0  0
   10.6863   -3.6269   22.2281 C   0  0  0  0  0  0  0  0  0  0  0  0
    7.2314   -6.5386   16.8963 He  0  0  0  0  0  0  0  0  0  0  0  0
    8.5018   -8.3340   16.3806 He  0  0  0  0  0  0  0  0  0  0  0  0
    9.7589   -4.6519   15.4209 He  0  0  0  0  0  0  0  0  0  0  0  0
   11.0193   -4.4144   18.3873 He  0  0  0  0  0  0  0  0  0  0  0  0
    8.2282   -5.8589   17.4192 He  0  0  0  0  0  0  0  0  0  0  0  0
  1  2  3  0
  1  4  2  0
  1  6  1  0
  1  9  1  0
  1 12  1  0
  1 13  4  0
  2  4  3  0
  2  8  3  0
  2 11  1  0
  2 17  1  0
  2 18  2  0
  2 19  1  0
  3  6  2  0
  3 12  4  0
  3 14  1  0
  3 16  2  0
  4  6  2  0
  4 11  4  0
  4 16  1  0
  4 19  4  0
  4 21  4  0
  5  9  4  0
  5 10  4  0
  5 12  4  0
  5 13  1  0
  5 16  4  0
  5 21  2  0
  6  7  4  0
  6 17  1  0
  6 19  1  0
  7 11  3  0
  7 12  1  0
  7 14  4  0
  7 15  1  0
  7 16  1  0
  7 18  4  0
  7 21  2  0
  8  9  3  0
  8 10  4  0
  8 13  2  0
  8 14  1  0
  8 16  1  0
  8 18  3  0
  8 20  2  0
  8 21  4  0
  9 10  1  0
  9 11  3  0
  9 13  1  0
  9 15  3  0
  9 16  4  0
  9 19  4  0
  9 20  4  0
  9 21  4  0
 10 14  2  0
 10 15  2  0
 10 19  4  0
 11 12  3  0
 11 13  3  0
 11 14  4  0
 11 16  2  0
 11 17  1  0
 11 21  4  0
 12 15  1  0
 12 18  2  0
 13 17  3  0
 14 16  2  0
 14 17  2  0
 14 21  1  0
 15 16  2  0
 15 17  2  0
 15 18  1  0
 15 21  3  0
 16 17  3  0
 16 19  2  0
 16 20  2  0
 18 20  3  0
 20 21  2  0
M  END
$$$$

 Created by Python create_sdf_string function

 26 17  0  0  0  0  0  0  0  0999 V2000
   10.7077   -3.9552   20.7150 C   0  0  0  0  0  0  0  0  0  0  0  0
    7.4741   -6.9346   16.3723 C   0  0  0  0  0  0  0  0  0  0  0  0
   10.8229   -3.5120   18.5716 C   0  0  0  0  0  0  0  0  0  0  0  0
   10.0892   -2.8424   24.6444 C   0  0  0  0  0  0  0  0  0  0  0  0
    8.0790   -7.9240   15.8806 C   0  0  0  0  0  0  0  0  0  0  0  0
    7.5469   -5.9052   16.0163 C   0  0  0  0  0  0  0  0  0  0  0  0
    5.8725   -8.9474   17.5277 C   0  0  0  0  0  0  0  0  0  0  0  0
   10.6793   -3.3682   21.9961 C   0  0  0  0  0  0  0  0  0  0  0  0
    7.7431   -6.5800   18.2464 C   0  0  0  0  0  0  0  0  0  0  0  0
   10.5813   -2.0326   22.5469 N   0  0  0  0  0  0  0  0  0  0  0  0
   10.2959   -3.9641   24.1926 C   0  0  0  0  0  0  0  0  0  0  0  0
   11.0469   -2.9556   19.8318 N   0  0  0  0  0  0  0  0  0  0  0  0
    6.9731   -6.7633   16.7647 C   0  0  0  0  0  0  0  0  0  0  0  0
   10.5702   -5.3024   20.4289 C   0  0  0  0  0  0  0  0  0  0  0  0
    6.0541   -8.1034   17.1899 C   0  0  0  0  0  0  0  0  0  0  0  0
    7.9510   -8.5799   16.1812 C   0  0  0  0  0  0  0  0  0  0  0  0
    8.3104   -7.9179   17.7059 C   0  0  0  0  0  0  0  0  0  0  0  0
    5.3420   -8.9369   16.4954 O   0  0  0  0  0  0  0  0  0  0  0  0
   10.0675   -6.0450   19.1840 C   0  0  0  0  0  0  0  0  0  0  0  0
    8.9800   -7.8661   17.6786 C   0  0  0  0  0  0  0  0  0  0  0  0
   10.2477   -1.7119   23.8275 C   0  0  0  0  0  0  0  0  0  0  0  0
    9.6231   -4.4640   16.3960 C   0  0  0  0  0  0  0  0  0  0  0  0
   10.4398   -4.2257   18.0792 C   0  0  0  0  0  0  0  0  0  0  0  0
    9.5863   -6.0955   18.3799 C   0  0  0  0  0  0  0  0  0  0  0  0
   10.6482   -4.2148   22.8947 C   0  0  0  0  0  0  0  0  0  0  0  0
    8.7905   -5.8747   17.0641 C   0  0  0  0  0  0  0  0  0  0  0  0
  1  8  1  0
  1 12  4  0
  1 14  4  0
  3 12  4  0
  3 23  4  0
  4 11  4  0
  4 21  4  0
  5 16  1  0
  7 15  1  0
  7 18  1  0
  8 10  4  0
  8 25  4  0
 10 21  4  0
 11 25  4  0
 14 19  4  0
 17 20  1  0
 19 24  4  0
M  END
$$$$

 Created by Python create_sdf_string function

 26 59  0  0  0  0  0  0  0  0999 V2000
   10.3597   -3.6013   20.9970 C   0  0  0  0  0  0  0  0  0  0  0  0
    7.7980   -6.2926   15.9599 N   0  0  0  0  0  0  0  0  0  0  0  0
   10.3870   -3.5625   18.0066 C   0  0  0  0  0  0  0  0  0  0  0  0
   10.3830   -2.9908   24.1783 O   0  0  0  0  0  0  0  0  0  0  0  0
    6.5370   -9.1394   17.4388 F   0  0  0  0  0  0  0  0  0  0  0  0
   10.5064   -2.9028   21.9097 C   0  0  0  0  0  0  0  0  0  0  0  0
    8.4413   -5.9520   17.8208 P   0  0  0  0  0  0  0  0  0  0  0  0
   10.5915   -2.2488   21.8918 N   0  0  0  0  0  0  0  0  0  0  0  0
   10.8602   -3.4371   20.0103 N   0  0  0  0  0  0  0  0  0  0  0  0
    5.6088   -5.5181   16.7036 C   0  0  0  0  0  0  0  0  0  0  0  0
   11.1594   -5.4760   20.2366 C   0  0  0  0  0  0  0  0  0  0  0  0
    7.9687   -8.0239   15.2733 C   0  0  0  0  0  0  0  0  0  0  0  0
    8.6579   -8.0478   17.4596 C   0  0  0  0  0  0  0  0  0  0  0  0
    9.7873   -6.1482   19.1090 C   0  0  0  0  0  0  0  0  0  0  0  0
    9.4987   -8.0594   18.6014 C   0  0  0  0  0  0  0  0  0  0  0  0
   10.4225   -1.9248   23.7175 N   0  0  0  0  0  0  0  0  0  0  0  0
    9.4983   -4.7674   17.2350 Cl  0  0  0  0  0  0  0  0  0  0  0  0
   10.2652   -4.5337   18.0825 C   0  0  0  0  0  0  0  0  0  0  0  0
    9.8413   -6.1562   18.9978 C   0  0  0  0  0  0  0  0  0  0  0  0
   11.1990   -4.2157   22.6059 C   0  0  0  0  0  0  0  0  0  0  0  0
    9.1033   -8.2969   14.6580 He  0  0  0  0  0  0  0  0  0  0  0  0
    5.5946   -3.5956   15.8386 He  0  0  0  0  0  0  0  0  0  0  0  0
   10.1737   -3.9695   24.4664 He  0  0  0  0  0  0  0  0  0  0  0  0
    6.3777   -7.0774   18.8999 He  0  0  0  0  0  0  0  0  0  0  0  0
    4.3896   -9.9639   15.8380 He  0  0  0  0  0  0  0  0  0  0  0  0
    8.2232   -4.9004   16.0584 He  0  0  0  0  0  0  0  0  0  0  0  0
  1  2  1  0
  1  4  1  0
  1  6  1  0
  1  9  4  0
  1 11  4  0
  1 12  2  0
  1 16  3  0
  1 17  4  0
  2  9  2  0
  2 15  1  0
  2 17  1  0
  3  5  3  0
  3  8  3  0
  3 12  4  0
  3 17  3  0
  3 18  4  0
  3 20  2  0
  4  5  4  0
  4 13  1  0
  4 16  4  0
  4 20  2  0
  5  7  2  0
  5  8  2  0
  5 11  2  0
  5 12  3  0
  5 13  2  0
  5 16  1  0
  5 17  2  0
  6  7  4  0
  6  8  4  0
  6 20  4  0
  7  9  2  0
  7 10  4  0
  7 11  2  0
  7 12  2  0
  7 20  1  0
  8 13  2  0
  8 15  3  0
  8 16  4  0
  9 10  4  0
  9 14  4  0
 10 12  1  0
 10 15  2  0
 10 18  4  0
 11 12  1  0
 11 14  4  0
 11 15  1  0
 11 18  4  0
 11 20  1  0
 12 19  3  0
 13 17  4  0
 13 19  3  0
 14 15  2  0
 14 19  4  0
 15 16  2  0
 15 18  3  0
 16 17  3  0
 17 19  1  0
 18 19  3  0
M  END
$$$$

 Created by Python create_sdf_string function

 26 17  0  0  0  0  0  0  0  0999 V2000
   10.7849   -3.8325   20.6510 C   0  0  0  0  0  0  0  0  0  0  0  0
    7.8399   -6.6576   16.2536 C   0  0  0  0  0  0  0  0  0  0  0  0
   10.5271   -3.5518   18.1543 C   0  0  0  0  0  0  0  0  0  0  0  0
   10.2862   -2.7689   24.5479 C   0  0  0  0  0  0  0  0  0  0  0  0
    8.2197   -8.3338   15.3438 C   0  0  0  0  0  0  0  0  0  0  0  0
    7.1625   -5.5078   15.4121 O   0  0  0  0  0  0  0  0  0  0  0  0
    6.4994   -8.5996   17.1103 C   0  0  0  0  0  0  0  0  0  0  0  0
   10.7634   -3.3980   22.0610 C   0  0  0  0  0  0  0  0  0  0  0  0
    8.7809   -6.2095   17.1775 C   0  0  0  0  0  0  0  0  0  0  0  0
   10.5909   -2.0979   22.3654 N   0  0  0  0  0  0  0  0  0  0  0  0
   10.5647   -3.8742   24.3394 N   0  0  0  0  0  0  0  0  0  0  0  0
   10.7793   -3.0425   19.6267 N   0  0  0  0  0  0  0  0  0  0  0  0
    6.3765   -6.9657   16.1774 C   0  0  0  0  0  0  0  0  0  0  0  0
   10.7122   -5.2127   20.3516 C   0  0  0  0  0  0  0  0  0  0  0  0
    6.6456   -7.5152   17.9493 C   0  0  0  0  0  0  0  0  0  0  0  0
    7.4811   -8.3604   15.7754 C   0  0  0  0  0  0  0  0  0  0  0  0
    8.2869   -8.0221   17.3325 C   0  0  0  0  0  0  0  0  0  0  0  0
    5.4292   -8.7762   16.3398 O   0  0  0  0  0  0  0  0  0  0  0  0
   10.1643   -6.0128   19.2824 C   0  0  0  0  0  0  0  0  0  0  0  0
    9.0222   -7.9675   18.0950 C   0  0  0  0  0  0  0  0  0  0  0  0
   10.3174   -1.8230   23.6931 N   0  0  0  0  0  0  0  0  0  0  0  0
    9.4189   -4.8718   16.8920 C   0  0  0  0  0  0  0  0  0  0  0  0
   10.1868   -4.4905   18.1353 C   0  0  0  0  0  0  0  0  0  0  0  0
    9.7321   -6.2179   18.4863 C   0  0  0  0  0  0  0  0  0  0  0  0
   10.8683   -4.3373   23.0444 C   0  0  0  0  0  0  0  0  0  0  0  0
    8.3172   -5.3814   16.0485 C   0  0  0  0  0  0  0  0  0  0  0  0
  1  8  1  0
  1 12  4  0
  1 14  4  0
  3 12  4  0
  3 23  4  0
  4 11  4  0
  4 21  4  0
  5 16  1  0
  7 15  1  0
  7 18  1  0
  8 10  4  0
  8 25  4  0
 10 21  4  0
 11 25  4  0
 14 19  4  0
 17 20  1  0
 19 24  4  0
M  END
$$$$

 Created by Python create_sdf_string function

 26 37  0  0  0  0  0  0  0  0999 V2000
   10.6301   -3.3968   20.9135 C   0  0  0  0  0  0  0  0  0  0  0  0
   10.6047   -3.6652   18.2096 C   0  0  0  0  0  0  0  0  0  0  0  0
   10.4338   -3.9649   22.4285 N   0  0  0  0  0  0  0  0  0  0  0  0
   10.2248   -2.1895   22.7361 N   0  0  0  0  0  0  0  0  0  0  0  0
   11.0337   -3.8979   24.7635 N   0  0  0  0  0  0  0  0  0  0  0  0
    6.9569   -8.2214   15.9183 F   0  0  0  0  0  0  0  0  0  0  0  0
    6.8699  -10.9964   15.3353 Br  0  0  0  0  0  0  0  0  0  0  0  0
    7.9149   -7.5328   16.7790 O   0  0  0  0  0  0  0  0  0  0  0  0
    4.6697   -7.8792   16.3036 O   0  0  0  0  0  0  0  0  0  0  0  0
   10.2344   -5.7034   19.3387 C   0  0  0  0  0  0  0  0  0  0  0  0
   10.1918   -0.7591   23.6664 N   0  0  0  0  0  0  0  0  0  0  0  0
   10.7420   -3.7706   19.0122 Cl  0  0  0  0  0  0  0  0  0  0  0  0
   10.4389   -4.5760   18.3537 C   0  0  0  0  0  0  0  0  0  0  0  0
    9.1502   -5.5625   18.4737 Cl  0  0  0  0  0  0  0  0  0  0  0  0
   11.2198   -4.7522   23.4230 C   0  0  0  0  0  0  0  0  0  0  0  0
    8.5512   -7.1698   17.5961 He  0  0  0  0  0  0  0  0  0  0  0  0
   10.0090   -2.6602   24.6879 He  0  0  0  0  0  0  0  0  0  0  0  0
    8.2958   -7.6676   15.2990 He  0  0  0  0  0  0  0  0  0  0  0  0
    6.5640   -5.7493   15.4108 He  0  0  0  0  0  0  0  0  0  0  0  0
    6.0061   -9.3125   17.7446 He  0  0  0  0  0  0  0  0  0  0  0  0
    7.3980   -4.9666   17.2292 He  0  0  0  0  0  0  0  0  0  0  0  0
   11.0473   -3.2235   19.2854 He  0  0  0  0  0  0  0  0  0  0  0  0
    6.4817   -5.7145   15.3062 He  0  0  0  0  0  0  0  0  0  0  0  0
   10.6101   -4.6932   20.7876 He  0  0  0  0  0  0  0  0  0  0  0  0
    8.9783   -9.1807   17.2782 He  0  0  0  0  0  0  0  0  0  0  0  0
    8.5608   -5.7517   15.9998 He  0  0  0  0  0  0  0  0  0  0  0  0
  1  3  1  0
  1  6  2  0
  1  9  3  0
  1 15  2  0
  2  6  2  0
  2  9  2  0
  2 11  4  0
  2 13  2  0
  2 15  1  0
  3  4  4  0
  3 12  1  0
  3 15  4  0
  4  7  4  0
  4  8  1  0
  4  9  1  0
  4 11  4  0
  4 12  4  0
  5 12  1  0
  5 15  2  0
  6  9  4  0
  6 10  3  0
  6 13  1  0
  7  8  4  0
  7 14  3  0
  8 11  3  0
  8 15  1  0
  9 13  2  0
  9 15  2  0
 10 12  2  0
 10 14  4  0
 10 15  4  0
 11 14  2  0
 11 15  2  0
 12 14  3  0
 12 15  2  0
 13 14  2  0
 13 15  2  0
M  END
$$$$

 Created by Python create_sdf_string function

 26 19  0  0  0  0  0  0  0  0999 V2000
   10.8425   -3.8063   21.0956 C   0  0  0  0  0  0  0  0  0  0  0  0
    8.6699   -7.0818   17.5911 C   0  0  0  0  0  0  0  0  0  0  0  0
   10.6690   -3.4970   17.7191 C   0  0  0  0  0  0  0  0  0  0  0  0
   10.2475   -2.5297   24.8549 C   0  0  0  0  0  0  0  0  0  0  0  0
    8.0337   -8.0098   15.6686 C   0  0  0  0  0  0  0  0  0  0  0  0
    6.9228   -6.4672   15.7236 C   0  0  0  0  0  0  0  0  0  0  0  0
    6.2470   -8.6957   17.3389 C   0  0  0  0  0  0  0  0  0  0  0  0
   10.7067   -3.4167   22.4892 C   0  0  0  0  0  0  0  0  0  0  0  0
    8.3946   -5.5383   16.5782 C   0  0  0  0  0  0  0  0  0  0  0  0
   10.3072   -2.1340   22.6731 N   0  0  0  0  0  0  0  0  0  0  0  0
   10.6884   -3.7939   24.7281 N   0  0  0  0  0  0  0  0  0  0  0  0
   11.0670   -2.9523   19.6986 N   0  0  0  0  0  0  0  0  0  0  0  0
    6.6659   -6.4799   15.6136 C   0  0  0  0  0  0  0  0  0  0  0  0
   10.5517   -5.0209   20.6796 C   0  0  0  0  0  0  0  0  0  0  0  0
    6.7859   -8.4295   16.1471 C   0  0  0  0  0  0  0  0  0  0  0  0
    6.7000   -9.7069   15.6173 O   0  0  0  0  0  0  0  0  0  0  0  0
    7.9161   -7.6398   16.7672 C   0  0  0  0  0  0  0  0  0  0  0  0
    5.2947   -8.0870   16.5377 C   0  0  0  0  0  0  0  0  0  0  0  0
   10.1203   -5.6561   19.5311 C   0  0  0  0  0  0  0  0  0  0  0  0
    8.5163   -8.2624   17.3246 C   0  0  0  0  0  0  0  0  0  0  0  0
   10.0392   -1.5894   23.8686 N   0  0  0  0  0  0  0  0  0  0  0  0
   10.7575   -3.5094   18.8023 C   0  0  0  0  0  0  0  0  0  0  0  0
   10.1593   -4.3960   18.0562 C   0  0  0  0  0  0  0  0  0  0  0  0
    9.4738   -5.7796   18.2311 N   0  0  0  0  0  0  0  0  0  0  0  0
   10.9282   -4.3568   23.4925 C   0  0  0  0  0  0  0  0  0  0  0  0
    8.6942   -5.5475   16.3144 C   0  0  0  0  0  0  0  0  0  0  0  0
  1  8  1  0
  1 12  4  0
  1 14  4  0
  3 22  4  0
  3 23  4  0
  4 11  4  0
  4 21  4  0
  6 13  1  0
  8 10  4  0
  8 25  4  0
  9 26  1  0
 10 21  4  0
 11 25  4  0
 12 22  4  0
 14 19  4  0
 17 20  1  0
 19 24  4  0
 22 23  4  0
 23 24  4  0
M  END
$$$$

 Created by Python create_sdf_string function

 26 88  0  0  0  0  0  0  0  0999 V2000
   10.5295   -3.9688   20.9958 C   0  0  0  0  0  0  0  0  0  0  0  0
    9.3868   -8.1653   18.0289 P   0  0  0  0  0  0  0  0  0  0  0  0
   10.0226   -3.3820   17.0704 C   0  0  0  0  0  0  0  0  0  0  0  0
   10.6234   -2.3748   25.2224 C   0  0  0  0  0  0  0  0  0  0  0  0
    7.6495   -8.2387   13.9816 P   0  0  0  0  0  0  0  0  0  0  0  0
    8.1777   -6.3142   16.3965 S   0  0  0  0  0  0  0  0  0  0  0  0
   10.1343   -3.7887   22.0558 C   0  0  0  0  0  0  0  0  0  0  0  0
    7.8739   -5.1663   16.7608 O   0  0  0  0  0  0  0  0  0  0  0  0
   10.1900   -2.7611   22.1079 O   0  0  0  0  0  0  0  0  0  0  0  0
   10.8778   -3.1055   24.6223 N   0  0  0  0  0  0  0  0  0  0  0  0
   11.4437   -2.8400   19.8342 N   0  0  0  0  0  0  0  0  0  0  0  0
    4.0637   -7.2578   16.4953 P   0  0  0  0  0  0  0  0  0  0  0  0
   10.7496   -5.1848   21.2213 Se  0  0  0  0  0  0  0  0  0  0  0  0
    7.4072   -7.7750   15.9121 N   0  0  0  0  0  0  0  0  0  0  0  0
    9.3365   -6.8754   16.2250 Cl  0  0  0  0  0  0  0  0  0  0  0  0
   10.7285   -5.8445   19.6048 C   0  0  0  0  0  0  0  0  0  0  0  0
    7.8764   -9.2719   18.3577 C   0  0  0  0  0  0  0  0  0  0  0  0
   10.0798   -1.1677   23.7193 N   0  0  0  0  0  0  0  0  0  0  0  0
    9.8206   -2.5778   16.8869 Cl  0  0  0  0  0  0  0  0  0  0  0  0
   10.4825   -3.9594   17.3733 C   0  0  0  0  0  0  0  0  0  0  0  0
    8.5570   -5.6760   18.3296 N   0  0  0  0  0  0  0  0  0  0  0  0
   10.9075   -4.5380   23.4317 C   0  0  0  0  0  0  0  0  0  0  0  0
    9.0354   -5.0225   17.0367 P   0  0  0  0  0  0  0  0  0  0  0  0
    7.7711   -7.9063   17.3022 He  0  0  0  0  0  0  0  0  0  0  0  0
    6.3108   -9.1105   14.4302 He  0  0  0  0  0  0  0  0  0  0  0  0
    5.0225  -10.1280   16.7715 He  0  0  0  0  0  0  0  0  0  0  0  0
  1  2  4  0
  1  3  2  0
  1  7  1  0
  1 11  4  0
  1 12  2  0
  1 17  1  0
  1 23  1  0
  2  5  2  0
  2  8  3  0
  2 14  1  0
  2 15  2  0
  2 20  4  0
  2 22  3  0
  3  5  3  0
  3  9  4  0
  3 20  4  0
  4  6  2  0
  4  8  1  0
  4 10  3  0
  4 12  1  0
  4 18  4  0
  4 19  2  0
  5  8  4  0
  5  9  4  0
  5 11  4  0
  5 13  3  0
  5 14  2  0
  5 15  4  0
  5 17  4  0
  5 22  1  0
  6  8  2  0
  6  9  1  0
  6 10  1  0
  6 13  4  0
  6 15  1  0
  6 18  1  0
  6 19  4  0
  6 20  2  0
  6 23  1  0
  7  8  1  0
  7  9  4  0
  7 10  4  0
  7 23  1  0
  8 10  4  0
  8 11  2  0
  8 12  1  0
  8 14  3  0
  8 16  3  0
  9 15  4  0
  9 18  4  0
  9 19  1  0
 10 12  2  0
 10 14  1  0
 10 15  2  0
 10 17  1  0
 10 19  3  0
 10 23  4  0
 11 23  4  0
 12 15  2  0
 12 16  2  0
 12 18  1  0
 12 19  1  0
 12 20  3  0
 12 23  2  0
 13 14  2  0
 13 17  2  0
 14 15  1  0
 14 16  1  0
 14 17  1  0
 14 21  1  0
 14 22  1  0
 15 17  2  0
 15 19  1  0
 15 22  2  0
 15 23  2  0
 16 19  3  0
 16 21  4  0
 16 23  1  0
 17 18  1  0
 17 19  3  0
 17 21  4  0
 18 19  3  0
 18 23  2  0
 19 20  4  0
 19 23  2  0
 20 21  4  0
 21 23  1  0
 22 23  4  0
M  END
$$$$

 Created by Python create_sdf_string function

 26 17  0  0  0  0  0  0  0  0999 V2000
   10.7050   -4.0058   20.9206 C   0  0  0  0  0  0  0  0  0  0  0  0
    8.9593   -7.9177   17.9021 C   0  0  0  0  0  0  0  0  0  0  0  0
   10.5248   -3.5485   17.5893 C   0  0  0  0  0  0  0  0  0  0  0  0
   10.4208   -2.3418   24.7705 C   0  0  0  0  0  0  0  0  0  0  0  0
    7.5195   -8.4674   15.2688 C   0  0  0  0  0  0  0  0  0  0  0  0
    8.3739   -6.3116   16.4933 C   0  0  0  0  0  0  0  0  0  0  0  0
    7.3029   -7.9731   17.1263 C   0  0  0  0  0  0  0  0  0  0  0  0
   10.6238   -3.4832   22.2517 C   0  0  0  0  0  0  0  0  0  0  0  0
    8.0950   -5.3109   16.0371 O   0  0  0  0  0  0  0  0  0  0  0  0
   10.1955   -2.2315   22.4780 N   0  0  0  0  0  0  0  0  0  0  0  0
   10.7677   -3.5413   24.6569 N   0  0  0  0  0  0  0  0  0  0  0  0
   10.8445   -3.1927   19.7894 N   0  0  0  0  0  0  0  0  0  0  0  0
    5.1585   -8.2667   16.7293 C   0  0  0  0  0  0  0  0  0  0  0  0
   10.5773   -5.3271   20.6042 C   0  0  0  0  0  0  0  0  0  0  0  0
    7.4088   -8.0123   16.1455 C   0  0  0  0  0  0  0  0  0  0  0  0
    6.3579   -8.9778   15.5348 C   0  0  0  0  0  0  0  0  0  0  0  0
    8.7245   -6.9210   16.5160 C   0  0  0  0  0  0  0  0  0  0  0  0
    5.3196   -8.9954   16.8120 C   0  0  0  0  0  0  0  0  0  0  0  0
   10.0851   -5.7422   19.4072 C   0  0  0  0  0  0  0  0  0  0  0  0
    7.3433   -8.2805   17.6661 C   0  0  0  0  0  0  0  0  0  0  0  0
   10.0568   -1.6487   23.6975 N   0  0  0  0  0  0  0  0  0  0  0  0
   10.5162   -3.5546   16.9314 C   0  0  0  0  0  0  0  0  0  0  0  0
   10.4213   -3.9117   17.9019 C   0  0  0  0  0  0  0  0  0  0  0  0
    9.5349   -5.6523   18.3049 N   0  0  0  0  0  0  0  0  0  0  0  0
   10.8782   -4.1720   23.4613 C   0  0  0  0  0  0  0  0  0  0  0  0
    9.3349   -5.2370   17.1312 C   0  0  0  0  0  0  0  0  0  0  0  0
  1  8  1  0
  1 12  4  0
  1 14  4  0
  3 23  4  0
  4 11  4  0
  4 21  4  0
  5 16  4  0
  6 17  1  0
  7 20  1  0
  8 10  4  0
  8 25  4  0
 10 21  4  0
 11 25  4  0
 13 18  1  0
 14 19  4  0
 19 24  4  0
 24 26  1  0
M  END
$$$$

 Created by Python create_sdf_string function

 26 49  0  0  0  0  0  0  0  0999 V2000
   10.8394   -3.7042   21.0281 O   0  0  0  0  0  0  0  0  0  0  0  0
   10.0268   -2.2721   24.6682 C   0  0  0  0  0  0  0  0  0  0  0  0
    7.6898   -9.9581   15.3060 O   0  0  0  0  0  0  0  0  0  0  0  0
    9.3803   -8.4624   17.2711 S   0  0  0  0  0  0  0  0  0  0  0  0
   10.7458   -3.1656   21.5597 C   0  0  0  0  0  0  0  0  0  0  0  0
    9.4202   -1.6353   22.9548 N   0  0  0  0  0  0  0  0  0  0  0  0
   10.8676   -3.2599   20.6712 N   0  0  0  0  0  0  0  0  0  0  0  0
    5.5456   -9.1751   18.1555 C   0  0  0  0  0  0  0  0  0  0  0  0
    8.5048   -8.0086   15.3164 C   0  0  0  0  0  0  0  0  0  0  0  0
    4.6066  -11.1888   15.8155 B   0  0  0  0  0  0  0  0  0  0  0  0
    9.9814   -6.1459   19.0426 C   0  0  0  0  0  0  0  0  0  0  0  0
    8.8657   -6.7374   17.4798 N   0  0  0  0  0  0  0  0  0  0  0  0
   10.4065   -1.9680   23.8541 N   0  0  0  0  0  0  0  0  0  0  0  0
    8.9856   -5.5803   18.6681 N   0  0  0  0  0  0  0  0  0  0  0  0
   11.1763   -4.1032   23.4322 C   0  0  0  0  0  0  0  0  0  0  0  0
    8.7808   -5.5073   18.4064 Se  0  0  0  0  0  0  0  0  0  0  0  0
    7.9349   -8.3293   18.4736 He  0  0  0  0  0  0  0  0  0  0  0  0
   11.1536   -3.9012   17.9333 He  0  0  0  0  0  0  0  0  0  0  0  0
    8.6918   -6.6907   16.0777 He  0  0  0  0  0  0  0  0  0  0  0  0
    7.5786   -6.0393   16.2104 He  0  0  0  0  0  0  0  0  0  0  0  0
   11.3603   -3.6142   25.3651 He  0  0  0  0  0  0  0  0  0  0  0  0
   10.0119   -5.4037   20.1464 He  0  0  0  0  0  0  0  0  0  0  0  0
    5.3573   -8.4901   14.8152 He  0  0  0  0  0  0  0  0  0  0  0  0
    7.5885   -4.5590   18.3309 He  0  0  0  0  0  0  0  0  0  0  0  0
    9.5493   -3.0774   16.8122 He  0  0  0  0  0  0  0  0  0  0  0  0
   10.2778   -4.1750   18.1228 He  0  0  0  0  0  0  0  0  0  0  0  0
  1  5  1  0
  1  7  4  0
  1 12  1  0
  1 13  1  0
  1 16  2  0
  2  3  4  0
  2  6  4  0
  2 13  4  0
  3  4  4  0
  3  5  1  0
  3 13  4  0
  3 14  4  0
  3 15  1  0
  4  5  4  0
  4  8  4  0
  4  9  3  0
  4 13  2  0
  4 14  4  0
  5  6  1  0
  5  8  1  0
  5  9  1  0
  5 12  3  0
  5 13  4  0
  5 14  3  0
  5 15  4  0
  6  7  3  0
  6  8  4  0
  6  9  1  0
  6 10  3  0
  6 11  3  0
  6 13  3  0
  7  8  1  0
  7 10  1  0
  7 12  1  0
  7 16  2  0
  8  9  1  0
  8 10  3  0
  8 12  2  0
  8 13  3  0
  8 14  4  0
  8 15  4  0
  9 10  4  0
  9 11  3  0
  9 12  3  0
  9 13  3  0
  9 15  4  0
 10 15  1  0
 12 13  1  0
 12 16  2  0
M  END
$$$$

 Created by Python create_sdf_string function

 26 13  0  0  0  0  0  0  0  0999 V2000
   10.8702   -3.6641   21.0752 C   0  0  0  0  0  0  0  0  0  0  0  0
    7.2863   -8.0421   17.7589 C   0  0  0  0  0  0  0  0  0  0  0  0
   10.7969   -3.4220   18.0710 C   0  0  0  0  0  0  0  0  0  0  0  0
   10.2371   -2.4058   24.9061 C   0  0  0  0  0  0  0  0  0  0  0  0
    7.1384   -9.0109   15.3302 C   0  0  0  0  0  0  0  0  0  0  0  0
    8.2722   -6.7539   16.2249 C   0  0  0  0  0  0  0  0  0  0  0  0
    8.5139   -8.1092   17.3743 C   0  0  0  0  0  0  0  0  0  0  0  0
   10.7482   -3.3099   22.4264 C   0  0  0  0  0  0  0  0  0  0  0  0
    7.6946   -6.3780   16.2209 C   0  0  0  0  0  0  0  0  0  0  0  0
   10.2375   -2.0913   22.7404 C   0  0  0  0  0  0  0  0  0  0  0  0
   10.8713   -3.6127   24.8145 C   0  0  0  0  0  0  0  0  0  0  0  0
   10.9742   -3.3161   20.2815 N   0  0  0  0  0  0  0  0  0  0  0  0
    5.9759   -8.7045   17.5594 C   0  0  0  0  0  0  0  0  0  0  0  0
   10.4108   -5.1002   20.2028 C   0  0  0  0  0  0  0  0  0  0  0  0
    7.7618   -8.1745   15.6972 C   0  0  0  0  0  0  0  0  0  0  0  0
    5.9365   -8.9605   15.9984 C   0  0  0  0  0  0  0  0  0  0  0  0
    8.8196   -5.1148   17.5986 C   0  0  0  0  0  0  0  0  0  0  0  0
    5.2229   -9.7151   16.2534 O   0  0  0  0  0  0  0  0  0  0  0  0
    9.9544   -6.2207   19.2177 C   0  0  0  0  0  0  0  0  0  0  0  0
    8.6064   -6.6604   17.4592 C   0  0  0  0  0  0  0  0  0  0  0  0
    9.9548   -1.8494   23.7728 N   0  0  0  0  0  0  0  0  0  0  0  0
   10.0531   -3.7949   16.4186 C   0  0  0  0  0  0  0  0  0  0  0  0
   10.4913   -3.8005   17.9026 C   0  0  0  0  0  0  0  0  0  0  0  0
    9.4448   -5.5493   18.5278 C   0  0  0  0  0  0  0  0  0  0  0  0
   11.1011   -4.0948   23.5016 C   0  0  0  0  0  0  0  0  0  0  0  0
    9.2981   -5.4587   18.0084 C   0  0  0  0  0  0  0  0  0  0  0  0
  1  8  1  0
  1 12  4  0
  2 13  4  0
  3 23  4  0
  4 11  4  0
  4 21  4  0
  5 15  4  0
  8 10  4  0
  8 25  4  0
 10 21  4  0
 11 25  4  0
 14 19  4  0
 16 18  4  0
M  END
$$$$

 Created by Python create_sdf_string function

 26 30  0  0  0  0  0  0  0  0999 V2000
   10.8197   -3.6377   20.2886 C   0  0  0  0  0  0  0  0  0  0  0  0
    6.2517   -7.6959   18.6099 C   0  0  0  0  0  0  0  0  0  0  0  0
   11.1089   -3.4453   22.0985 C   0  0  0  0  0  0  0  0  0  0  0  0
   11.0807   -1.9797   22.7653 C   0  0  0  0  0  0  0  0  0  0  0  0
   11.0013   -3.6266   24.2717 C   0  0  0  0  0  0  0  0  0  0  0  0
   11.6929   -3.3378   20.0565 N   0  0  0  0  0  0  0  0  0  0  0  0
    9.9534   -4.4564   20.4408 F   0  0  0  0  0  0  0  0  0  0  0  0
    7.0311   -9.5533   16.3764 O   0  0  0  0  0  0  0  0  0  0  0  0
    9.2232   -5.8679   17.4385 B   0  0  0  0  0  0  0  0  0  0  0  0
    5.3280   -9.5659   15.1306 S   0  0  0  0  0  0  0  0  0  0  0  0
    7.9421   -8.3630   17.3365 F   0  0  0  0  0  0  0  0  0  0  0  0
   10.0004   -1.7276   24.0848 N   0  0  0  0  0  0  0  0  0  0  0  0
    9.8496   -5.9829   18.5468 Se  0  0  0  0  0  0  0  0  0  0  0  0
   11.1822   -3.7495   23.6722 C   0  0  0  0  0  0  0  0  0  0  0  0
    9.9436   -5.5254   17.3309 N   0  0  0  0  0  0  0  0  0  0  0  0
   10.2248   -3.0969   18.2587 He  0  0  0  0  0  0  0  0  0  0  0  0
   10.0684   -2.6518   25.0341 He  0  0  0  0  0  0  0  0  0  0  0  0
    5.6450   -8.1073   15.8347 He  0  0  0  0  0  0  0  0  0  0  0  0
    8.8183   -7.4116   16.2906 He  0  0  0  0  0  0  0  0  0  0  0  0
    7.4682   -8.1630   17.5221 He  0  0  0  0  0  0  0  0  0  0  0  0
    8.1996   -5.9378   15.2101 He  0  0  0  0  0  0  0  0  0  0  0  0
    4.6223  -10.2545   14.9530 He  0  0  0  0  0  0  0  0  0  0  0  0
    6.6426   -9.1005   16.6468 He  0  0  0  0  0  0  0  0  0  0  0  0
    9.8892   -5.8891   18.8265 He  0  0  0  0  0  0  0  0  0  0  0  0
    9.9779   -4.3298   14.8675 He  0  0  0  0  0  0  0  0  0  0  0  0
   11.0151   -3.6468   17.5244 He  0  0  0  0  0  0  0  0  0  0  0  0
  1  2  2  0
  1  3  1  0
  1  6  4  0
  1  8  4  0
  2  8  2  0
  2 14  1  0
  3  4  4  0
  3  9  2  0
  3 14  4  0
  3 15  3  0
  4 10  4  0
  4 11  4  0
  5  6  2  0
  5 14  4  0
  5 15  1  0
  6  9  3  0
  6 10  4  0
  6 11  2  0
  6 15  2  0
  7  8  4  0
  7 10  1  0
  8 14  2  0
  8 15  2  0
  9 12  2  0
  9 13  1  0
  9 15  3  0
 10 13  3  0
 11 12  3  0
 12 14  4  0
 12 15  3  0
M  END
$$$$

 Created by Python create_sdf_string function

 26 14  0  0  0  0  0  0  0  0999 V2000
   10.9356   -3.6686   20.9062 C   0  0  0  0  0  0  0  0  0  0  0  0
    6.6291   -7.7668   17.7192 C   0  0  0  0  0  0  0  0  0  0  0  0
   10.8202   -3.3296   18.1168 C   0  0  0  0  0  0  0  0  0  0  0  0
   10.1489   -2.6302   24.9807 C   0  0  0  0  0  0  0  0  0  0  0  0
    5.5465   -8.2903   16.3233 C   0  0  0  0  0  0  0  0  0  0  0  0
    8.4952   -6.8848   16.4892 C   0  0  0  0  0  0  0  0  0  0  0  0
    7.6767   -7.7544   17.3677 C   0  0  0  0  0  0  0  0  0  0  0  0
   10.9587   -3.2409   22.3292 C   0  0  0  0  0  0  0  0  0  0  0  0
    8.4384   -5.8569   15.9370 C   0  0  0  0  0  0  0  0  0  0  0  0
   10.7139   -1.9848   22.7590 C   0  0  0  0  0  0  0  0  0  0  0  0
   10.7051   -3.7765   24.6784 C   0  0  0  0  0  0  0  0  0  0  0  0
   11.2945   -2.9655   20.0475 N   0  0  0  0  0  0  0  0  0  0  0  0
    5.0539   -9.4365   15.4995 C   0  0  0  0  0  0  0  0  0  0  0  0
   10.3075   -4.7625   20.5274 C   0  0  0  0  0  0  0  0  0  0  0  0
    6.8539   -9.0812   16.0128 C   0  0  0  0  0  0  0  0  0  0  0  0
    6.4155   -8.8222   16.4349 C   0  0  0  0  0  0  0  0  0  0  0  0
    9.2986   -5.8325   17.2711 C   0  0  0  0  0  0  0  0  0  0  0  0
    5.5669   -9.3358   15.5937 C   0  0  0  0  0  0  0  0  0  0  0  0
   10.1504   -5.0041   19.1102 C   0  0  0  0  0  0  0  0  0  0  0  0
    8.0197   -7.9436   17.2108 C   0  0  0  0  0  0  0  0  0  0  0  0
   10.1529   -1.6846   24.0032 N   0  0  0  0  0  0  0  0  0  0  0  0
    9.8095   -4.1516   16.0132 C   0  0  0  0  0  0  0  0  0  0  0  0
   10.6187   -3.7926   18.1760 C   0  0  0  0  0  0  0  0  0  0  0  0
    9.5946   -6.1675   18.3740 C   0  0  0  0  0  0  0  0  0  0  0  0
   11.0625   -4.1134   23.4017 C   0  0  0  0  0  0  0  0  0  0  0  0
    9.6700   -4.9728   16.9992 C   0  0  0  0  0  0  0  0  0  0  0  0
  1  8  1  0
  1 12  4  0
  1 14  4  0
  3 23  4  0
  4 11  4  0
  4 21  4  0
  7 20  1  0
  8 10  4  0
  8 25  4  0
 10 21  4  0
 11 25  4  0
 14 19  4  0
 17 24  1  0
 19 23  4  0
M  END
$$$$

 Created by Python create_sdf_string function

 26 38  0  0  0  0  0  0  0  0999 V2000
   10.6879   -3.7425   21.0508 C   0  0  0  0  0  0  0  0  0  0  0  0
    8.5809   -7.5717   17.5486 C   0  0  0  0  0  0  0  0  0  0  0  0
   11.1755   -3.4802   17.3682 F   0  0  0  0  0  0  0  0  0  0  0  0
    6.3119   -7.5512   15.1969 C   0  0  0  0  0  0  0  0  0  0  0  0
    9.5743   -6.0750   15.3396 C   0  0  0  0  0  0  0  0  0  0  0  0
   10.5291   -2.3370   22.4431 C   0  0  0  0  0  0  0  0  0  0  0  0
   11.9092   -3.0558   20.0842 N   0  0  0  0  0  0  0  0  0  0  0  0
    5.2500   -8.8814   16.4039 O   0  0  0  0  0  0  0  0  0  0  0  0
   10.4222   -4.6002   20.4040 C   0  0  0  0  0  0  0  0  0  0  0  0
    7.0298   -9.7515   16.2091 N   0  0  0  0  0  0  0  0  0  0  0  0
    8.9171   -6.0285   17.6294 C   0  0  0  0  0  0  0  0  0  0  0  0
   10.4529   -5.2968   19.4448 C   0  0  0  0  0  0  0  0  0  0  0  0
   10.3547   -3.5060   17.3989 C   0  0  0  0  0  0  0  0  0  0  0  0
    9.7671   -6.0398   18.1096 C   0  0  0  0  0  0  0  0  0  0  0  0
   10.8843   -4.4820   23.0624 C   0  0  0  0  0  0  0  0  0  0  0  0
   10.3817   -2.6333   24.3944 He  0  0  0  0  0  0  0  0  0  0  0  0
    8.9990   -6.4388   17.6347 He  0  0  0  0  0  0  0  0  0  0  0  0
    8.1384   -7.6840   15.6310 He  0  0  0  0  0  0  0  0  0  0  0  0
   10.3952   -4.0003   22.3014 He  0  0  0  0  0  0  0  0  0  0  0  0
   10.4224   -3.5122   24.4996 He  0  0  0  0  0  0  0  0  0  0  0  0
    7.8369   -8.3209   18.3424 He  0  0  0  0  0  0  0  0  0  0  0  0
    6.4268   -9.1432   15.3629 He  0  0  0  0  0  0  0  0  0  0  0  0
    7.4718   -8.3244   16.6601 He  0  0  0  0  0  0  0  0  0  0  0  0
    9.6745   -1.3490   24.0343 He  0  0  0  0  0  0  0  0  0  0  0  0
   10.9129   -3.3467   17.4034 He  0  0  0  0  0  0  0  0  0  0  0  0
   11.1249   -5.5416   16.4137 He  0  0  0  0  0  0  0  0  0  0  0  0
  1  4  2  0
  1  6  2  0
  1  7  4  0
  1 10  2  0
  2  3  3  0
  2  4  1  0
  2  5  4  0
  2 10  2  0
  2 11  1  0
  2 14  2  0
  3  5  3  0
  3 12  2  0
  3 13  4  0
  4  5  1  0
  4  6  2  0
  4  9  4  0
  4 11  4  0
  4 12  3  0
  4 13  4  0
  4 15  4  0
  5  7  1  0
  5  9  1  0
  5 15  4  0
  6  9  4  0
  6 11  3  0
  6 12  1  0
  7 11  3  0
  8 10  2  0
  8 11  2  0
  8 13  3  0
  8 14  2  0
  8 15  3  0
 10 13  4  0
 10 14  1  0
 10 15  3  0
 11 14  2  0
 12 14  2  0
 13 14  3  0
M  END
$$$$

 Created by Python create_sdf_string function

 26 15  0  0  0  0  0  0  0  0999 V2000
   10.9726   -3.8181   21.0182 C   0  0  0  0  0  0  0  0  0  0  0  0
    8.3235   -7.5873   17.5236 C   0  0  0  0  0  0  0  0  0  0  0  0
   11.0311   -3.2877   17.5753 C   0  0  0  0  0  0  0  0  0  0  0  0
   10.0639   -2.5774   24.8462 C   0  0  0  0  0  0  0  0  0  0  0  0
    6.2798   -7.6576   15.6937 C   0  0  0  0  0  0  0  0  0  0  0  0
    8.9788   -6.4095   17.4358 C   0  0  0  0  0  0  0  0  0  0  0  0
    8.0535   -7.7451   15.6183 C   0  0  0  0  0  0  0  0  0  0  0  0
   10.7029   -3.3985   22.3677 C   0  0  0  0  0  0  0  0  0  0  0  0
    8.8834   -5.9620   15.8947 C   0  0  0  0  0  0  0  0  0  0  0  0
   10.3871   -2.1328   22.6419 C   0  0  0  0  0  0  0  0  0  0  0  0
   10.4659   -3.8102   24.6769 C   0  0  0  0  0  0  0  0  0  0  0  0
   11.2819   -2.9586   20.0195 N   0  0  0  0  0  0  0  0  0  0  0  0
    5.3071   -8.6395   16.6264 O   0  0  0  0  0  0  0  0  0  0  0  0
   10.5140   -4.9022   20.3704 C   0  0  0  0  0  0  0  0  0  0  0  0
    6.5971   -9.1993   16.1902 C   0  0  0  0  0  0  0  0  0  0  0  0
    7.7319   -7.9469   17.9227 C   0  0  0  0  0  0  0  0  0  0  0  0
    8.9675   -6.4818   17.4125 C   0  0  0  0  0  0  0  0  0  0  0  0
    6.2821   -8.8863   15.8106 C   0  0  0  0  0  0  0  0  0  0  0  0
   10.1949   -5.2458   19.2287 C   0  0  0  0  0  0  0  0  0  0  0  0
    7.3148   -8.1876   16.5438 C   0  0  0  0  0  0  0  0  0  0  0  0
    9.9819   -1.6592   23.8874 C   0  0  0  0  0  0  0  0  0  0  0  0
   10.9578   -3.4050   17.5964 C   0  0  0  0  0  0  0  0  0  0  0  0
   10.6719   -3.7634   17.3994 C   0  0  0  0  0  0  0  0  0  0  0  0
    9.6610   -5.8974   18.2078 C   0  0  0  0  0  0  0  0  0  0  0  0
   10.7867   -4.3080   23.4174 C   0  0  0  0  0  0  0  0  0  0  0  0
   10.2152   -4.5064   16.3027 C   0  0  0  0  0  0  0  0  0  0  0  0
  1  8  1  0
  1 12  4  0
  1 14  4  0
  2 16  1  0
  3 23  4  0
  4 11  4  0
  4 21  4  0
  8 10  4  0
  8 25  4  0
 10 21  4  0
 11 25  4  0
 14 19  4  0
 15 18  1  0
 19 24  4  0
 23 26  4  0
M  END
$$$$

 Created by Python create_sdf_string function

 26 47  0  0  0  0  0  0  0  0999 V2000
   11.2580   -3.5736   20.9313 C   0  0  0  0  0  0  0  0  0  0  0  0
   10.5003   -2.6167   24.7697 I   0  0  0  0  0  0  0  0  0  0  0  0
    5.2759   -7.3069   15.4564 Cl  0  0  0  0  0  0  0  0  0  0  0  0
    8.5893   -5.5310   16.2004 F   0  0  0  0  0  0  0  0  0  0  0  0
   10.7255   -2.9171   22.5294 C   0  0  0  0  0  0  0  0  0  0  0  0
    9.2917   -7.1377   15.4759 Cl  0  0  0  0  0  0  0  0  0  0  0  0
   10.1178   -1.8534   22.1925 C   0  0  0  0  0  0  0  0  0  0  0  0
   10.3413   -4.2149   25.1028 C   0  0  0  0  0  0  0  0  0  0  0  0
   10.5491   -5.2452   20.6826 F   0  0  0  0  0  0  0  0  0  0  0  0
    5.7977   -8.4788   16.3029 N   0  0  0  0  0  0  0  0  0  0  0  0
    8.1416   -9.0285   16.0408 F   0  0  0  0  0  0  0  0  0  0  0  0
    9.9028   -5.5663   19.0783 C   0  0  0  0  0  0  0  0  0  0  0  0
    8.0786   -5.9501   16.4307 C   0  0  0  0  0  0  0  0  0  0  0  0
    9.9601   -1.8306   23.4668 C   0  0  0  0  0  0  0  0  0  0  0  0
   10.7607   -4.0038   17.5180 C   0  0  0  0  0  0  0  0  0  0  0  0
   10.6153   -4.0339   23.2425 C   0  0  0  0  0  0  0  0  0  0  0  0
    9.0295   -4.6214   15.7817 C   0  0  0  0  0  0  0  0  0  0  0  0
    9.5490   -7.7043   18.1784 He  0  0  0  0  0  0  0  0  0  0  0  0
   10.8448   -2.4900   17.4609 He  0  0  0  0  0  0  0  0  0  0  0  0
    8.7403   -6.4913   17.7911 He  0  0  0  0  0  0  0  0  0  0  0  0
   11.1103   -2.7167   19.6534 He  0  0  0  0  0  0  0  0  0  0  0  0
    6.1080   -8.6038   16.2596 He  0  0  0  0  0  0  0  0  0  0  0  0
    9.0169   -5.5414   17.7574 He  0  0  0  0  0  0  0  0  0  0  0  0
    5.5614  -10.3160   17.3492 He  0  0  0  0  0  0  0  0  0  0  0  0
   11.2323   -3.7462   17.2804 He  0  0  0  0  0  0  0  0  0  0  0  0
    9.4511   -5.8091   17.5275 He  0  0  0  0  0  0  0  0  0  0  0  0
  1  3  1  0
  1  5  1  0
  1  6  1  0
  1  9  4  0
  1 11  3  0
  2  4  3  0
  2  6  1  0
  2 10  1  0
  2 13  3  0
  2 14  3  0
  2 16  3  0
  2 17  3  0
  3  5  3  0
  3  6  2  0
  3 10  4  0
  3 14  4  0
  4  6  4  0
  4  7  2  0
  4  9  2  0
  4 10  1  0
  4 11  3  0
  4 12  1  0
  4 13  3  0
  4 14  4  0
  5  7  4  0
  5 10  3  0
  5 12  3  0
  6  9  4  0
  6 10  3  0
  6 11  2  0
  6 13  1  0
  6 15  4  0
  6 16  1  0
  7 10  4  0
  7 14  4  0
  8 13  3  0
  8 14  4  0
  8 16  2  0
  8 17  4  0
  9 11  2  0
  9 17  1  0
 10 11  3  0
 10 13  4  0
 10 14  2  0
 10 17  2  0
 11 17  3  0
 16 17  4  0
M  END
$$$$

 Created by Python create_sdf_string function

 26 15  0  0  0  0  0  0  0  0999 V2000
   10.8732   -3.7275   20.9776 C   0  0  0  0  0  0  0  0  0  0  0  0
    9.2461   -7.6401   18.2383 C   0  0  0  0  0  0  0  0  0  0  0  0
   11.2995   -2.5879   17.6153 O   0  0  0  0  0  0  0  0  0  0  0  0
   10.1032   -2.6273   24.8621 C   0  0  0  0  0  0  0  0  0  0  0  0
    5.6382   -7.8256   16.3126 C   0  0  0  0  0  0  0  0  0  0  0  0
    8.6550   -5.3909   16.1439 C   0  0  0  0  0  0  0  0  0  0  0  0
    8.6271   -7.0178   17.5631 C   0  0  0  0  0  0  0  0  0  0  0  0
   10.7187   -3.3240   22.3180 C   0  0  0  0  0  0  0  0  0  0  0  0
    8.3782   -7.3078   15.9710 C   0  0  0  0  0  0  0  0  0  0  0  0
   10.4232   -1.9826   22.6042 C   0  0  0  0  0  0  0  0  0  0  0  0
   10.4667   -3.8514   24.6598 C   0  0  0  0  0  0  0  0  0  0  0  0
   11.1794   -2.9465   19.8157 N   0  0  0  0  0  0  0  0  0  0  0  0
    6.2826   -8.4391   16.6664 C   0  0  0  0  0  0  0  0  0  0  0  0
   10.6033   -5.0577   20.5544 C   0  0  0  0  0  0  0  0  0  0  0  0
    5.9576   -8.3252   16.6722 C   0  0  0  0  0  0  0  0  0  0  0  0
    7.5951   -8.6470   16.3926 C   0  0  0  0  0  0  0  0  0  0  0  0
    9.7282   -5.4532   17.8416 C   0  0  0  0  0  0  0  0  0  0  0  0
    5.9162   -9.2361   17.2055 C   0  0  0  0  0  0  0  0  0  0  0  0
   10.1865   -5.2875   19.2152 C   0  0  0  0  0  0  0  0  0  0  0  0
    8.0602   -6.4893   16.3064 C   0  0  0  0  0  0  0  0  0  0  0  0
   10.0800   -1.7033   23.8741 C   0  0  0  0  0  0  0  0  0  0  0  0
   10.7093   -3.6373   17.7977 C   0  0  0  0  0  0  0  0  0  0  0  0
   10.8191   -3.6481   17.8416 C   0  0  0  0  0  0  0  0  0  0  0  0
    9.4740   -5.8175   17.8385 N   0  0  0  0  0  0  0  0  0  0  0  0
   10.7974   -4.2307   23.3866 C   0  0  0  0  0  0  0  0  0  0  0  0
    9.3708   -4.3671   16.0447 C   0  0  0  0  0  0  0  0  0  0  0  0
  1  8  1  0
  1 12  4  0
  1 14  4  0
  3 23  4  0
  4 11  4  0
  4 21  4  0
  5 15  4  0
  8 10  4  0
  8 25  4  0
 10 21  4  0
 11 25  4  0
 14 19  4  0
 17 24  1  0
 19 24  4  0
 22 23  4  0
M  END
$$$$

 Created by Python create_sdf_string function

 26 74  0  0  0  0  0  0  0  0999 V2000
   10.9994   -3.6885   21.0361 S   0  0  0  0  0  0  0  0  0  0  0  0
    8.0754   -6.9918   17.0235 N   0  0  0  0  0  0  0  0  0  0  0  0
   11.2817   -2.8064   18.0828 O   0  0  0  0  0  0  0  0  0  0  0  0
    9.6059   -2.5531   24.7560 C   0  0  0  0  0  0  0  0  0  0  0  0
    7.0378   -8.4684   16.8792 P   0  0  0  0  0  0  0  0  0  0  0  0
    9.5675   -4.2886   16.6655 F   0  0  0  0  0  0  0  0  0  0  0  0
   10.7417   -2.8821   22.1633 C   0  0  0  0  0  0  0  0  0  0  0  0
    6.8001   -6.9348   14.6835 N   0  0  0  0  0  0  0  0  0  0  0  0
   10.0758   -1.6963   22.7801 C   0  0  0  0  0  0  0  0  0  0  0  0
   10.8053   -3.6439   24.5916 C   0  0  0  0  0  0  0  0  0  0  0  0
   10.8014   -2.8246   19.4329 N   0  0  0  0  0  0  0  0  0  0  0  0
   10.3325   -5.1897   21.0935 O   0  0  0  0  0  0  0  0  0  0  0  0
    8.1971   -5.4723   16.2184 O   0  0  0  0  0  0  0  0  0  0  0  0
    6.1383   -9.1933   17.4897 C   0  0  0  0  0  0  0  0  0  0  0  0
   10.1166   -5.0415   19.5378 C   0  0  0  0  0  0  0  0  0  0  0  0
    8.4733   -5.5497   16.7508 C   0  0  0  0  0  0  0  0  0  0  0  0
   10.4298   -4.3555   17.7181 C   0  0  0  0  0  0  0  0  0  0  0  0
   11.3589   -3.9422   18.0401 C   0  0  0  0  0  0  0  0  0  0  0  0
    9.5944   -5.4620   17.6118 N   0  0  0  0  0  0  0  0  0  0  0  0
    9.5607   -3.4177   16.5911 Cl  0  0  0  0  0  0  0  0  0  0  0  0
   10.4459   -4.9349   16.8862 He  0  0  0  0  0  0  0  0  0  0  0  0
    5.5308   -7.3238   16.0444 He  0  0  0  0  0  0  0  0  0  0  0  0
    6.6327   -7.9767   17.0998 He  0  0  0  0  0  0  0  0  0  0  0  0
    6.0111   -8.1631   15.5855 He  0  0  0  0  0  0  0  0  0  0  0  0
   10.0707   -1.7519   24.1495 He  0  0  0  0  0  0  0  0  0  0  0  0
   10.9481   -3.8276   23.9271 He  0  0  0  0  0  0  0  0  0  0  0  0
  1  3  4  0
  1  7  1  0
  1 10  4  0
  1 11  4  0
  1 12  4  0
  1 13  3  0
  1 15  3  0
  1 18  4  0
  2  5  4  0
  2 11  4  0
  2 14  4  0
  2 19  2  0
  3  5  1  0
  3  6  2  0
  3  8  1  0
  3  9  2  0
  3 13  3  0
  3 14  3  0
  3 18  4  0
  3 19  3  0
  4  5  3  0
  4 10  4  0
  4 12  3  0
  4 18  3  0
  5 10  3  0
  5 11  3  0
  5 15  3  0
  5 18  1  0
  5 20  4  0
  6  9  2  0
  6 10  1  0
  6 13  4  0
  6 14  4  0
  6 17  3  0
  6 18  2  0
  6 19  2  0
  7  8  1  0
  7  9  4  0
  7 17  2  0
  8 10  4  0
  8 12  2  0
  8 14  2  0
  8 17  3  0
  8 20  3  0
  9 13  4  0
  9 16  1  0
  9 20  2  0
 10 11  2  0
 10 12  4  0
 10 15  1  0
 10 16  2  0
 10 20  1  0
 11 12  3  0
 11 13  3  0
 11 14  3  0
 11 17  2  0
 11 20  2  0
 12 16  1  0
 13 14  3  0
 13 15  1  0
 13 17  1  0
 13 18  4  0
 13 20  1  0
 14 17  3  0
 14 18  4  0
 14 19  2  0
 15 17  1  0
 15 19  4  0
 15 20  3  0
 16 17  1  0
 16 18  2  0
 17 20  3  0
 18 19  4  0
 19 20  1  0
M  END
$$$$

 Created by Python create_sdf_string function

 26 19  0  0  0  0  0  0  0  0999 V2000
   10.8824   -3.6155   21.2198 C   0  0  0  0  0  0  0  0  0  0  0  0
    8.0100   -7.1773   17.0974 C   0  0  0  0  0  0  0  0  0  0  0  0
   11.4395   -2.6377   17.6147 N   0  0  0  0  0  0  0  0  0  0  0  0
    9.9042   -2.4992   25.0959 C   0  0  0  0  0  0  0  0  0  0  0  0
    7.3131   -8.1194   17.3210 C   0  0  0  0  0  0  0  0  0  0  0  0
    9.5693   -4.2693   16.2083 C   0  0  0  0  0  0  0  0  0  0  0  0
    9.9802   -4.6635   17.1061 C   0  0  0  0  0  0  0  0  0  0  0  0
   10.6754   -3.1265   22.5645 C   0  0  0  0  0  0  0  0  0  0  0  0
    6.7700   -6.8513   15.2868 C   0  0  0  0  0  0  0  0  0  0  0  0
   10.2945   -1.8337   22.8530 C   0  0  0  0  0  0  0  0  0  0  0  0
   10.4325   -3.6784   24.8530 C   0  0  0  0  0  0  0  0  0  0  0  0
   11.0776   -2.9264   20.1413 N   0  0  0  0  0  0  0  0  0  0  0  0
    5.8349   -8.0366   16.2410 C   0  0  0  0  0  0  0  0  0  0  0  0
   10.6522   -4.9416   20.9138 C   0  0  0  0  0  0  0  0  0  0  0  0
    6.5958   -8.3548   17.3933 C   0  0  0  0  0  0  0  0  0  0  0  0
    6.0393   -8.1225   16.0245 C   0  0  0  0  0  0  0  0  0  0  0  0
    8.4260   -5.5662   15.9664 O   0  0  0  0  0  0  0  0  0  0  0  0
    6.1125   -8.7436   17.5939 C   0  0  0  0  0  0  0  0  0  0  0  0
   10.3341   -5.1522   19.5009 C   0  0  0  0  0  0  0  0  0  0  0  0
    8.5375   -5.9067   16.3449 C   0  0  0  0  0  0  0  0  0  0  0  0
    9.8093   -1.5632   24.1136 C   0  0  0  0  0  0  0  0  0  0  0  0
   10.6490   -4.1056   18.5421 C   0  0  0  0  0  0  0  0  0  0  0  0
   10.9588   -3.5847   17.9972 C   0  0  0  0  0  0  0  0  0  0  0  0
    9.6473   -5.7752   18.3033 N   0  0  0  0  0  0  0  0  0  0  0  0
   10.8269   -4.0933   23.6145 C   0  0  0  0  0  0  0  0  0  0  0  0
   10.0247   -3.8364   16.0433 C   0  0  0  0  0  0  0  0  0  0  0  0
  1  8  1  0
  1 12  4  0
  1 14  4  0
  2  5  4  0
  3 23  4  0
  4 11  4  0
  4 21  4  0
  5 15  4  0
  8 10  4  0
  8 25  4  0
 10 21  4  0
 11 25  4  0
 12 22  4  0
 13 16  4  0
 14 19  4  0
 15 18  4  0
 17 20  4  0
 19 24  4  0
 22 23  4  0
M  END
$$$$

 Created by Python create_sdf_string function

 26102  0  0  0  0  0  0  0  0999 V2000
   11.4060   -3.9405   21.1299 C   0  0  0  0  0  0  0  0  0  0  0  0
    7.4687   -7.8496   16.8922 C   0  0  0  0  0  0  0  0  0  0  0  0
   11.5830   -2.3596   18.0404 N   0  0  0  0  0  0  0  0  0  0  0  0
    9.9767   -2.2758   25.4705 C   0  0  0  0  0  0  0  0  0  0  0  0
    7.8552   -4.9563   16.9598 O   0  0  0  0  0  0  0  0  0  0  0  0
   10.8657   -3.9585   15.8236 O   0  0  0  0  0  0  0  0  0  0  0  0
   10.4700   -2.7524   21.9528 Se  0  0  0  0  0  0  0  0  0  0  0  0
    7.3093   -8.5106   16.5986 Se  0  0  0  0  0  0  0  0  0  0  0  0
   10.3406   -1.7905   23.0368 S   0  0  0  0  0  0  0  0  0  0  0  0
   10.0681   -3.2123   24.4951 C   0  0  0  0  0  0  0  0  0  0  0  0
   10.8111   -3.4082   20.5246 O   0  0  0  0  0  0  0  0  0  0  0  0
    3.8194   -9.2620   16.3242 C   0  0  0  0  0  0  0  0  0  0  0  0
   10.6023   -4.9950   21.1102 Cl  0  0  0  0  0  0  0  0  0  0  0  0
    6.6852   -8.7717   16.7446 O   0  0  0  0  0  0  0  0  0  0  0  0
    7.4526   -5.7636   14.2764 Cl  0  0  0  0  0  0  0  0  0  0  0  0
    3.7287   -8.5441   17.2540 C   0  0  0  0  0  0  0  0  0  0  0  0
    9.6584   -4.9327   19.5124 C   0  0  0  0  0  0  0  0  0  0  0  0
    8.2788   -5.9965   17.4271 S   0  0  0  0  0  0  0  0  0  0  0  0
    9.7403   -1.4357   23.7916 C   0  0  0  0  0  0  0  0  0  0  0  0
    9.8113   -4.1056   18.3003 N   0  0  0  0  0  0  0  0  0  0  0  0
   10.5710   -3.2169   17.9938 C   0  0  0  0  0  0  0  0  0  0  0  0
    9.8506   -5.5275   18.3129 N   0  0  0  0  0  0  0  0  0  0  0  0
   10.7922   -3.8372   23.7430 O   0  0  0  0  0  0  0  0  0  0  0  0
    8.8848   -3.7588   15.8270 Br  0  0  0  0  0  0  0  0  0  0  0  0
    8.2025   -7.5580   15.9772 He  0  0  0  0  0  0  0  0  0  0  0  0
    5.7387   -9.8774   17.5989 He  0  0  0  0  0  0  0  0  0  0  0  0
  1  2  4  0
  1  6  3  0
  1  7  1  0
  1  8  3  0
  1 12  4  0
  1 13  4  0
  1 15  4  0
  1 20  3  0
  1 22  2  0
  2  4  1  0
  2  7  4  0
  2  8  3  0
  2 10  1  0
  2 14  4  0
  2 15  3  0
  2 16  4  0
  2 17  4  0
  2 19  1  0
  2 22  1  0
  2 23  4  0
  2 24  3  0
  3  4  3  0
  3 13  3  0
  3 15  2  0
  3 16  1  0
  3 17  2  0
  3 20  3  0
  4  6  4  0
  4  8  3  0
  4 10  4  0
  4 11  4  0
  4 17  4  0
  4 19  4  0
  4 24  4  0
  5  6  4  0
  5  9  4  0
  5 10  1  0
  5 12  2  0
  5 13  1  0
  5 14  1  0
  5 19  1  0
  5 23  2  0
  6  7  1  0
  6 14  2  0
  6 15  1  0
  6 16  2  0
  6 18  3  0
  6 22  3  0
  7  9  4  0
  7 15  3  0
  7 16  2  0
  7 20  3  0
  7 23  4  0
  8 11  2  0
  8 12  1  0
  8 17  4  0
  8 20  1  0
  8 23  4  0
  9 15  1  0
  9 16  1  0
  9 18  1  0
  9 19  4  0
  9 20  2  0
  9 22  1  0
 10 12  1  0
 10 13  2  0
 10 14  2  0
 10 23  4  0
 11 13  3  0
 11 14  1  0
 11 15  4  0
 11 20  3  0
 11 24  4  0
 12 14  3  0
 12 19  4  0
 12 22  1  0
 13 14  4  0
 13 15  4  0
 13 16  1  0
 13 17  4  0
 13 20  3  0
 13 21  1  0
 13 22  4  0
 14 16  4  0
 14 17  2  0
 14 18  1  0
 14 21  2  0
 14 23  1  0
 15 18  3  0
 15 19  2  0
 15 21  1  0
 15 23  4  0
 16 17  1  0
 16 22  2  0
 16 23  3  0
 17 22  4  0
 17 24  3  0
 18 20  1  0
 20 21  1  0
 20 23  3  0
 21 24  1  0
 23 24  4  0
M  END
$$$$

 Created by Python create_sdf_string function

 26 18  0  0  0  0  0  0  0  0999 V2000
   11.0902   -3.6908   21.3782 C   0  0  0  0  0  0  0  0  0  0  0  0
    7.1115   -7.9622   16.9199 C   0  0  0  0  0  0  0  0  0  0  0  0
   11.0927   -2.6860   18.1029 N   0  0  0  0  0  0  0  0  0  0  0  0
    9.8035   -2.1924   25.1294 C   0  0  0  0  0  0  0  0  0  0  0  0
    7.8910   -7.5251   16.3168 C   0  0  0  0  0  0  0  0  0  0  0  0
    8.6838   -5.5828   16.3901 C   0  0  0  0  0  0  0  0  0  0  0  0
   10.3222   -3.7099   16.2322 C   0  0  0  0  0  0  0  0  0  0  0  0
   10.6912   -3.1251   22.6625 C   0  0  0  0  0  0  0  0  0  0  0  0
    6.8721   -8.3471   16.8307 C   0  0  0  0  0  0  0  0  0  0  0  0
   10.3415   -1.7963   22.8550 C   0  0  0  0  0  0  0  0  0  0  0  0
   10.2520   -3.3962   24.8749 C   0  0  0  0  0  0  0  0  0  0  0  0
   11.1697   -2.9759   20.2361 N   0  0  0  0  0  0  0  0  0  0  0  0
    4.5605   -8.8075   16.8419 C   0  0  0  0  0  0  0  0  0  0  0  0
   10.4494   -4.9814   20.9432 C   0  0  0  0  0  0  0  0  0  0  0  0
    5.4936   -9.1792   17.5491 C   0  0  0  0  0  0  0  0  0  0  0  0
    6.2647   -8.4548   17.0271 C   0  0  0  0  0  0  0  0  0  0  0  0
    7.6197   -6.0204   15.6164 C   0  0  0  0  0  0  0  0  0  0  0  0
    4.8237   -8.7964   17.1284 C   0  0  0  0  0  0  0  0  0  0  0  0
   10.0814   -5.0567   19.5189 C   0  0  0  0  0  0  0  0  0  0  0  0
    8.4456   -6.3363   16.8890 C   0  0  0  0  0  0  0  0  0  0  0  0
    9.8502   -1.2895   24.0366 C   0  0  0  0  0  0  0  0  0  0  0  0
   10.4696   -3.9783   18.6009 C   0  0  0  0  0  0  0  0  0  0  0  0
   10.7247   -3.4431   17.8934 C   0  0  0  0  0  0  0  0  0  0  0  0
    9.3785   -5.6382   18.4811 N   0  0  0  0  0  0  0  0  0  0  0  0
   10.6651   -3.8827   23.7242 N   0  0  0  0  0  0  0  0  0  0  0  0
    9.2867   -4.3638   16.0053 C   0  0  0  0  0  0  0  0  0  0  0  0
  1  8  1  0
  1 12  4  0
  1 14  4  0
  2 16  4  0
  3 23  4  0
  4 11  4  0
  4 21  4  0
  7 26  4  0
  8 10  4  0
  8 25  4  0
 10 21  4  0
 11 25  4  0
 12 22  4  0
 13 18  4  0
 14 19  4  0
 19 22  4  0
 19 24  4  0
 22 23  4  0
M  END
$$$$

 Created by Python create_sdf_string function

 26 28  0  0  0  0  0  0  0  0999 V2000
   10.9666   -3.5614   21.6515 C   0  0  0  0  0  0  0  0  0  0  0  0
    7.9746   -8.6361   15.2848 F   0  0  0  0  0  0  0  0  0  0  0  0
   10.7252   -2.8049   17.7238 N   0  0  0  0  0  0  0  0  0  0  0  0
    9.5325   -2.3519   24.7252 Se  0  0  0  0  0  0  0  0  0  0  0  0
    6.6727   -7.6520   17.1160 P   0  0  0  0  0  0  0  0  0  0  0  0
    7.1204   -8.1389   16.3828 O   0  0  0  0  0  0  0  0  0  0  0  0
   10.9905   -2.5243   19.8343 N   0  0  0  0  0  0  0  0  0  0  0  0
   11.2727   -5.1725   20.9171 F   0  0  0  0  0  0  0  0  0  0  0  0
    5.3253   -9.4107   16.7993 C   0  0  0  0  0  0  0  0  0  0  0  0
    5.0924   -8.4030   17.0785 C   0  0  0  0  0  0  0  0  0  0  0  0
    9.5504   -4.9239   19.1597 C   0  0  0  0  0  0  0  0  0  0  0  0
   10.8298   -3.6441   17.4892 Cl  0  0  0  0  0  0  0  0  0  0  0  0
    8.9394   -4.8539   18.3937 N   0  0  0  0  0  0  0  0  0  0  0  0
   10.8783   -2.9388   23.3155 N   0  0  0  0  0  0  0  0  0  0  0  0
    8.1425   -6.0584   14.2678 He  0  0  0  0  0  0  0  0  0  0  0  0
   10.3652   -4.1241   15.3448 He  0  0  0  0  0  0  0  0  0  0  0  0
   10.8509   -2.4607   22.3792 He  0  0  0  0  0  0  0  0  0  0  0  0
   10.4095   -1.7846   22.9148 He  0  0  0  0  0  0  0  0  0  0  0  0
   11.4204   -3.6030   24.8962 He  0  0  0  0  0  0  0  0  0  0  0  0
    6.5856   -7.6874   17.7455 He  0  0  0  0  0  0  0  0  0  0  0  0
    6.4743   -7.1200   16.6614 He  0  0  0  0  0  0  0  0  0  0  0  0
    8.2309   -5.6622   16.1216 He  0  0  0  0  0  0  0  0  0  0  0  0
    7.5485   -5.8219   16.9173 He  0  0  0  0  0  0  0  0  0  0  0  0
    9.6963   -1.2665   24.1080 He  0  0  0  0  0  0  0  0  0  0  0  0
   10.1239   -2.8834   17.5941 He  0  0  0  0  0  0  0  0  0  0  0  0
    9.0493   -4.6123   14.8400 He  0  0  0  0  0  0  0  0  0  0  0  0
  1  3  1  0
  1  4  3  0
  1  5  3  0
  1  6  4  0
  1  7  4  0
  1 10  4  0
  2  3  1  0
  2  7  2  0
  2  9  1  0
  2 12  4  0
  2 14  2  0
  3  8  3  0
  3 12  2  0
  5  7  3  0
  5  8  2  0
  5 10  2  0
  6  7  1  0
  6 10  2  0
  6 11  1  0
  6 12  2  0
  7  9  3  0
  8 10  1  0
  8 11  4  0
  8 13  4  0
 10 12  1  0
 10 14  2  0
 11 13  2  0
 13 14  3  0
M  END
$$$$

 Created by Python create_sdf_string function

 26 21  0  0  0  0  0  0  0  0999 V2000
   10.9014   -3.5456   21.1161 C   0  0  0  0  0  0  0  0  0  0  0  0
    7.8320   -8.3237   15.2854 C   0  0  0  0  0  0  0  0  0  0  0  0
   11.0492   -3.0912   17.7811 N   0  0  0  0  0  0  0  0  0  0  0  0
    9.8789   -2.3800   24.9932 C   0  0  0  0  0  0  0  0  0  0  0  0
    6.4728   -7.6793   17.3944 C   0  0  0  0  0  0  0  0  0  0  0  0
    8.4539   -6.8584   15.1821 C   0  0  0  0  0  0  0  0  0  0  0  0
   10.2236   -3.9628   15.9610 N   0  0  0  0  0  0  0  0  0  0  0  0
   10.7298   -3.0388   22.5378 C   0  0  0  0  0  0  0  0  0  0  0  0
    7.0623   -8.1129   16.2498 C   0  0  0  0  0  0  0  0  0  0  0  0
   10.2907   -1.9513   22.9067 C   0  0  0  0  0  0  0  0  0  0  0  0
   10.4866   -3.5492   24.8172 C   0  0  0  0  0  0  0  0  0  0  0  0
   11.0798   -2.8896   19.9703 N   0  0  0  0  0  0  0  0  0  0  0  0
    6.1867   -7.7219   17.9126 C   0  0  0  0  0  0  0  0  0  0  0  0
   10.6204   -4.8434   20.8985 C   0  0  0  0  0  0  0  0  0  0  0  0
    5.2701   -8.9501   16.9463 C   0  0  0  0  0  0  0  0  0  0  0  0
    7.0385   -7.3822   16.6167 C   0  0  0  0  0  0  0  0  0  0  0  0
    8.7733   -5.4977   16.4057 C   0  0  0  0  0  0  0  0  0  0  0  0
    5.1962   -8.6213   17.4014 C   0  0  0  0  0  0  0  0  0  0  0  0
   10.0446   -5.0354   19.3937 C   0  0  0  0  0  0  0  0  0  0  0  0
    8.3343   -6.0849   16.9439 C   0  0  0  0  0  0  0  0  0  0  0  0
    9.7737   -1.5178   24.0237 C   0  0  0  0  0  0  0  0  0  0  0  0
   10.7254   -3.5919   18.3766 C   0  0  0  0  0  0  0  0  0  0  0  0
   10.6291   -3.6307   17.4302 C   0  0  0  0  0  0  0  0  0  0  0  0
    9.5115   -5.2792   18.6498 N   0  0  0  0  0  0  0  0  0  0  0  0
   10.9089   -3.8597   23.5872 N   0  0  0  0  0  0  0  0  0  0  0  0
    9.3411   -4.5706   15.8929 C   0  0  0  0  0  0  0  0  0  0  0  0
  1  8  1  0
  1 12  4  0
  1 14  4  0
  2  9  4  0
  3 22  4  0
  3 23  4  0
  4 11  4  0
  4 21  4  0
  5 13  4  0
  7 26  4  0
  8 10  4  0
  8 25  4  0
  9 16  4  0
 10 21  4  0
 11 25  4  0
 12 22  4  0
 13 18  4  0
 14 19  4  0
 15 18  4  0
 17 20  4  0
 19 24  4  0
M  END
$$$$

 Created by Python create_sdf_string function

 26 76  0  0  0  0  0  0  0  0999 V2000
   10.8493   -3.6326   21.1561 C   0  0  0  0  0  0  0  0  0  0  0  0
    8.2000   -9.7176   15.6477 O   0  0  0  0  0  0  0  0  0  0  0  0
   10.9976   -3.5442   16.9725 O   0  0  0  0  0  0  0  0  0  0  0  0
   10.0154   -1.9720   25.2150 C   0  0  0  0  0  0  0  0  0  0  0  0
   10.4380   -2.4173   15.1168 O   0  0  0  0  0  0  0  0  0  0  0  0
   10.6771   -3.1763   22.6075 C   0  0  0  0  0  0  0  0  0  0  0  0
    7.6438   -8.9013   17.6586 Cl  0  0  0  0  0  0  0  0  0  0  0  0
   10.6378   -2.2544   22.4081 C   0  0  0  0  0  0  0  0  0  0  0  0
    9.9465   -3.9053   24.2681 C   0  0  0  0  0  0  0  0  0  0  0  0
   10.8002   -2.4118   19.7385 N   0  0  0  0  0  0  0  0  0  0  0  0
    6.1868   -7.0671   18.2182 N   0  0  0  0  0  0  0  0  0  0  0  0
   10.5917   -4.7877   21.1434 C   0  0  0  0  0  0  0  0  0  0  0  0
    9.5531   -6.0702   16.3612 O   0  0  0  0  0  0  0  0  0  0  0  0
    5.6200   -8.4598   17.9056 C   0  0  0  0  0  0  0  0  0  0  0  0
   10.2033   -4.9188   19.2447 N   0  0  0  0  0  0  0  0  0  0  0  0
    9.4538   -1.6863   24.1032 C   0  0  0  0  0  0  0  0  0  0  0  0
   10.7632   -3.0212   17.7020 S   0  0  0  0  0  0  0  0  0  0  0  0
   10.9120   -4.0302   17.6393 C   0  0  0  0  0  0  0  0  0  0  0  0
    9.1215   -5.4923   18.5723 N   0  0  0  0  0  0  0  0  0  0  0  0
   11.7085   -3.5439   23.2660 N   0  0  0  0  0  0  0  0  0  0  0  0
   10.4475   -3.5715   15.0641 C   0  0  0  0  0  0  0  0  0  0  0  0
    5.4173   -8.5944   15.5106 He  0  0  0  0  0  0  0  0  0  0  0  0
    8.7258   -5.1417   14.3117 He  0  0  0  0  0  0  0  0  0  0  0  0
    5.8676   -9.8174   18.3069 He  0  0  0  0  0  0  0  0  0  0  0  0
    7.5722   -7.9547   15.9818 He  0  0  0  0  0  0  0  0  0  0  0  0
    9.4781   -4.6068   14.5080 He  0  0  0  0  0  0  0  0  0  0  0  0
  1  2  1  0
  1  3  3  0
  1  6  1  0
  1 10  4  0
  1 12  4  0
  1 19  4  0
  1 20  4  0
  2  3  2  0
  2  4  1  0
  2  7  4  0
  2  8  3  0
  2 13  2  0
  2 14  1  0
  2 15  3  0
  2 19  1  0
  2 21  3  0
  3  5  2  0
  3 12  1  0
  3 14  1  0
  3 18  4  0
  3 21  1  0
  4  5  3  0
  4  7  3  0
  4  9  4  0
  4 16  4  0
  4 17  3  0
  4 20  1  0
  4 21  2  0
  5  7  2  0
  5  9  3  0
  5 11  2  0
  5 13  4  0
  5 21  3  0
  6  8  4  0
  6 11  4  0
  6 13  2  0
  6 20  4  0
  6 21  3  0
  7  8  1  0
  7 12  2  0
  7 17  3  0
  7 19  4  0
  7 21  4  0
  8 10  1  0
  8 11  1  0
  8 16  4  0
  8 18  2  0
  9 11  4  0
  9 13  1  0
  9 17  2  0
  9 18  1  0
  9 20  4  0
 10 11  1  0
 10 15  3  0
 10 21  3  0
 11 12  3  0
 11 13  3  0
 11 15  2  0
 11 19  1  0
 11 21  1  0
 12 14  1  0
 12 15  4  0
 12 16  4  0
 12 17  1  0
 12 21  1  0
 13 16  3  0
 13 18  1  0
 13 19  4  0
 13 21  1  0
 14 15  4  0
 14 16  1  0
 15 16  1  0
 15 19  4  0
 16 19  3  0
 17 20  2  0
 19 21  2  0
M  END
$$$$

 Created by Python create_sdf_string function

 26 22  0  0  0  0  0  0  0  0999 V2000
   10.7996   -3.5694   21.0482 C   0  0  0  0  0  0  0  0  0  0  0  0
    7.6676   -8.3441   15.8344 C   0  0  0  0  0  0  0  0  0  0  0  0
   10.9251   -3.5575   17.2647 C   0  0  0  0  0  0  0  0  0  0  0  0
    9.8938   -2.4716   24.9769 C   0  0  0  0  0  0  0  0  0  0  0  0
    6.0939   -8.6732   16.2401 C   0  0  0  0  0  0  0  0  0  0  0  0
    8.9348   -5.3675   15.8688 C   0  0  0  0  0  0  0  0  0  0  0  0
   10.8945   -3.4907   15.4766 C   0  0  0  0  0  0  0  0  0  0  0  0
   10.6740   -3.1505   22.4390 C   0  0  0  0  0  0  0  0  0  0  0  0
    7.7193   -7.7220   17.2036 C   0  0  0  0  0  0  0  0  0  0  0  0
   10.3062   -1.8749   22.7723 C   0  0  0  0  0  0  0  0  0  0  0  0
   10.4763   -3.6513   24.7202 C   0  0  0  0  0  0  0  0  0  0  0  0
   11.1342   -2.7908   20.0372 N   0  0  0  0  0  0  0  0  0  0  0  0
    6.6995   -7.5172   17.9647 C   0  0  0  0  0  0  0  0  0  0  0  0
   10.4919   -4.8545   20.6552 C   0  0  0  0  0  0  0  0  0  0  0  0
    5.6258   -8.7961   17.8463 C   0  0  0  0  0  0  0  0  0  0  0  0
    7.7432   -7.6997   16.2700 C   0  0  0  0  0  0  0  0  0  0  0  0
    9.1596   -5.8377   17.1411 C   0  0  0  0  0  0  0  0  0  0  0  0
    5.6796   -8.5088   17.4875 C   0  0  0  0  0  0  0  0  0  0  0  0
   10.0984   -5.0420   19.2813 N   0  0  0  0  0  0  0  0  0  0  0  0
    9.3799   -4.8338   15.8664 C   0  0  0  0  0  0  0  0  0  0  0  0
    9.8658   -1.5215   23.9752 C   0  0  0  0  0  0  0  0  0  0  0  0
   10.8339   -3.2908   18.4507 C   0  0  0  0  0  0  0  0  0  0  0  0
   10.6028   -3.8795   18.1371 C   0  0  0  0  0  0  0  0  0  0  0  0
    9.4255   -5.9162   18.4179 N   0  0  0  0  0  0  0  0  0  0  0  0
   10.8265   -4.0430   23.4911 N   0  0  0  0  0  0  0  0  0  0  0  0
   10.4924   -3.8262   15.7924 C   0  0  0  0  0  0  0  0  0  0  0  0
  1  8  1  0
  1 12  4  0
  1 14  4  0
  3 23  4  0
  4 11  4  0
  4 21  4  0
  5 18  4  0
  6 20  4  0
  7 26  4  0
  8 10  4  0
  8 25  4  0
  9 13  4  0
 10 21  4  0
 11 25  4  0
 12 22  4  0
 14 19  4  0
 15 18  4  0
 17 24  4  0
 19 23  4  0
 19 24  4  0
 20 26  4  0
 22 23  4  0
M  END
$$$$

 Created by Python create_sdf_string function

 26 38  0  0  0  0  0  0  0  0999 V2000
   10.8304   -3.7649   21.6339 C   0  0  0  0  0  0  0  0  0  0  0  0
   10.6815   -4.3042   17.3300 C   0  0  0  0  0  0  0  0  0  0  0  0
    9.3949   -2.5145   25.5624 C   0  0  0  0  0  0  0  0  0  0  0  0
    8.1957   -5.2473   14.2542 C   0  0  0  0  0  0  0  0  0  0  0  0
   10.0839   -3.1339   24.8346 C   0  0  0  0  0  0  0  0  0  0  0  0
    8.2449   -7.5186   16.9356 O   0  0  0  0  0  0  0  0  0  0  0  0
   10.7904   -4.7007   20.5246 C   0  0  0  0  0  0  0  0  0  0  0  0
    5.2912   -7.7670   15.4147 C   0  0  0  0  0  0  0  0  0  0  0  0
    8.5921   -8.2671   17.9107 C   0  0  0  0  0  0  0  0  0  0  0  0
    7.0673   -7.5604   18.0069 S   0  0  0  0  0  0  0  0  0  0  0  0
   10.4607   -5.1342   18.9527 N   0  0  0  0  0  0  0  0  0  0  0  0
    7.6477   -4.8532   16.4615 N   0  0  0  0  0  0  0  0  0  0  0  0
   10.2013   -1.8593   23.6920 C   0  0  0  0  0  0  0  0  0  0  0  0
   10.1271   -4.3588   18.3459 C   0  0  0  0  0  0  0  0  0  0  0  0
   10.8223   -3.9201   23.2913 F   0  0  0  0  0  0  0  0  0  0  0  0
   10.1581   -6.0034   16.3591 O   0  0  0  0  0  0  0  0  0  0  0  0
    5.8141   -8.7262   16.2077 He  0  0  0  0  0  0  0  0  0  0  0  0
    5.7953   -8.2386   16.1823 He  0  0  0  0  0  0  0  0  0  0  0  0
   10.6960   -3.3778   16.4212 He  0  0  0  0  0  0  0  0  0  0  0  0
   10.0679   -3.2863   22.1328 He  0  0  0  0  0  0  0  0  0  0  0  0
    7.8943   -8.1993   17.6035 He  0  0  0  0  0  0  0  0  0  0  0  0
   10.3132   -1.9362   22.5510 He  0  0  0  0  0  0  0  0  0  0  0  0
   11.1116   -2.2190   19.9441 He  0  0  0  0  0  0  0  0  0  0  0  0
    9.7488   -5.1951   18.2664 He  0  0  0  0  0  0  0  0  0  0  0  0
   10.6591   -2.4156   17.3481 He  0  0  0  0  0  0  0  0  0  0  0  0
    9.3417   -6.4409   18.6175 He  0  0  0  0  0  0  0  0  0  0  0  0
  1  4  2  0
  1  6  1  0
  1  7  4  0
  2  6  2  0
  2 14  4  0
  3  5  4  0
  3  6  2  0
  3 10  2  0
  3 16  2  0
  4  5  2  0
  4  6  4  0
  4  7  1  0
  4 12  2  0
  4 14  1  0
  5  8  1  0
  5 10  4  0
  5 14  1  0
  5 15  4  0
  6  8  3  0
  6 11  2  0
  7 10  1  0
  7 11  2  0
  7 16  2  0
  8  9  2  0
  8 10  1  0
  8 12  1  0
  8 13  3  0
  8 14  1  0
  8 16  1  0
  9 12  4  0
  9 13  4  0
  9 14  4  0
 10 15  3  0
 10 16  1  0
 11 14  4  0
 12 13  4  0
 12 16  4  0
 14 16  3  0
M  END
$$$$

 Created by Python create_sdf_string function

 26 21  0  0  0  0  0  0  0  0999 V2000
   10.7662   -3.7024   21.1200 C   0  0  0  0  0  0  0  0  0  0  0  0
    5.9677   -8.4831   16.3290 C   0  0  0  0  0  0  0  0  0  0  0  0
   10.6535   -3.8835   17.2234 C   0  0  0  0  0  0  0  0  0  0  0  0
    9.7605   -2.3612   25.0283 C   0  0  0  0  0  0  0  0  0  0  0  0
    6.0814   -8.2891   16.3615 C   0  0  0  0  0  0  0  0  0  0  0  0
    7.5708   -5.9953   15.5287 C   0  0  0  0  0  0  0  0  0  0  0  0
   10.8384   -3.6216   16.2599 C   0  0  0  0  0  0  0  0  0  0  0  0
   10.5566   -3.2439   22.4454 C   0  0  0  0  0  0  0  0  0  0  0  0
    7.7178   -8.0786   17.4808 C   0  0  0  0  0  0  0  0  0  0  0  0
   10.3544   -1.9333   22.7944 N   0  0  0  0  0  0  0  0  0  0  0  0
   10.0778   -3.5956   24.8025 C   0  0  0  0  0  0  0  0  0  0  0  0
   11.1080   -2.7743   20.0429 N   0  0  0  0  0  0  0  0  0  0  0  0
    7.9980   -7.1911   16.4440 C   0  0  0  0  0  0  0  0  0  0  0  0
   10.5419   -4.9839   20.7815 C   0  0  0  0  0  0  0  0  0  0  0  0
    5.8910   -7.8176   15.9149 C   0  0  0  0  0  0  0  0  0  0  0  0
    8.3854   -8.0200   17.5229 C   0  0  0  0  0  0  0  0  0  0  0  0
    9.6420   -5.7365   17.7406 C   0  0  0  0  0  0  0  0  0  0  0  0
    6.7212   -7.9667   17.7289 C   0  0  0  0  0  0  0  0  0  0  0  0
   10.3000   -5.2561   19.2933 N   0  0  0  0  0  0  0  0  0  0  0  0
    8.2344   -5.5893   15.9573 C   0  0  0  0  0  0  0  0  0  0  0  0
    9.9219   -1.5023   23.9375 C   0  0  0  0  0  0  0  0  0  0  0  0
   11.0371   -2.8566   18.0770 N   0  0  0  0  0  0  0  0  0  0  0  0
   10.5113   -4.4731   18.3342 C   0  0  0  0  0  0  0  0  0  0  0  0
    9.5017   -6.7015   18.5665 N   0  0  0  0  0  0  0  0  0  0  0  0
   10.4829   -4.0365   23.5688 C   0  0  0  0  0  0  0  0  0  0  0  0
    9.3034   -5.7640   16.7645 C   0  0  0  0  0  0  0  0  0  0  0  0
  1  8  1  0
  1 12  4  0
  1 14  4  0
  3  7  4  0
  3 23  4  0
  4 11  4  0
  4 21  4  0
  6 20  2  0
  8 10  4  0
  8 25  4  0
  9 16  1  0
  9 18  1  0
 10 21  4  0
 11 25  4  0
 12 22  4  0
 14 19  4  0
 17 23  4  0
 17 26  4  0
 19 23  4  0
 19 24  4  0
 20 26  4  0
M  END
$$$$

 Created by Python create_sdf_string function

 26 51  0  0  0  0  0  0  0  0999 V2000
   10.6503   -4.0836   21.5162 N   0  0  0  0  0  0  0  0  0  0  0  0
    6.7871   -8.2087   15.5018 O   0  0  0  0  0  0  0  0  0  0  0  0
   10.7848   -3.5337   17.3194 C   0  0  0  0  0  0  0  0  0  0  0  0
    9.9500   -3.6807   24.7939 C   0  0  0  0  0  0  0  0  0  0  0  0
    6.7496   -5.9058   14.5335 C   0  0  0  0  0  0  0  0  0  0  0  0
    8.9520   -3.2512   14.9267 C   0  0  0  0  0  0  0  0  0  0  0  0
   10.6099   -3.5934   22.7230 F   0  0  0  0  0  0  0  0  0  0  0  0
    6.3768   -6.9125   18.7509 B   0  0  0  0  0  0  0  0  0  0  0  0
   10.2510   -1.6616   23.2222 N   0  0  0  0  0  0  0  0  0  0  0  0
   10.2554   -4.1290   25.2269 P   0  0  0  0  0  0  0  0  0  0  0  0
   11.3610   -2.5138   19.5142 N   0  0  0  0  0  0  0  0  0  0  0  0
   11.1912   -4.7451   20.7974 C   0  0  0  0  0  0  0  0  0  0  0  0
    7.9735   -8.2867   16.1086 Cl  0  0  0  0  0  0  0  0  0  0  0  0
   10.2643   -5.4063   18.5977 Br  0  0  0  0  0  0  0  0  0  0  0  0
    8.9005   -5.0320   16.2791 F   0  0  0  0  0  0  0  0  0  0  0  0
   10.1263   -1.5687   23.8256 C   0  0  0  0  0  0  0  0  0  0  0  0
   13.0372   -2.5063   18.1119 F   0  0  0  0  0  0  0  0  0  0  0  0
   10.8801   -4.0749   18.6146 C   0  0  0  0  0  0  0  0  0  0  0  0
    5.0989   -8.4230   16.5550 He  0  0  0  0  0  0  0  0  0  0  0  0
    7.1054   -6.6815   15.4774 He  0  0  0  0  0  0  0  0  0  0  0  0
    6.8859   -8.3468   15.1317 He  0  0  0  0  0  0  0  0  0  0  0  0
    7.9656   -8.6055   16.4280 He  0  0  0  0  0  0  0  0  0  0  0  0
    9.5804   -6.9148   18.3753 He  0  0  0  0  0  0  0  0  0  0  0  0
    9.0948   -7.1334   18.2463 He  0  0  0  0  0  0  0  0  0  0  0  0
   10.3959   -4.4548   23.1882 He  0  0  0  0  0  0  0  0  0  0  0  0
    9.5053   -5.6311   17.1605 He  0  0  0  0  0  0  0  0  0  0  0  0
  1  2  4  0
  1  3  3  0
  1  5  2  0
  1  7  1  0
  1 11  4  0
  1 12  4  0
  1 17  1  0
  2  3  1  0
  2  4  2  0
  2  5  2  0
  2  9  2  0
  2 16  2  0
  2 17  4  0
  2 18  4  0
  3  5  2  0
  3  9  1  0
  3 14  4  0
  3 17  4  0
  3 18  2  0
  4  5  1  0
  4  6  2  0
  4 10  4  0
  4 13  4  0
  4 16  1  0
  5  6  3  0
  5 16  4  0
  5 18  2  0
  6  7  1  0
  6 10  3  0
  6 12  3  0
  6 13  2  0
  6 15  2  0
  6 16  3  0
  6 17  1  0
  7 15  3  0
  8  9  2  0
  8 15  2  0
  9 16  4  0
 10 12  2  0
 11 12  3  0
 11 18  4  0
 12 14  3  0
 12 15  3  0
 13 16  3  0
 13 17  2  0
 14 18  4  0
 15 16  1  0
 15 17  3  0
 15 18  1  0
 16 17  2  0
 17 18  4  0
M  END
$$$$

 Created by Python create_sdf_string function

 26 20  0  0  0  0  0  0  0  0999 V2000
   10.8424   -3.8423   21.1992 C   0  0  0  0  0  0  0  0  0  0  0  0
    6.5578   -8.1759   15.7078 C   0  0  0  0  0  0  0  0  0  0  0  0
   10.6891   -3.4895   17.0058 C   0  0  0  0  0  0  0  0  0  0  0  0
    9.9303   -2.9272   25.1099 C   0  0  0  0  0  0  0  0  0  0  0  0
    5.5053   -8.1348   16.7831 C   0  0  0  0  0  0  0  0  0  0  0  0
    7.0973   -6.3893   15.3805 C   0  0  0  0  0  0  0  0  0  0  0  0
    9.4176   -3.9689   15.9006 C   0  0  0  0  0  0  0  0  0  0  0  0
   10.6070   -3.4565   22.5916 C   0  0  0  0  0  0  0  0  0  0  0  0
    6.8114   -7.5776   18.0140 C   0  0  0  0  0  0  0  0  0  0  0  0
   10.3201   -2.1228   22.8896 N   0  0  0  0  0  0  0  0  0  0  0  0
   10.2723   -4.0897   24.9025 C   0  0  0  0  0  0  0  0  0  0  0  0
   11.1645   -3.0254   19.9188 N   0  0  0  0  0  0  0  0  0  0  0  0
    7.4049   -6.7800   15.8731 C   0  0  0  0  0  0  0  0  0  0  0  0
   10.7520   -5.0359   20.6927 C   0  0  0  0  0  0  0  0  0  0  0  0
    6.6546   -8.3421   15.6494 C   0  0  0  0  0  0  0  0  0  0  0  0
    7.9407   -8.1656   16.9690 C   0  0  0  0  0  0  0  0  0  0  0  0
    9.3283   -6.6284   18.1358 C   0  0  0  0  0  0  0  0  0  0  0  0
    8.1020   -8.3985   16.3866 C   0  0  0  0  0  0  0  0  0  0  0  0
   10.3696   -5.1260   18.9676 C   0  0  0  0  0  0  0  0  0  0  0  0
    9.0736   -5.2345   16.5236 C   0  0  0  0  0  0  0  0  0  0  0  0
    9.9254   -1.8731   24.1794 C   0  0  0  0  0  0  0  0  0  0  0  0
   11.1529   -2.9561   18.0435 C   0  0  0  0  0  0  0  0  0  0  0  0
   10.8443   -3.9265   18.8604 C   0  0  0  0  0  0  0  0  0  0  0  0
    9.0458   -7.1073   18.1435 C   0  0  0  0  0  0  0  0  0  0  0  0
   10.6644   -4.3963   23.5368 C   0  0  0  0  0  0  0  0  0  0  0  0
    9.4667   -5.3357   17.2117 C   0  0  0  0  0  0  0  0  0  0  0  0
  1  8  1  0
  1 12  4  0
  1 14  4  0
  2 15  1  0
  3 22  4  0
  4 11  4  0
  4 21  4  0
  6 13  1  0
  8 10  4  0
  8 25  4  0
  9 16  1  0
 10 21  4  0
 11 25  4  0
 12 22  4  0
 12 23  4  0
 14 19  4  0
 16 18  1  0
 17 24  4  0
 19 23  4  0
 20 26  4  0
M  END
$$$$

 Created by Python create_sdf_string function

 26 62  0  0  0  0  0  0  0  0999 V2000
   10.9648   -3.6976   21.3299 I   0  0  0  0  0  0  0  0  0  0  0  0
    6.2953   -8.2401   14.6523 C   0  0  0  0  0  0  0  0  0  0  0  0
   11.1122   -3.0888   17.2284 C   0  0  0  0  0  0  0  0  0  0  0  0
    9.5389   -2.7340   24.8630 C   0  0  0  0  0  0  0  0  0  0  0  0
    5.4358   -8.8434   14.8249 C   0  0  0  0  0  0  0  0  0  0  0  0
    6.5863   -5.7144   15.4760 C   0  0  0  0  0  0  0  0  0  0  0  0
   10.7825   -3.1128   22.2320 C   0  0  0  0  0  0  0  0  0  0  0  0
   10.9221   -1.9634   23.4229 N   0  0  0  0  0  0  0  0  0  0  0  0
    9.8721   -4.2790   25.0618 C   0  0  0  0  0  0  0  0  0  0  0  0
   10.9649   -3.3032   19.9298 N   0  0  0  0  0  0  0  0  0  0  0  0
   10.9393   -5.1756   21.1261 C   0  0  0  0  0  0  0  0  0  0  0  0
    7.9263   -9.3273   14.9235 F   0  0  0  0  0  0  0  0  0  0  0  0
    7.9696   -6.7115   15.7863 C   0  0  0  0  0  0  0  0  0  0  0  0
   10.7249   -7.3092   18.5745 C   0  0  0  0  0  0  0  0  0  0  0  0
    8.1081   -8.5274   16.1017 O   0  0  0  0  0  0  0  0  0  0  0  0
    8.6935   -5.3426   17.2479 C   0  0  0  0  0  0  0  0  0  0  0  0
    9.8715   -1.5540   24.0270 C   0  0  0  0  0  0  0  0  0  0  0  0
   10.6612   -3.9113   19.1023 C   0  0  0  0  0  0  0  0  0  0  0  0
   10.5222   -4.7263   23.1874 C   0  0  0  0  0  0  0  0  0  0  0  0
    9.2557   -5.3826   16.9842 He  0  0  0  0  0  0  0  0  0  0  0  0
    5.4607   -8.2329   17.2602 He  0  0  0  0  0  0  0  0  0  0  0  0
    6.4457   -7.5543   16.1392 He  0  0  0  0  0  0  0  0  0  0  0  0
   10.6093   -4.5586   18.9982 He  0  0  0  0  0  0  0  0  0  0  0  0
   11.4246   -3.5315   17.8355 He  0  0  0  0  0  0  0  0  0  0  0  0
    9.4462   -6.5855   17.5378 He  0  0  0  0  0  0  0  0  0  0  0  0
   11.6352   -5.7317   16.8169 He  0  0  0  0  0  0  0  0  0  0  0  0
  1  2  3  0
  1  7  1  0
  1 10  4  0
  1 11  4  0
  1 12  4  0
  1 13  2  0
  1 19  2  0
  2  3  1  0
  2  5  1  0
  2  7  1  0
  2  8  1  0
  2 10  1  0
  2 12  4  0
  2 13  3  0
  2 16  3  0
  2 19  1  0
  3  5  3  0
  3 18  1  0
  4 12  4  0
  4 14  4  0
  4 17  4  0
  5  6  2  0
  5  8  1  0
  5  9  3  0
  5 12  2  0
  5 13  4  0
  5 14  1  0
  5 19  3  0
  6  7  1  0
  6 13  4  0
  6 18  4  0
  7  8  4  0
  7 14  2  0
  7 19  4  0
  8 10  1  0
  8 11  4  0
  8 13  4  0
  8 14  1  0
  8 15  3  0
  8 16  1  0
  8 17  4  0
  9 13  3  0
  9 15  2  0
  9 16  1  0
  9 17  1  0
  9 19  4  0
 10 12  3  0
 10 14  1  0
 10 15  2  0
 11 13  4  0
 11 16  2  0
 12 13  2  0
 12 16  3  0
 12 18  1  0
 12 19  1  0
 13 15  1  0
 13 19  3  0
 14 17  4  0
 14 19  2  0
 15 17  2  0
 16 18  1  0
 16 19  2  0
M  END
$$$$

 Created by Python create_sdf_string function

 26 23  0  0  0  0  0  0  0  0999 V2000
   10.8986   -3.7357   21.3394 C   0  0  0  0  0  0  0  0  0  0  0  0
    6.2656   -8.4881   15.6555 C   0  0  0  0  0  0  0  0  0  0  0  0
   11.2417   -2.9532   17.2484 C   0  0  0  0  0  0  0  0  0  0  0  0
    9.6601   -2.6576   25.0968 C   0  0  0  0  0  0  0  0  0  0  0  0
    5.5125   -8.9161   15.4486 C   0  0  0  0  0  0  0  0  0  0  0  0
    7.2321   -6.3112   15.9184 C   0  0  0  0  0  0  0  0  0  0  0  0
    9.5204   -4.9405   17.0069 C   0  0  0  0  0  0  0  0  0  0  0  0
   10.7120   -3.3338   22.6622 C   0  0  0  0  0  0  0  0  0  0  0  0
    5.7028   -7.9888   17.2161 C   0  0  0  0  0  0  0  0  0  0  0  0
   10.5242   -2.0058   22.9836 N   0  0  0  0  0  0  0  0  0  0  0  0
   10.0608   -3.9112   24.8873 C   0  0  0  0  0  0  0  0  0  0  0  0
   11.0392   -2.9335   20.2690 N   0  0  0  0  0  0  0  0  0  0  0  0
    6.4107   -7.6087   16.5274 C   0  0  0  0  0  0  0  0  0  0  0  0
   10.8194   -5.0638   20.8928 C   0  0  0  0  0  0  0  0  0  0  0  0
    7.5480   -8.7569   15.3432 C   0  0  0  0  0  0  0  0  0  0  0  0
    8.0889   -7.0276   16.4874 C   0  0  0  0  0  0  0  0  0  0  0  0
   10.0903   -6.8924   18.6671 C   0  0  0  0  0  0  0  0  0  0  0  0
    8.2318   -8.3845   16.4203 O   0  0  0  0  0  0  0  0  0  0  0  0
   10.6842   -4.9998   19.5497 C   0  0  0  0  0  0  0  0  0  0  0  0
    9.0157   -5.3009   16.8004 C   0  0  0  0  0  0  0  0  0  0  0  0
    9.9752   -1.6758   24.1879 C   0  0  0  0  0  0  0  0  0  0  0  0
   10.9921   -3.3922   18.0027 C   0  0  0  0  0  0  0  0  0  0  0  0
   10.8799   -3.7298   19.0810 C   0  0  0  0  0  0  0  0  0  0  0  0
    9.5203   -6.7887   17.7148 C   0  0  0  0  0  0  0  0  0  0  0  0
   10.6273   -4.2928   23.6835 C   0  0  0  0  0  0  0  0  0  0  0  0
   10.5332   -5.1873   17.3861 C   0  0  0  0  0  0  0  0  0  0  0  0
  1  8  1  0
  1 12  4  0
  1 14  4  0
  2  5  1  0
  2 15  4  0
  3 22  2  0
  4 11  4  0
  4 21  4  0
  6 16  4  0
  7 20  4  0
  7 26  4  0
  8 10  4  0
  8 25  4  0
  9 13  4  0
 10 21  4  0
 11 25  4  0
 12 23  4  0
 14 19  4  0
 15 18  4  0
 16 18  1  0
 17 24  1  0
 19 23  4  0
 22 23  4  0
M  END
$$$$

 Created by Python create_sdf_string function

 26 43  0  0  0  0  0  0  0  0999 V2000
   11.0489   -3.3657   20.7700 C   0  0  0  0  0  0  0  0  0  0  0  0
    7.0130   -8.3693   17.0997 C   0  0  0  0  0  0  0  0  0  0  0  0
   11.3443   -2.6519   17.7577 C   0  0  0  0  0  0  0  0  0  0  0  0
    9.7714   -2.0147   24.5416 C   0  0  0  0  0  0  0  0  0  0  0  0
    5.1064   -8.7936   14.9171 P   0  0  0  0  0  0  0  0  0  0  0  0
    7.7391   -4.3313   16.9488 S   0  0  0  0  0  0  0  0  0  0  0  0
   10.3787   -2.7330   22.2692 N   0  0  0  0  0  0  0  0  0  0  0  0
   10.2330   -2.0809   22.6997 N   0  0  0  0  0  0  0  0  0  0  0  0
   10.0224   -4.1815   25.2443 C   0  0  0  0  0  0  0  0  0  0  0  0
   10.9230   -3.2033   20.3957 Cl  0  0  0  0  0  0  0  0  0  0  0  0
    4.9761   -7.5826   17.0100 P   0  0  0  0  0  0  0  0  0  0  0  0
   10.6187   -5.0996   20.8234 C   0  0  0  0  0  0  0  0  0  0  0  0
    7.9830   -7.8524   16.1100 C   0  0  0  0  0  0  0  0  0  0  0  0
    8.1938   -5.5135   16.8439 O   0  0  0  0  0  0  0  0  0  0  0  0
   10.0422   -2.1200   23.9559 C   0  0  0  0  0  0  0  0  0  0  0  0
    8.9960   -2.5083   17.7142 F   0  0  0  0  0  0  0  0  0  0  0  0
    9.1232   -6.8991   17.8382 C   0  0  0  0  0  0  0  0  0  0  0  0
   10.6628   -6.2709   17.3025 P   0  0  0  0  0  0  0  0  0  0  0  0
    7.4446   -5.3359   17.8105 He  0  0  0  0  0  0  0  0  0  0  0  0
    5.3341   -8.3940   18.4488 He  0  0  0  0  0  0  0  0  0  0  0  0
    9.2050   -9.2530   16.3540 He  0  0  0  0  0  0  0  0  0  0  0  0
    9.0852   -7.1098   17.3265 He  0  0  0  0  0  0  0  0  0  0  0  0
    6.9737   -8.6818   16.9636 He  0  0  0  0  0  0  0  0  0  0  0  0
   11.0560   -5.1968   19.8517 He  0  0  0  0  0  0  0  0  0  0  0  0
   10.4983   -3.7420   19.2922 He  0  0  0  0  0  0  0  0  0  0  0  0
   10.3392   -4.2140   23.2953 He  0  0  0  0  0  0  0  0  0  0  0  0
  1  2  4  0
  1  4  3  0
  1  5  3  0
  1  7  1  0
  1 12  4  0
  1 14  3  0
  1 16  1  0
  2  6  2  0
  2  7  1  0
  2  8  2  0
  2  9  4  0
  2 10  4  0
  2 14  3  0
  2 15  1  0
  3  7  4  0
  3 16  1  0
  3 17  3  0
  3 18  2  0
  4  6  2  0
  4  9  2  0
  4 11  3  0
  4 12  2  0
  5  7  4  0
  5 12  2  0
  5 14  2  0
  5 18  3  0
  6 10  3  0
  6 11  2  0
  6 16  4  0
  7  8  4  0
  7 13  1  0
  7 18  2  0
  8 11  3  0
  8 12  1  0
 10 14  1  0
 11 14  4  0
 11 16  3  0
 12 14  1  0
 12 16  4  0
 12 18  1  0
 13 18  1  0
 14 18  3  0
 15 17  3  0
M  END
$$$$

 Created by Python create_sdf_string function

 26 18  0  0  0  0  0  0  0  0999 V2000
   10.8467   -3.7682   21.2530 C   0  0  0  0  0  0  0  0  0  0  0  0
    6.9087   -8.0906   17.3618 C   0  0  0  0  0  0  0  0  0  0  0  0
   10.9229   -2.9928   17.3431 C   0  0  0  0  0  0  0  0  0  0  0  0
    9.7650   -2.3959   25.0022 C   0  0  0  0  0  0  0  0  0  0  0  0
    5.3931   -8.5247   16.0550 C   0  0  0  0  0  0  0  0  0  0  0  0
    9.1572   -4.5173   16.6156 C   0  0  0  0  0  0  0  0  0  0  0  0
    8.3902   -5.6884   17.1369 C   0  0  0  0  0  0  0  0  0  0  0  0
   10.6124   -3.2453   22.5802 C   0  0  0  0  0  0  0  0  0  0  0  0
    5.5815   -8.1922   17.8095 C   0  0  0  0  0  0  0  0  0  0  0  0
   10.2943   -1.9755   22.7980 N   0  0  0  0  0  0  0  0  0  0  0  0
   10.1805   -3.6428   24.9035 C   0  0  0  0  0  0  0  0  0  0  0  0
   10.8860   -3.0787   20.0296 N   0  0  0  0  0  0  0  0  0  0  0  0
    5.1583   -8.0129   17.0547 C   0  0  0  0  0  0  0  0  0  0  0  0
   10.9241   -5.1058   20.9657 C   0  0  0  0  0  0  0  0  0  0  0  0
    8.7488   -8.5388   16.3605 C   0  0  0  0  0  0  0  0  0  0  0  0
    7.7154   -8.0188   16.2112 C   0  0  0  0  0  0  0  0  0  0  0  0
    9.0465   -7.0893   17.5109 C   0  0  0  0  0  0  0  0  0  0  0  0
    6.6930   -8.4509   16.5161 C   0  0  0  0  0  0  0  0  0  0  0  0
   10.6935   -5.5063   19.5148 C   0  0  0  0  0  0  0  0  0  0  0  0
    8.5050   -5.6310   16.6202 O   0  0  0  0  0  0  0  0  0  0  0  0
    9.8206   -1.5654   24.0124 C   0  0  0  0  0  0  0  0  0  0  0  0
   10.1991   -3.5508   17.3434 C   0  0  0  0  0  0  0  0  0  0  0  0
   10.7409   -3.6800   18.8829 C   0  0  0  0  0  0  0  0  0  0  0  0
    9.4354   -7.0397   17.8080 C   0  0  0  0  0  0  0  0  0  0  0  0
   10.6253   -4.0877   23.6539 C   0  0  0  0  0  0  0  0  0  0  0  0
   10.0883   -5.7757   18.3107 C   0  0  0  0  0  0  0  0  0  0  0  0
  1  8  1  0
  1 12  4  0
  1 14  4  0
  3 22  1  0
  4 11  4  0
  4 21  4  0
  5 13  4  0
  5 18  4  0
  6 22  4  0
  8 10  4  0
  8 25  4  0
  9 13  4  0
 10 21  4  0
 11 25  4  0
 12 23  4  0
 14 19  4  0
 17 24  1  0
 19 26  4  0
M  END
$$$$

 Created by Python create_sdf_string function

 26 39  0  0  0  0  0  0  0  0999 V2000
    6.6304   -6.6246   17.8948 N   0  0  0  0  0  0  0  0  0  0  0  0
   10.5439   -2.6166   17.4864 F   0  0  0  0  0  0  0  0  0  0  0  0
    5.7118   -9.6194   16.1340 C   0  0  0  0  0  0  0  0  0  0  0  0
    9.4702   -4.2841   14.8373 Br  0  0  0  0  0  0  0  0  0  0  0  0
   10.7529   -3.2163   22.0018 C   0  0  0  0  0  0  0  0  0  0  0  0
   10.7342   -1.8719   22.6343 N   0  0  0  0  0  0  0  0  0  0  0  0
   10.3156   -3.8767   25.5710 C   0  0  0  0  0  0  0  0  0  0  0  0
   10.8097   -3.4253   19.7116 N   0  0  0  0  0  0  0  0  0  0  0  0
   10.4514   -5.3542   20.5954 C   0  0  0  0  0  0  0  0  0  0  0  0
    8.3173   -7.2302   17.4468 O   0  0  0  0  0  0  0  0  0  0  0  0
   10.8473   -5.1606   19.5572 C   0  0  0  0  0  0  0  0  0  0  0  0
    8.7191   -6.1767   16.4004 Br  0  0  0  0  0  0  0  0  0  0  0  0
    9.9091   -1.7630   24.0021 C   0  0  0  0  0  0  0  0  0  0  0  0
   10.6767   -3.3423   18.9426 Br  0  0  0  0  0  0  0  0  0  0  0  0
    9.6745   -7.1436   17.7577 C   0  0  0  0  0  0  0  0  0  0  0  0
   10.8231   -3.9055   23.7295 C   0  0  0  0  0  0  0  0  0  0  0  0
    9.1272   -6.1636   17.3612 C   0  0  0  0  0  0  0  0  0  0  0  0
   10.2346   -4.0118   21.3168 He  0  0  0  0  0  0  0  0  0  0  0  0
   10.0026   -2.1136   24.8504 He  0  0  0  0  0  0  0  0  0  0  0  0
    8.6596   -5.0865   17.2171 He  0  0  0  0  0  0  0  0  0  0  0  0
    6.3278   -8.3706   19.0944 He  0  0  0  0  0  0  0  0  0  0  0  0
    3.9341   -7.4807   17.7787 He  0  0  0  0  0  0  0  0  0  0  0  0
    8.5854   -7.6225   15.7538 He  0  0  0  0  0  0  0  0  0  0  0  0
    9.6511   -8.4449   17.1831 He  0  0  0  0  0  0  0  0  0  0  0  0
    5.8047   -9.7363   16.4415 He  0  0  0  0  0  0  0  0  0  0  0  0
   11.7124   -2.2521   17.4021 He  0  0  0  0  0  0  0  0  0  0  0  0
  1  3  1  0
  1  5  2  0
  1  7  3  0
  1 11  1  0
  1 12  2  0
  1 13  4  0
  2 10  4  0
  2 12  2  0
  3  5  3  0
  3 15  3  0
  4  5  1  0
  4  6  2  0
  4  8  2  0
  4  9  3  0
  4 10  2  0
  4 11  4  0
  4 14  3  0
  4 15  3  0
  5  6  2  0
  5 17  2  0
  6 10  2  0
  6 13  4  0
  6 15  4  0
  7 10  4  0
  7 15  3  0
  8  9  2  0
  8 10  1  0
  8 14  1  0
  8 15  1  0
  9 10  1  0
  9 11  4  0
 10 11  1  0
 10 12  2  0
 11 12  1  0
 12 14  3  0
 12 16  1  0
 12 17  1  0
 14 15  3  0
 16 17  1  0
M  END
$$$$

 Created by Python create_sdf_string function

 26 15  0  0  0  0  0  0  0  0999 V2000
   10.6940   -3.8654   21.1877 C   0  0  0  0  0  0  0  0  0  0  0  0
    6.5984   -7.4422   17.7078 C   0  0  0  0  0  0  0  0  0  0  0  0
   10.6628   -3.1782   17.2265 C   0  0  0  0  0  0  0  0  0  0  0  0
    9.9597   -2.2575   25.0514 C   0  0  0  0  0  0  0  0  0  0  0  0
    6.0951   -8.7563   16.2691 C   0  0  0  0  0  0  0  0  0  0  0  0
    9.5887   -4.1305   16.0849 C   0  0  0  0  0  0  0  0  0  0  0  0
    9.8286   -4.9708   17.6093 C   0  0  0  0  0  0  0  0  0  0  0  0
   10.6105   -3.2932   22.4876 C   0  0  0  0  0  0  0  0  0  0  0  0
    6.1059   -8.1930   18.1334 C   0  0  0  0  0  0  0  0  0  0  0  0
   10.3726   -2.0312   22.6678 N   0  0  0  0  0  0  0  0  0  0  0  0
   10.3581   -3.5505   24.9732 C   0  0  0  0  0  0  0  0  0  0  0  0
   10.7862   -3.1363   19.9968 N   0  0  0  0  0  0  0  0  0  0  0  0
    4.8561   -8.3506   17.3080 C   0  0  0  0  0  0  0  0  0  0  0  0
   10.5925   -5.1735   20.9144 C   0  0  0  0  0  0  0  0  0  0  0  0
    8.0314   -7.8309   15.8760 C   0  0  0  0  0  0  0  0  0  0  0  0
    8.0709   -7.4791   17.1198 C   0  0  0  0  0  0  0  0  0  0  0  0
    8.8184   -7.9791   17.3660 C   0  0  0  0  0  0  0  0  0  0  0  0
    5.8901   -8.9646   16.3598 C   0  0  0  0  0  0  0  0  0  0  0  0
   10.3969   -5.6003   19.6626 C   0  0  0  0  0  0  0  0  0  0  0  0
    8.7193   -6.1460   16.4479 C   0  0  0  0  0  0  0  0  0  0  0  0
   10.0402   -1.5138   23.8986 C   0  0  0  0  0  0  0  0  0  0  0  0
   10.8420   -2.9971   17.1969 C   0  0  0  0  0  0  0  0  0  0  0  0
   10.4773   -3.8256   18.7172 C   0  0  0  0  0  0  0  0  0  0  0  0
    9.6276   -7.2677   17.9898 C   0  0  0  0  0  0  0  0  0  0  0  0
   10.7110   -4.0313   23.6742 C   0  0  0  0  0  0  0  0  0  0  0  0
    9.4233   -5.7454   17.2694 C   0  0  0  0  0  0  0  0  0  0  0  0
  1  8  1  0
  1 12  4  0
  1 14  4  0
  2  9  1  0
  3 22  4  0
  4 11  4  0
  4 21  4  0
  5 18  1  0
  7 26  4  0
  8 10  4  0
  8 25  4  0
 10 21  4  0
 11 25  4  0
 12 23  4  0
 14 19  4  0
M  END
$$$$

 Created by Python create_sdf_string function

 26 51  0  0  0  0  0  0  0  0999 V2000
   10.5614   -3.9793   21.1579 C   0  0  0  0  0  0  0  0  0  0  0  0
    4.1961   -7.4785   17.6552 P   0  0  0  0  0  0  0  0  0  0  0  0
    9.9899   -3.1330   17.2383 C   0  0  0  0  0  0  0  0  0  0  0  0
   10.0433   -2.3902   24.9757 C   0  0  0  0  0  0  0  0  0  0  0  0
    4.2193   -8.9253   15.7137 N   0  0  0  0  0  0  0  0  0  0  0  0
   10.2342   -2.7741   15.6608 C   0  0  0  0  0  0  0  0  0  0  0  0
    8.6134   -5.0656   16.8906 S   0  0  0  0  0  0  0  0  0  0  0  0
   10.3766   -3.2360   22.7192 C   0  0  0  0  0  0  0  0  0  0  0  0
    5.2863   -7.4404   17.4106 F   0  0  0  0  0  0  0  0  0  0  0  0
   10.2060   -2.2605   22.8616 N   0  0  0  0  0  0  0  0  0  0  0  0
   10.6733   -3.8268   25.1374 C   0  0  0  0  0  0  0  0  0  0  0  0
   10.3457   -2.8038   20.4678 S   0  0  0  0  0  0  0  0  0  0  0  0
   10.9265   -5.1443   21.1664 C   0  0  0  0  0  0  0  0  0  0  0  0
    5.1918   -8.3131   16.3896 F   0  0  0  0  0  0  0  0  0  0  0  0
    9.2096   -6.1169   16.7392 C   0  0  0  0  0  0  0  0  0  0  0  0
   10.0221   -1.0613   23.9325 O   0  0  0  0  0  0  0  0  0  0  0  0
    9.3407   -2.6872   17.6297 O   0  0  0  0  0  0  0  0  0  0  0  0
   10.1875   -4.8162   18.8328 C   0  0  0  0  0  0  0  0  0  0  0  0
    9.5434   -7.6241   18.1619 C   0  0  0  0  0  0  0  0  0  0  0  0
    9.2493   -5.9329   17.1286 C   0  0  0  0  0  0  0  0  0  0  0  0
    4.3033   -8.2995   16.3712 He  0  0  0  0  0  0  0  0  0  0  0  0
    7.7050   -7.8715   15.9716 He  0  0  0  0  0  0  0  0  0  0  0  0
    8.1247   -8.0286   17.4973 He  0  0  0  0  0  0  0  0  0  0  0  0
    8.3478   -7.6224   17.0833 He  0  0  0  0  0  0  0  0  0  0  0  0
   10.4480   -5.8238   19.3297 He  0  0  0  0  0  0  0  0  0  0  0  0
   10.8200   -3.9093   23.5881 He  0  0  0  0  0  0  0  0  0  0  0  0
  1 12  4  0
  1 13  4  0
  1 14  2  0
  2  4  4  0
  2  8  3  0
  2  9  3  0
  2 14  1  0
  2 15  2  0
  2 20  1  0
  3 10  1  0
  3 11  4  0
  4 11  4  0
  4 16  4  0
  4 17  4  0
  4 18  3  0
  5  7  4  0
  5 14  1  0
  5 15  2  0
  5 16  3  0
  5 17  1  0
  6 11  2  0
  6 13  1  0
  6 14  1  0
  6 16  3  0
  6 19  1  0
  7  9  1  0
  7 20  3  0
  8 10  4  0
  8 17  1  0
  8 19  4  0
  9 11  4  0
  9 13  2  0
  9 17  2  0
 10 16  4  0
 10 18  4  0
 10 19  3  0
 10 20  2  0
 11 14  1  0
 11 15  2  0
 11 16  3  0
 11 17  4  0
 11 20  1  0
 12 15  2  0
 12 18  4  0
 12 20  4  0
 13 14  3  0
 13 17  3  0
 13 20  4  0
 15 18  3  0
 16 17  3  0
 17 18  4  0
M  END
$$$$

 Created by Python create_sdf_string function

 26 22  0  0  0  0  0  0  0  0999 V2000
   10.6041   -3.9359   21.3370 C   0  0  0  0  0  0  0  0  0  0  0  0
    4.7883   -8.0060   17.1744 C   0  0  0  0  0  0  0  0  0  0  0  0
   10.2055   -3.2041   17.1321 C   0  0  0  0  0  0  0  0  0  0  0  0
   10.1088   -2.2405   25.1240 C   0  0  0  0  0  0  0  0  0  0  0  0
    4.5100   -8.6877   15.9759 C   0  0  0  0  0  0  0  0  0  0  0  0
   10.0734   -3.6810   16.0879 C   0  0  0  0  0  0  0  0  0  0  0  0
    9.0362   -5.4554   16.7847 C   0  0  0  0  0  0  0  0  0  0  0  0
   10.5333   -3.3382   22.6640 C   0  0  0  0  0  0  0  0  0  0  0  0
    5.8242   -7.7299   17.4007 C   0  0  0  0  0  0  0  0  0  0  0  0
   10.1479   -2.0440   22.7903 N   0  0  0  0  0  0  0  0  0  0  0  0
   10.5474   -3.5127   25.0320 C   0  0  0  0  0  0  0  0  0  0  0  0
   10.4337   -3.2489   20.1469 N   0  0  0  0  0  0  0  0  0  0  0  0
    4.6410   -8.4022   16.4892 C   0  0  0  0  0  0  0  0  0  0  0  0
   10.7760   -5.2910   21.1184 C   0  0  0  0  0  0  0  0  0  0  0  0
    7.4322   -7.9912   16.2087 C   0  0  0  0  0  0  0  0  0  0  0  0
    8.2651   -7.9659   17.2440 C   0  0  0  0  0  0  0  0  0  0  0  0
    7.8264   -7.5713   16.9028 C   0  0  0  0  0  0  0  0  0  0  0  0
    5.5944   -8.4303   16.1089 C   0  0  0  0  0  0  0  0  0  0  0  0
   10.4849   -5.5874   19.8395 C   0  0  0  0  0  0  0  0  0  0  0  0
    9.0123   -5.7855   16.7369 C   0  0  0  0  0  0  0  0  0  0  0  0
    9.9058   -1.4861   24.0416 C   0  0  0  0  0  0  0  0  0  0  0  0
   10.1661   -3.7582   17.6673 C   0  0  0  0  0  0  0  0  0  0  0  0
   10.2829   -4.3537   19.0761 C   0  0  0  0  0  0  0  0  0  0  0  0
    9.4780   -7.7326   18.1677 C   0  0  0  0  0  0  0  0  0  0  0  0
   10.7910   -4.0970   23.7789 C   0  0  0  0  0  0  0  0  0  0  0  0
    9.1995   -5.9700   17.0933 C   0  0  0  0  0  0  0  0  0  0  0  0
  1  8  1  0
  1 12  4  0
  1 14  4  0
  2  9  4  0
  3  6  4  0
  3 22  4  0
  4 11  4  0
  4 21  4  0
  5 13  4  0
  7 20  4  0
  7 26  4  0
  8 10  4  0
  8 25  4  0
 10 21  4  0
 11 25  4  0
 12 23  4  0
 14 19  4  0
 16 17  1  0
 16 24  1  0
 19 23  4  0
 20 26  4  0
 22 23  4  0
M  END
$$$$

 Created by Python create_sdf_string function

 26 54  0  0  0  0  0  0  0  0999 V2000
   10.5282   -3.0937   16.9609 C   0  0  0  0  0  0  0  0  0  0  0  0
   10.2026   -2.2409   24.9871 C   0  0  0  0  0  0  0  0  0  0  0  0
    3.8265   -6.9703   16.5850 P   0  0  0  0  0  0  0  0  0  0  0  0
   10.2916   -2.6769   22.1747 C   0  0  0  0  0  0  0  0  0  0  0  0
    4.1387   -6.7864   17.9223 C   0  0  0  0  0  0  0  0  0  0  0  0
   10.0369   -2.1178   22.6349 N   0  0  0  0  0  0  0  0  0  0  0  0
    5.1619   -9.3704   16.1572 C   0  0  0  0  0  0  0  0  0  0  0  0
   10.6490   -5.1263   20.2951 C   0  0  0  0  0  0  0  0  0  0  0  0
    8.4716   -8.6993   15.6623 C   0  0  0  0  0  0  0  0  0  0  0  0
    8.3806   -6.5529   16.5353 C   0  0  0  0  0  0  0  0  0  0  0  0
    5.0720  -10.9884   16.5839 C   0  0  0  0  0  0  0  0  0  0  0  0
   10.9885   -5.4152   19.8958 C   0  0  0  0  0  0  0  0  0  0  0  0
   10.8333   -5.9205   17.7836 F   0  0  0  0  0  0  0  0  0  0  0  0
   10.0412   -1.2429   24.2642 C   0  0  0  0  0  0  0  0  0  0  0  0
    7.5069   -3.8891   18.6894 F   0  0  0  0  0  0  0  0  0  0  0  0
   10.2981   -4.3980   19.2391 B   0  0  0  0  0  0  0  0  0  0  0  0
    9.0393   -7.4480   18.6807 C   0  0  0  0  0  0  0  0  0  0  0  0
   10.3747   -4.0445   23.1793 C   0  0  0  0  0  0  0  0  0  0  0  0
   10.6220   -4.3857   21.3688 He  0  0  0  0  0  0  0  0  0  0  0  0
    6.4436   -8.7750   17.8762 He  0  0  0  0  0  0  0  0  0  0  0  0
   11.0646   -4.8500   14.8185 He  0  0  0  0  0  0  0  0  0  0  0  0
    8.8421   -5.1340   17.6413 He  0  0  0  0  0  0  0  0  0  0  0  0
   10.1610   -3.4756   25.7483 He  0  0  0  0  0  0  0  0  0  0  0  0
    9.9767   -3.9951   20.5361 He  0  0  0  0  0  0  0  0  0  0  0  0
    8.1956   -7.8507   16.6050 He  0  0  0  0  0  0  0  0  0  0  0  0
   10.0671   -6.8525   17.9207 He  0  0  0  0  0  0  0  0  0  0  0  0
  2  7  4  0
  2  9  2  0
  2 11  3  0
  2 13  3  0
  2 14  4  0
  2 15  2  0
  2 18  1  0
  3  6  3  0
  3  9  4  0
  3 10  3  0
  3 11  2  0
  3 14  1  0
  4  6  4  0
  4  8  4  0
  4  9  4  0
  4 10  1  0
  4 14  1  0
  4 18  4  0
  5  8  4  0
  5 11  3  0
  5 14  3  0
  5 17  2  0
  6 13  4  0
  6 14  4  0
  6 17  4  0
  7  8  2  0
  7  9  4  0
  7 11  1  0
  7 14  4  0
  7 18  2  0
  8  9  2  0
  8 13  3  0
  8 14  3  0
  8 16  2  0
  8 17  3  0
  9 14  1  0
  9 16  4  0
  9 17  1  0
  9 18  3  0
 10 11  2  0
 10 12  4  0
 10 13  3  0
 10 15  4  0
 10 18  4  0
 11 12  1  0
 11 14  2  0
 11 16  3  0
 11 18  4  0
 12 16  4  0
 13 14  1  0
 13 15  1  0
 13 17  1  0
 14 15  4  0
 15 16  3  0
M  END
$$$$

 Created by Python create_sdf_string function

 26 20  0  0  0  0  0  0  0  0999 V2000
   10.5537   -3.8958   21.4714 C   0  0  0  0  0  0  0  0  0  0  0  0
    6.6091   -8.1683   17.4904 C   0  0  0  0  0  0  0  0  0  0  0  0
   10.5264   -3.4560   16.9032 C   0  0  0  0  0  0  0  0  0  0  0  0
    9.9819   -2.2433   25.2621 C   0  0  0  0  0  0  0  0  0  0  0  0
    4.7322   -8.2596   16.9359 C   0  0  0  0  0  0  0  0  0  0  0  0
   10.3420   -4.3734   15.9503 C   0  0  0  0  0  0  0  0  0  0  0  0
    9.5993   -5.1606   17.1369 C   0  0  0  0  0  0  0  0  0  0  0  0
   10.4329   -3.2693   22.7804 C   0  0  0  0  0  0  0  0  0  0  0  0
    5.3280   -8.0162   17.4827 C   0  0  0  0  0  0  0  0  0  0  0  0
   10.1365   -1.9506   22.9275 N   0  0  0  0  0  0  0  0  0  0  0  0
   10.3065   -3.4984   25.1868 N   0  0  0  0  0  0  0  0  0  0  0  0
   10.0296   -3.6877   20.6484 C   0  0  0  0  0  0  0  0  0  0  0  0
    5.7489   -9.2753   16.2697 C   0  0  0  0  0  0  0  0  0  0  0  0
   10.9745   -5.0302   20.7097 C   0  0  0  0  0  0  0  0  0  0  0  0
    8.0295   -7.8264   16.5527 C   0  0  0  0  0  0  0  0  0  0  0  0
    7.6962   -8.3785   16.1517 C   0  0  0  0  0  0  0  0  0  0  0  0
    8.3425   -7.0189   16.7710 C   0  0  0  0  0  0  0  0  0  0  0  0
    5.3555   -9.6549   16.4212 C   0  0  0  0  0  0  0  0  0  0  0  0
   10.6600   -5.2118   19.5125 C   0  0  0  0  0  0  0  0  0  0  0  0
   10.1632   -5.3212   17.7898 C   0  0  0  0  0  0  0  0  0  0  0  0
    9.9215   -1.3958   24.2303 C   0  0  0  0  0  0  0  0  0  0  0  0
    8.9139   -4.5461   18.2495 N   0  0  0  0  0  0  0  0  0  0  0  0
   10.5590   -4.2256   19.1590 C   0  0  0  0  0  0  0  0  0  0  0  0
    9.1164   -7.4682   18.1232 C   0  0  0  0  0  0  0  0  0  0  0  0
   10.5926   -4.0208   23.8542 C   0  0  0  0  0  0  0  0  0  0  0  0
    9.6413   -6.6432   17.9842 C   0  0  0  0  0  0  0  0  0  0  0  0
  1  8  1  0
  1 12  4  0
  1 14  4  0
  2  9  4  0
  3  6  1  0
  4 11  4  0
  4 21  4  0
  5  9  4  0
  7 20  1  0
  8 10  4  0
  8 25  4  0
 10 21  4  0
 11 25  4  0
 13 16  4  0
 13 18  1  0
 14 19  4  0
 15 16  4  0
 15 17  4  0
 19 23  4  0
 24 26  4  0
M  END
$$$$

 Created by Python create_sdf_string function

 26 81  0  0  0  0  0  0  0  0999 V2000
   10.1047   -3.9679   21.5389 C   0  0  0  0  0  0  0  0  0  0  0  0
   10.5186   -3.4824   17.3319 C   0  0  0  0  0  0  0  0  0  0  0  0
    9.8463   -2.1856   25.4548 C   0  0  0  0  0  0  0  0  0  0  0  0
   10.3338   -3.3419   15.3831 O   0  0  0  0  0  0  0  0  0  0  0  0
    9.8330   -4.5554   18.4888 F   0  0  0  0  0  0  0  0  0  0  0  0
   11.2251   -3.0394   22.7082 C   0  0  0  0  0  0  0  0  0  0  0  0
    7.9835   -7.9195   15.7498 Cl  0  0  0  0  0  0  0  0  0  0  0  0
   10.4178   -1.5985   23.0587 N   0  0  0  0  0  0  0  0  0  0  0  0
    9.9178   -3.3750   25.2055 N   0  0  0  0  0  0  0  0  0  0  0  0
    9.8755   -3.5053   21.1605 C   0  0  0  0  0  0  0  0  0  0  0  0
    5.7992  -10.2197   15.5568 F   0  0  0  0  0  0  0  0  0  0  0  0
   10.7336   -5.1444   21.2368 C   0  0  0  0  0  0  0  0  0  0  0  0
    8.0955   -7.7844   16.1166 C   0  0  0  0  0  0  0  0  0  0  0  0
    7.1517   -6.5079   15.4381 Se  0  0  0  0  0  0  0  0  0  0  0  0
    4.6296   -8.7408   16.7605 F   0  0  0  0  0  0  0  0  0  0  0  0
   10.3935   -5.4792   19.1475 C   0  0  0  0  0  0  0  0  0  0  0  0
   10.1208   -5.3210   18.4825 S   0  0  0  0  0  0  0  0  0  0  0  0
    9.4757   -0.9130   24.0466 C   0  0  0  0  0  0  0  0  0  0  0  0
    9.2472   -4.5534   18.1712 P   0  0  0  0  0  0  0  0  0  0  0  0
   10.6680   -4.1109   19.2277 C   0  0  0  0  0  0  0  0  0  0  0  0
    8.8541   -7.4064   18.9098 C   0  0  0  0  0  0  0  0  0  0  0  0
    9.5301   -7.1762   17.1817 P   0  0  0  0  0  0  0  0  0  0  0  0
    7.6341   -8.0932   16.9338 He  0  0  0  0  0  0  0  0  0  0  0  0
    4.5298   -8.6155   17.9844 He  0  0  0  0  0  0  0  0  0  0  0  0
    7.2304   -7.9391   17.1003 He  0  0  0  0  0  0  0  0  0  0  0  0
   10.8993   -3.8493   23.6080 He  0  0  0  0  0  0  0  0  0  0  0  0
  1  6  1  0
  1 10  4  0
  1 11  4  0
  1 12  4  0
  1 19  3  0
  2  3  3  0
  2  4  1  0
  2  7  2  0
  2 13  3  0
  2 15  1  0
  2 17  1  0
  2 19  2  0
  2 21  4  0
  2 22  1  0
  3  4  3  0
  3  5  3  0
  3  7  4  0
  3  9  4  0
  3 11  4  0
  3 13  1  0
  3 16  2  0
  3 18  4  0
  3 22  3  0
  4  6  4  0
  4 11  1  0
  4 12  1  0
  4 13  4  0
  4 18  2  0
  4 19  4  0
  4 20  3  0
  4 21  4  0
  5  9  3  0
  5 10  4  0
  5 11  2  0
  5 13  3  0
  5 15  3  0
  5 22  1  0
  6  8  4  0
  6 10  2  0
  6 11  3  0
  6 13  4  0
  6 16  4  0
  6 19  1  0
  7 15  3  0
  7 16  2  0
  7 18  1  0
  7 20  3  0
  8 14  3  0
  8 15  1  0
  8 16  4  0
  8 18  4  0
  8 19  3  0
  9 16  2  0
  9 22  2  0
 10 13  1  0
 10 14  3  0
 10 15  2  0
 10 19  3  0
 11 14  1  0
 11 15  1  0
 11 16  4  0
 11 18  3  0
 11 19  2  0
 12 16  4  0
 12 17  4  0
 12 18  3  0
 13 15  2  0
 13 17  1  0
 13 20  4  0
 14 21  4  0
 14 22  4  0
 15 20  3  0
 15 21  3  0
 15 22  4  0
 16 18  2  0
 16 20  4  0
 17 20  4  0
 18 19  4  0
 19 22  2  0
 20 21  4  0
 21 22  4  0
M  END
$$$$

 Created by Python create_sdf_string function

 26 19  0  0  0  0  0  0  0  0999 V2000
   10.5801   -3.8412   21.6260 C   0  0  0  0  0  0  0  0  0  0  0  0
    7.5686   -8.0793   16.9225 C   0  0  0  0  0  0  0  0  0  0  0  0
   10.5626   -3.8151   16.8810 C   0  0  0  0  0  0  0  0  0  0  0  0
    9.6602   -2.0947   25.2836 C   0  0  0  0  0  0  0  0  0  0  0  0
    5.0676   -8.6636   17.4012 C   0  0  0  0  0  0  0  0  0  0  0  0
    9.9533   -3.8380   15.9896 N   0  0  0  0  0  0  0  0  0  0  0  0
   10.2333   -4.2010   18.5680 C   0  0  0  0  0  0  0  0  0  0  0  0
   10.4869   -3.1568   22.9191 C   0  0  0  0  0  0  0  0  0  0  0  0
    7.4635   -8.1794   15.8625 C   0  0  0  0  0  0  0  0  0  0  0  0
   10.2463   -1.7569   22.9918 N   0  0  0  0  0  0  0  0  0  0  0  0
   10.1174   -3.2851   25.1909 N   0  0  0  0  0  0  0  0  0  0  0  0
   10.3420   -3.3403   20.3988 C   0  0  0  0  0  0  0  0  0  0  0  0
    5.5532   -9.3579   15.9527 C   0  0  0  0  0  0  0  0  0  0  0  0
   10.8637   -5.1479   21.4689 C   0  0  0  0  0  0  0  0  0  0  0  0
    7.6405   -7.6914   16.0278 C   0  0  0  0  0  0  0  0  0  0  0  0
    7.7301   -6.4725   15.8882 C   0  0  0  0  0  0  0  0  0  0  0  0
    7.1824   -7.8753   17.4696 C   0  0  0  0  0  0  0  0  0  0  0  0
    5.1555   -8.7279   16.8019 C   0  0  0  0  0  0  0  0  0  0  0  0
   10.6607   -5.5761   19.9201 C   0  0  0  0  0  0  0  0  0  0  0  0
   10.1163   -4.8455   17.9664 C   0  0  0  0  0  0  0  0  0  0  0  0
    9.8272   -1.2320   24.2652 C   0  0  0  0  0  0  0  0  0  0  0  0
    9.5042   -5.0118   17.1444 C   0  0  0  0  0  0  0  0  0  0  0  0
   10.5020   -4.4424   19.1039 C   0  0  0  0  0  0  0  0  0  0  0  0
    8.9038   -7.5845   18.1020 C   0  0  0  0  0  0  0  0  0  0  0  0
   10.5841   -3.8748   24.0278 C   0  0  0  0  0  0  0  0  0  0  0  0
    8.9343   -6.6323   17.3762 C   0  0  0  0  0  0  0  0  0  0  0  0
  1  8  1  0
  1 12  4  0
  1 14  4  0
  2  9  4  0
  3  6  1  0
  4 11  4  0
  4 21  4  0
  5 18  1  0
  7 23  4  0
  8 10  4  0
  8 25  4  0
 10 21  4  0
 11 25  4  0
 12 23  4  0
 13 18  1  0
 14 19  4  0
 19 23  4  0
 20 23  4  0
 24 26  4  0
M  END
$$$$

 Created by Python create_sdf_string function

 26 35  0  0  0  0  0  0  0  0999 V2000
   10.6309   -3.7211   21.8439 F   0  0  0  0  0  0  0  0  0  0  0  0
    7.6612   -9.7420   17.8758 Cl  0  0  0  0  0  0  0  0  0  0  0  0
   10.2911   -3.8846   16.9524 C   0  0  0  0  0  0  0  0  0  0  0  0
    9.7877   -2.0599   25.6332 C   0  0  0  0  0  0  0  0  0  0  0  0
   10.1758   -3.3938   23.1495 C   0  0  0  0  0  0  0  0  0  0  0  0
   10.1808   -1.8005   23.0331 N   0  0  0  0  0  0  0  0  0  0  0  0
   10.5075   -2.8114   24.8571 N   0  0  0  0  0  0  0  0  0  0  0  0
   10.3206   -4.0562   20.4975 C   0  0  0  0  0  0  0  0  0  0  0  0
   10.7556   -4.9711   21.5410 N   0  0  0  0  0  0  0  0  0  0  0  0
    6.9572   -8.0367   15.7406 F   0  0  0  0  0  0  0  0  0  0  0  0
    7.0930   -8.2917   18.0622 Cl  0  0  0  0  0  0  0  0  0  0  0  0
   10.3092   -5.2573   20.3720 F   0  0  0  0  0  0  0  0  0  0  0  0
    9.3601   -7.6627   17.6916 C   0  0  0  0  0  0  0  0  0  0  0  0
    9.6904   -1.0121   24.7070 C   0  0  0  0  0  0  0  0  0  0  0  0
    9.8240   -6.6682   16.7646 O   0  0  0  0  0  0  0  0  0  0  0  0
   10.3749   -3.9083   19.2757 C   0  0  0  0  0  0  0  0  0  0  0  0
    9.2579   -7.9209   18.2633 C   0  0  0  0  0  0  0  0  0  0  0  0
    4.2950   -7.6426   18.6805 He  0  0  0  0  0  0  0  0  0  0  0  0
   10.0108   -2.8919   15.4781 He  0  0  0  0  0  0  0  0  0  0  0  0
    9.2741   -4.6822   18.9265 He  0  0  0  0  0  0  0  0  0  0  0  0
    7.6324   -8.6828   17.6351 He  0  0  0  0  0  0  0  0  0  0  0  0
    4.7316   -9.7740   15.1824 He  0  0  0  0  0  0  0  0  0  0  0  0
    9.6186   -8.9244   17.2438 He  0  0  0  0  0  0  0  0  0  0  0  0
    6.3480   -9.7967   17.2149 He  0  0  0  0  0  0  0  0  0  0  0  0
   10.6783   -4.0390   24.0433 He  0  0  0  0  0  0  0  0  0  0  0  0
   10.5115   -5.5073   18.2972 He  0  0  0  0  0  0  0  0  0  0  0  0
  1  2  3  0
  1  3  3  0
  1  4  3  0
  1  8  4  0
  1  9  4  0
  1 11  4  0
  1 13  2  0
  2 10  1  0
  2 11  1  0
  2 14  1  0
  2 16  3  0
  4  7  4  0
  4 14  4  0
  4 15  1  0
  5  6  4  0
  5 11  2  0
  5 13  3  0
  7 11  2  0
  7 12  2  0
  8 11  1  0
  8 13  3  0
  8 14  1  0
  8 15  1  0
  8 16  4  0
  9 10  4  0
  9 12  1  0
  9 15  3  0
 10 12  4  0
 10 16  1  0
 10 17  4  0
 11 14  2  0
 11 15  3  0
 12 13  3  0
 12 15  3  0
 12 16  4  0
M  END
$$$$

 Created by Python create_sdf_string function

 26 19  0  0  0  0  0  0  0  0999 V2000
   10.4904   -3.8185   21.7658 C   0  0  0  0  0  0  0  0  0  0  0  0
    7.0018   -8.6015   17.1424 C   0  0  0  0  0  0  0  0  0  0  0  0
   10.3016   -3.7568   16.9794 C   0  0  0  0  0  0  0  0  0  0  0  0
    9.9452   -1.9987   25.5245 C   0  0  0  0  0  0  0  0  0  0  0  0
    5.0404   -8.3781   17.4309 C   0  0  0  0  0  0  0  0  0  0  0  0
    9.9739   -3.9173   16.2067 N   0  0  0  0  0  0  0  0  0  0  0  0
   10.1223   -4.9808   18.3576 C   0  0  0  0  0  0  0  0  0  0  0  0
   10.3995   -3.1510   23.0599 C   0  0  0  0  0  0  0  0  0  0  0  0
    7.7075   -8.0784   17.2257 C   0  0  0  0  0  0  0  0  0  0  0  0
   10.0048   -1.8677   23.1162 N   0  0  0  0  0  0  0  0  0  0  0  0
   10.3471   -3.1578   25.3280 N   0  0  0  0  0  0  0  0  0  0  0  0
   10.3953   -3.2513   20.5276 C   0  0  0  0  0  0  0  0  0  0  0  0
    5.0239   -9.1236   16.1464 C   0  0  0  0  0  0  0  0  0  0  0  0
   10.6661   -5.1407   21.6015 N   0  0  0  0  0  0  0  0  0  0  0  0
    8.8121   -7.8818   16.7049 C   0  0  0  0  0  0  0  0  0  0  0  0
    6.9358   -8.4710   15.9148 C   0  0  0  0  0  0  0  0  0  0  0  0
    6.6512   -8.0873   17.7851 C   0  0  0  0  0  0  0  0  0  0  0  0
    5.6583   -9.2211   16.6074 C   0  0  0  0  0  0  0  0  0  0  0  0
   10.4665   -5.6471   20.3338 O   0  0  0  0  0  0  0  0  0  0  0  0
    9.2435   -6.9313   17.6996 C   0  0  0  0  0  0  0  0  0  0  0  0
    9.7248   -1.1633   24.4570 C   0  0  0  0  0  0  0  0  0  0  0  0
    9.3957   -5.7982   16.5874 C   0  0  0  0  0  0  0  0  0  0  0  0
   10.3743   -3.9779   19.4627 C   0  0  0  0  0  0  0  0  0  0  0  0
    9.3944   -7.7360   18.2797 C   0  0  0  0  0  0  0  0  0  0  0  0
   10.6504   -3.8639   24.1747 C   0  0  0  0  0  0  0  0  0  0  0  0
    9.9634   -5.1647   17.7934 C   0  0  0  0  0  0  0  0  0  0  0  0
  1  8  1  0
  1 12  4  0
  1 14  4  0
  3  6  4  0
  4 11  4  0
  4 21  4  0
  5 13  4  0
  7 23  4  0
  7 26  4  0
  8 10  4  0
  8 25  4  0
  9 17  4  0
 10 21  4  0
 11 25  4  0
 12 23  4  0
 13 18  4  0
 14 19  4  0
 20 24  1  0
 22 26  4  0
M  END
$$$$

 Created by Python create_sdf_string function

 26 73  0  0  0  0  0  0  0  0999 V2000
   10.2686   -4.3404   21.8497 Br  0  0  0  0  0  0  0  0  0  0  0  0
    7.5137   -8.6688   17.7767 C   0  0  0  0  0  0  0  0  0  0  0  0
   10.1277   -4.0894   17.5856 C   0  0  0  0  0  0  0  0  0  0  0  0
    9.6718   -1.6411   25.2700 C   0  0  0  0  0  0  0  0  0  0  0  0
    4.2273   -8.7122   18.3670 Cl  0  0  0  0  0  0  0  0  0  0  0  0
    8.8060   -4.9898   15.3657 O   0  0  0  0  0  0  0  0  0  0  0  0
   10.2168   -3.8166   23.0718 P   0  0  0  0  0  0  0  0  0  0  0  0
    7.9813   -8.6276   17.3112 N   0  0  0  0  0  0  0  0  0  0  0  0
   10.2935   -2.0256   23.1046 N   0  0  0  0  0  0  0  0  0  0  0  0
   10.7192   -2.9301   24.9771 N   0  0  0  0  0  0  0  0  0  0  0  0
   10.1373   -2.8720   20.5131 C   0  0  0  0  0  0  0  0  0  0  0  0
    6.1153   -9.1457   16.6728 F   0  0  0  0  0  0  0  0  0  0  0  0
   10.6938   -5.1874   22.0398 Cl  0  0  0  0  0  0  0  0  0  0  0  0
    9.0878   -7.4716   18.0008 C   0  0  0  0  0  0  0  0  0  0  0  0
    5.0837   -8.7960   19.7465 Se  0  0  0  0  0  0  0  0  0  0  0  0
    6.5207   -9.9197   17.5778 C   0  0  0  0  0  0  0  0  0  0  0  0
   10.9856   -5.6399   20.1771 O   0  0  0  0  0  0  0  0  0  0  0  0
    9.6387   -1.0291   24.2086 C   0  0  0  0  0  0  0  0  0  0  0  0
    8.4382   -5.3446   17.3495 N   0  0  0  0  0  0  0  0  0  0  0  0
    9.6662   -7.5022   18.2548 C   0  0  0  0  0  0  0  0  0  0  0  0
   10.4762   -4.0441   18.2940 N   0  0  0  0  0  0  0  0  0  0  0  0
   10.4782   -5.1579   18.8281 He  0  0  0  0  0  0  0  0  0  0  0  0
    5.5203   -7.8402   15.6772 He  0  0  0  0  0  0  0  0  0  0  0  0
    9.0959   -6.1266   17.4420 He  0  0  0  0  0  0  0  0  0  0  0  0
    9.8255   -4.3570   19.6581 He  0  0  0  0  0  0  0  0  0  0  0  0
   10.4536   -3.3804   24.1145 He  0  0  0  0  0  0  0  0  0  0  0  0
  1  5  1  0
  1  7  1  0
  1 11  4  0
  1 13  2  0
  1 14  3  0
  1 19  1  0
  1 21  4  0
  2  4  2  0
  2  6  1  0
  2  8  4  0
  2  9  2  0
  2 19  3  0
  2 20  1  0
  3 13  2  0
  3 16  3  0
  3 17  2  0
  3 21  3  0
  4  5  1  0
  4  6  1  0
  4 10  4  0
  4 12  1  0
  4 14  3  0
  4 16  2  0
  4 18  4  0
  4 20  3  0
  4 21  2  0
  5  7  4  0
  5  8  1  0
  5  9  4  0
  5 10  3  0
  5 12  2  0
  5 15  1  0
  5 20  2  0
  5 21  1  0
  6  9  1  0
  6 10  4  0
  6 11  3  0
  6 14  3  0
  6 17  4  0
  6 19  4  0
  6 20  3  0
  7  9  4  0
  7 19  1  0
  8 16  1  0
  8 17  1  0
  8 20  1  0
  9 14  4  0
  9 15  3  0
 10 12  3  0
 10 19  4  0
 11 14  4  0
 11 21  1  0
 12 16  4  0
 12 18  2  0
 12 19  4  0
 12 20  3  0
 12 21  4  0
 13 15  3  0
 13 16  3  0
 13 17  4  0
 13 21  4  0
 14 15  2  0
 14 17  1  0
 14 19  1  0
 14 20  3  0
 14 21  4  0
 15 20  3  0
 16 21  1  0
 17 18  1  0
 17 19  4  0
 18 19  3  0
 18 21  2  0
 20 21  2  0
M  END
$$$$

 Created by Python create_sdf_string function

 26 24  0  0  0  0  0  0  0  0999 V2000
   10.6315   -3.9204   21.7629 C   0  0  0  0  0  0  0  0  0  0  0  0
    7.4675   -8.3132   17.4008 C   0  0  0  0  0  0  0  0  0  0  0  0
   10.0397   -4.0778   16.7280 C   0  0  0  0  0  0  0  0  0  0  0  0
    9.8528   -1.7375   25.4082 C   0  0  0  0  0  0  0  0  0  0  0  0
    4.8452   -8.8903   17.6354 C   0  0  0  0  0  0  0  0  0  0  0  0
    9.0953   -4.6147   15.9671 N   0  0  0  0  0  0  0  0  0  0  0  0
   10.3698   -5.1100   19.1662 C   0  0  0  0  0  0  0  0  0  0  0  0
   10.4848   -3.1759   23.1208 C   0  0  0  0  0  0  0  0  0  0  0  0
    7.7909   -8.1646   17.3437 C   0  0  0  0  0  0  0  0  0  0  0  0
   10.0034   -1.9434   23.1276 N   0  0  0  0  0  0  0  0  0  0  0  0
   10.3672   -2.9309   25.3963 N   0  0  0  0  0  0  0  0  0  0  0  0
   10.4086   -3.3273   20.4989 C   0  0  0  0  0  0  0  0  0  0  0  0
    6.0344   -8.7061   16.6733 C   0  0  0  0  0  0  0  0  0  0  0  0
   11.0010   -5.2324   21.6402 C   0  0  0  0  0  0  0  0  0  0  0  0
    8.8465   -7.3335   17.7646 C   0  0  0  0  0  0  0  0  0  0  0  0
    6.0883   -8.0353   16.3398 C   0  0  0  0  0  0  0  0  0  0  0  0
    5.6622   -8.9493   18.5477 C   0  0  0  0  0  0  0  0  0  0  0  0
    6.1736   -9.1756   17.4381 C   0  0  0  0  0  0  0  0  0  0  0  0
   10.7873   -5.8415   20.2999 C   0  0  0  0  0  0  0  0  0  0  0  0
    9.2859   -6.2962   17.5410 C   0  0  0  0  0  0  0  0  0  0  0  0
    9.6508   -1.1626   24.2951 C   0  0  0  0  0  0  0  0  0  0  0  0
    8.9361   -5.6308   16.7040 N   0  0  0  0  0  0  0  0  0  0  0  0
   10.3924   -3.8747   19.2092 C   0  0  0  0  0  0  0  0  0  0  0  0
    9.5407   -7.6484   18.2397 C   0  0  0  0  0  0  0  0  0  0  0  0
   10.6766   -3.6841   24.2554 N   0  0  0  0  0  0  0  0  0  0  0  0
   10.2583   -3.9989   17.7722 N   0  0  0  0  0  0  0  0  0  0  0  0
  1  8  1  0
  1 12  4  0
  1 14  4  0
  2  9  4  0
  3  6  4  0
  3 26  4  0
  4 11  4  0
  4 21  4  0
  5 17  4  0
  6 22  4  0
  7 19  4  0
  7 23  4  0
  8 10  4  0
  8 25  4  0
 10 21  4  0
 11 25  4  0
 12 23  4  0
 13 16  4  0
 13 18  4  0
 14 19  4  0
 17 18  4  0
 20 22  4  0
 20 24  1  0
 23 26  4  0
M  END
$$$$

 Created by Python create_sdf_string function

 26 54  0  0  0  0  0  0  0  0999 V2000
   10.7394   -4.0525   22.1610 C   0  0  0  0  0  0  0  0  0  0  0  0
   10.2376   -3.9500   16.5776 C   0  0  0  0  0  0  0  0  0  0  0  0
    9.6797   -1.1151   25.7486 C   0  0  0  0  0  0  0  0  0  0  0  0
    8.5414   -5.3436   14.7215 C   0  0  0  0  0  0  0  0  0  0  0  0
    9.3196   -5.5316   19.4045 F   0  0  0  0  0  0  0  0  0  0  0  0
    9.7735   -3.0845   23.3909 C   0  0  0  0  0  0  0  0  0  0  0  0
   10.0740   -3.8558   25.3437 N   0  0  0  0  0  0  0  0  0  0  0  0
   10.3045   -3.4191   20.7443 C   0  0  0  0  0  0  0  0  0  0  0  0
    7.2098   -8.8800   17.6278 C   0  0  0  0  0  0  0  0  0  0  0  0
   11.1902   -5.8898   21.3162 C   0  0  0  0  0  0  0  0  0  0  0  0
    7.8737   -7.7936   19.1746 O   0  0  0  0  0  0  0  0  0  0  0  0
    5.9803   -6.9892   16.7348 O   0  0  0  0  0  0  0  0  0  0  0  0
    7.0705   -8.2526   17.6726 C   0  0  0  0  0  0  0  0  0  0  0  0
   10.7136   -5.5438   20.7277 C   0  0  0  0  0  0  0  0  0  0  0  0
    8.0310   -3.6093   15.6426 F   0  0  0  0  0  0  0  0  0  0  0  0
   10.2517   -3.6530   18.9005 C   0  0  0  0  0  0  0  0  0  0  0  0
   10.9146   -3.5858   24.4055 N   0  0  0  0  0  0  0  0  0  0  0  0
    9.3888   -3.8896   17.4768 N   0  0  0  0  0  0  0  0  0  0  0  0
    7.7239   -7.4619   16.3331 He  0  0  0  0  0  0  0  0  0  0  0  0
    4.2227  -10.6687   18.0681 He  0  0  0  0  0  0  0  0  0  0  0  0
    8.5740   -7.7691   16.0272 He  0  0  0  0  0  0  0  0  0  0  0  0
   10.0049   -1.9287   22.7995 He  0  0  0  0  0  0  0  0  0  0  0  0
    6.3968   -9.0560   18.0490 He  0  0  0  0  0  0  0  0  0  0  0  0
    9.4870   -4.2957   17.0060 He  0  0  0  0  0  0  0  0  0  0  0  0
    9.8689   -1.2289   24.4506 He  0  0  0  0  0  0  0  0  0  0  0  0
    8.6692   -7.3105   18.0699 He  0  0  0  0  0  0  0  0  0  0  0  0
  1  6  1  0
  1  8  4  0
  1  9  2  0
  1 10  4  0
  2  4  1  0
  2  5  1  0
  2  9  4  0
  2 15  2  0
  3 11  1  0
  3 12  2  0
  3 15  2  0
  3 18  1  0
  4  8  4  0
  4  9  4  0
  4 10  3  0
  4 13  2  0
  4 14  4  0
  5  6  1  0
  5 13  1  0
  5 14  3  0
  6  9  1  0
  6 12  2  0
  6 18  1  0
  7  9  2  0
  7 15  3  0
  7 17  1  0
  8 13  2  0
  8 15  4  0
  8 16  4  0
  8 18  4  0
  9 10  3  0
  9 12  4  0
  9 13  3  0
  9 17  3  0
 10 13  4  0
 10 14  4  0
 10 15  1  0
 10 16  4  0
 10 18  2  0
 11 13  4  0
 11 15  2  0
 11 16  4  0
 12 13  3  0
 12 14  2  0
 12 15  3  0
 12 18  4  0
 13 14  3  0
 13 16  1  0
 13 17  4  0
 14 15  2  0
 15 16  4  0
 15 18  3  0
 16 18  4  0
 17 18  3  0
M  END
$$$$

 Created by Python create_sdf_string function

 26 21  0  0  0  0  0  0  0  0999 V2000
   10.5972   -3.9241   21.7749 C   0  0  0  0  0  0  0  0  0  0  0  0
    8.0171   -7.1161   16.4842 C   0  0  0  0  0  0  0  0  0  0  0  0
   10.2308   -4.0957   16.5432 C   0  0  0  0  0  0  0  0  0  0  0  0
    9.7507   -2.0936   25.5031 C   0  0  0  0  0  0  0  0  0  0  0  0
    4.9129   -9.6290   17.9517 N   0  0  0  0  0  0  0  0  0  0  0  0
    8.5961   -5.4307   15.6763 C   0  0  0  0  0  0  0  0  0  0  0  0
   10.1998   -5.2883   19.3197 C   0  0  0  0  0  0  0  0  0  0  0  0
   10.4392   -3.2596   23.0718 C   0  0  0  0  0  0  0  0  0  0  0  0
    8.1578   -7.6472   16.3115 C   0  0  0  0  0  0  0  0  0  0  0  0
   10.0724   -1.9311   23.1798 C   0  0  0  0  0  0  0  0  0  0  0  0
   10.1968   -3.3651   25.5041 N   0  0  0  0  0  0  0  0  0  0  0  0
   10.4884   -3.3567   20.6165 C   0  0  0  0  0  0  0  0  0  0  0  0
    6.4969   -8.5504   17.3614 C   0  0  0  0  0  0  0  0  0  0  0  0
   10.8426   -5.2644   21.6040 C   0  0  0  0  0  0  0  0  0  0  0  0
    8.3916   -7.7971   18.3780 O   0  0  0  0  0  0  0  0  0  0  0  0
    6.3255   -7.5712   16.5882 C   0  0  0  0  0  0  0  0  0  0  0  0
    7.0887   -8.3765   17.7285 C   0  0  0  0  0  0  0  0  0  0  0  0
    5.9768   -8.9428   17.6771 C   0  0  0  0  0  0  0  0  0  0  0  0
   10.5890   -5.9771   20.3514 C   0  0  0  0  0  0  0  0  0  0  0  0
    9.6129   -4.5339   16.8730 C   0  0  0  0  0  0  0  0  0  0  0  0
    9.6911   -1.3543   24.4167 C   0  0  0  0  0  0  0  0  0  0  0  0
    8.9450   -3.7520   15.7999 O   0  0  0  0  0  0  0  0  0  0  0  0
   10.3360   -3.8391   19.3517 C   0  0  0  0  0  0  0  0  0  0  0  0
    9.0347   -6.5784   17.6594 C   0  0  0  0  0  0  0  0  0  0  0  0
   10.5609   -3.9706   24.3021 N   0  0  0  0  0  0  0  0  0  0  0  0
    9.7768   -4.3115   17.8007 N   0  0  0  0  0  0  0  0  0  0  0  0
  1  8  1  0
  1 12  4  0
  1 14  4  0
  2  9  4  0
  3 20  1  0
  4 11  4  0
  4 21  4  0
  5 18  1  0
  7 19  4  0
  7 23  4  0
  8 10  4  0
  8 25  4  0
 10 21  4  0
 11 25  4  0
 12 23  4  0
 13 16  4  0
 13 18  4  0
 14 19  4  0
 15 17  4  0
 20 26  1  0
 23 26  4  0
M  END
$$$$

 Created by Python create_sdf_string function

 26 38  0  0  0  0  0  0  0  0999 V2000
   10.9970   -4.4195   21.7413 C   0  0  0  0  0  0  0  0  0  0  0  0
    7.4476   -7.1857   14.2441 C   0  0  0  0  0  0  0  0  0  0  0  0
   10.1303   -3.8052   16.5907 C   0  0  0  0  0  0  0  0  0  0  0  0
   10.3051   -1.6026   25.9229 C   0  0  0  0  0  0  0  0  0  0  0  0
   10.0373   -5.1925   18.4240 C   0  0  0  0  0  0  0  0  0  0  0  0
   10.3647   -3.2183   22.8972 C   0  0  0  0  0  0  0  0  0  0  0  0
    7.3741   -7.1958   15.5352 N   0  0  0  0  0  0  0  0  0  0  0  0
   10.6947   -1.4335   23.4036 C   0  0  0  0  0  0  0  0  0  0  0  0
   10.6823   -3.6928   20.4129 C   0  0  0  0  0  0  0  0  0  0  0  0
   10.6458   -5.4684   21.8337 C   0  0  0  0  0  0  0  0  0  0  0  0
    7.7961   -8.1104   18.7686 O   0  0  0  0  0  0  0  0  0  0  0  0
   10.2543   -6.3737   20.2334 C   0  0  0  0  0  0  0  0  0  0  0  0
    9.4919   -5.2051   17.8619 Se  0  0  0  0  0  0  0  0  0  0  0  0
    9.8446   -1.4479   24.3033 C   0  0  0  0  0  0  0  0  0  0  0  0
    8.8710   -2.4679   17.3647 F   0  0  0  0  0  0  0  0  0  0  0  0
    9.8678   -3.2331   20.0029 N   0  0  0  0  0  0  0  0  0  0  0  0
    8.8448   -6.6809   17.9856 C   0  0  0  0  0  0  0  0  0  0  0  0
    4.2200   -9.1947   18.2472 He  0  0  0  0  0  0  0  0  0  0  0  0
    6.9710   -5.8879   16.2987 He  0  0  0  0  0  0  0  0  0  0  0  0
    9.8357   -3.1920   25.1842 He  0  0  0  0  0  0  0  0  0  0  0  0
    8.0458   -9.4901   18.2729 He  0  0  0  0  0  0  0  0  0  0  0  0
    8.5244   -6.7976   18.1456 He  0  0  0  0  0  0  0  0  0  0  0  0
    6.7147   -7.2441   16.7683 He  0  0  0  0  0  0  0  0  0  0  0  0
    6.3315   -9.4610   18.1041 He  0  0  0  0  0  0  0  0  0  0  0  0
   10.3580   -3.6024   23.9562 He  0  0  0  0  0  0  0  0  0  0  0  0
   10.2012   -4.7804   17.8586 He  0  0  0  0  0  0  0  0  0  0  0  0
  1  2  4  0
  1  6  1  0
  1  9  4  0
  1 13  3  0
  1 15  2  0
  1 16  3  0
  2  7  4  0
  2 11  3  0
  2 15  1  0
  2 16  2  0
  2 17  1  0
  3  5  3  0
  3 13  2  0
  4  5  1  0
  5  7  2  0
  5  8  1  0
  5 13  3  0
  5 16  1  0
  6  8  4  0
  6  9  4  0
  7  8  2  0
  7  9  3  0
  7 10  4  0
  7 12  2  0
  7 16  1  0
  7 17  4  0
  8 14  4  0
  8 15  2  0
  9 12  2  0
  9 13  2  0
  9 14  3  0
  9 16  4  0
 10 12  4  0
 10 13  3  0
 10 14  1  0
 11 12  1  0
 12 13  2  0
 13 14  3  0
M  END
$$$$

 Created by Python create_sdf_string function

 26 22  0  0  0  0  0  0  0  0999 V2000
   10.6914   -3.8883   21.8279 C   0  0  0  0  0  0  0  0  0  0  0  0
    7.4887   -7.2918   15.2624 C   0  0  0  0  0  0  0  0  0  0  0  0
   10.0502   -4.0997   16.3501 C   0  0  0  0  0  0  0  0  0  0  0  0
    9.9073   -1.8570   25.5012 C   0  0  0  0  0  0  0  0  0  0  0  0
    5.2078   -8.8975   17.8793 N   0  0  0  0  0  0  0  0  0  0  0  0
    7.7003   -6.1434   15.8060 C   0  0  0  0  0  0  0  0  0  0  0  0
   10.2681   -4.9930   19.2433 C   0  0  0  0  0  0  0  0  0  0  0  0
   10.5186   -3.1676   23.0749 C   0  0  0  0  0  0  0  0  0  0  0  0
    7.3517   -7.5100   15.8614 C   0  0  0  0  0  0  0  0  0  0  0  0
   10.4342   -1.7001   23.1758 C   0  0  0  0  0  0  0  0  0  0  0  0
   10.0091   -3.1965   25.3643 C   0  0  0  0  0  0  0  0  0  0  0  0
   10.6379   -3.2101   20.6368 C   0  0  0  0  0  0  0  0  0  0  0  0
    7.1793   -8.4512   17.8302 C   0  0  0  0  0  0  0  0  0  0  0  0
   10.8314   -5.2714   21.6047 C   0  0  0  0  0  0  0  0  0  0  0  0
    8.2450   -6.8082   17.4014 C   0  0  0  0  0  0  0  0  0  0  0  0
    6.9204   -7.7647   16.6472 C   0  0  0  0  0  0  0  0  0  0  0  0
    6.9197   -8.2523   18.2723 C   0  0  0  0  0  0  0  0  0  0  0  0
    5.7432   -8.9266   18.0721 N   0  0  0  0  0  0  0  0  0  0  0  0
   10.6102   -5.8509   20.3333 C   0  0  0  0  0  0  0  0  0  0  0  0
    9.6483   -5.4069   17.8574 N   0  0  0  0  0  0  0  0  0  0  0  0
   10.1169   -1.0956   24.3699 C   0  0  0  0  0  0  0  0  0  0  0  0
    9.9640   -3.3364   16.8926 O   0  0  0  0  0  0  0  0  0  0  0  0
   10.4018   -3.6646   19.3809 N   0  0  0  0  0  0  0  0  0  0  0  0
    8.8218   -6.6317   17.6879 C   0  0  0  0  0  0  0  0  0  0  0  0
   10.3398   -3.8361   24.2289 C   0  0  0  0  0  0  0  0  0  0  0  0
   10.1011   -4.1458   17.2885 C   0  0  0  0  0  0  0  0  0  0  0  0
  1  8  1  0
  1 12  4  0
  1 14  4  0
  2  9  4  0
  3 26  1  0
  4 11  4  0
  4 21  4  0
  5 18  4  0
  7 19  4  0
  7 20  1  0
  7 23  4  0
  8 10  4  0
  8 25  4  0
  9 16  4  0
 10 21  4  0
 11 25  4  0
 12 23  4  0
 13 16  4  0
 13 17  4  0
 14 19  4  0
 20 24  1  0
 22 26  2  0
M  END
$$$$

 Created by Python create_sdf_string function

 26 36  0  0  0  0  0  0  0  0999 V2000
   10.6182   -3.8296   21.5282 C   0  0  0  0  0  0  0  0  0  0  0  0
    9.8218   -3.7970   16.9321 C   0  0  0  0  0  0  0  0  0  0  0  0
    9.8567   -1.4207   26.0852 C   0  0  0  0  0  0  0  0  0  0  0  0
    6.9881   -5.9126   16.8113 C   0  0  0  0  0  0  0  0  0  0  0  0
    9.6448   -4.9478   17.5364 Cl  0  0  0  0  0  0  0  0  0  0  0  0
   10.9569   -2.9661   22.8757 O   0  0  0  0  0  0  0  0  0  0  0  0
    6.8195   -5.7113   15.8401 C   0  0  0  0  0  0  0  0  0  0  0  0
   10.4408   -2.0185   23.2768 C   0  0  0  0  0  0  0  0  0  0  0  0
   10.6652   -3.0695   21.4901 C   0  0  0  0  0  0  0  0  0  0  0  0
   11.2003   -5.2897   21.1850 C   0  0  0  0  0  0  0  0  0  0  0  0
    7.2629   -5.9302   16.3038 C   0  0  0  0  0  0  0  0  0  0  0  0
    8.6560   -8.7002   18.6403 B   0  0  0  0  0  0  0  0  0  0  0  0
    9.7848   -1.3353   24.5484 C   0  0  0  0  0  0  0  0  0  0  0  0
   10.6227   -3.1404   19.6964 F   0  0  0  0  0  0  0  0  0  0  0  0
    9.4266   -6.8750   17.2975 C   0  0  0  0  0  0  0  0  0  0  0  0
   10.7070   -4.1019   24.1832 C   0  0  0  0  0  0  0  0  0  0  0  0
    7.2520   -7.9729   15.2801 He  0  0  0  0  0  0  0  0  0  0  0  0
    4.8054   -8.9363   18.0395 He  0  0  0  0  0  0  0  0  0  0  0  0
    9.7886   -2.7764   25.5157 He  0  0  0  0  0  0  0  0  0  0  0  0
    7.8087   -9.4418   17.0691 He  0  0  0  0  0  0  0  0  0  0  0  0
    5.9662   -7.8673   16.8192 He  0  0  0  0  0  0  0  0  0  0  0  0
    4.7161   -8.7010   18.3878 He  0  0  0  0  0  0  0  0  0  0  0  0
   10.4529   -6.0747   20.3480 He  0  0  0  0  0  0  0  0  0  0  0  0
    7.9922   -3.8956   16.9280 He  0  0  0  0  0  0  0  0  0  0  0  0
   10.0965   -3.2797   17.6518 He  0  0  0  0  0  0  0  0  0  0  0  0
   10.9119   -4.9158   16.3327 He  0  0  0  0  0  0  0  0  0  0  0  0
  1  5  1  0
  1  6  3  0
  1  9  4  0
  1 10  4  0
  1 13  2  0
  1 16  1  0
  2 12  4  0
  3  4  1  0
  3  7  4  0
  3  9  4  0
  3 11  3  0
  3 12  3  0
  4  5  4  0
  4  6  3  0
  4  8  4  0
  4 11  2  0
  4 14  4  0
  4 15  2  0
  5  9  1  0
  5 10  4  0
  5 14  4  0
  6  8  4  0
  6 10  1  0
  6 11  2  0
  6 15  4  0
  6 16  4  0
  7 12  3  0
  7 14  2  0
  8 13  4  0
  9 11  2  0
  9 14  4  0
 10 12  4  0
 12 13  2  0
 12 15  1  0
 12 16  2  0
 15 16  3  0
M  END
$$$$

 Created by Python create_sdf_string function

 26 20  0  0  0  0  0  0  0  0999 V2000
   10.6552   -3.8059   21.7381 C   0  0  0  0  0  0  0  0  0  0  0  0
    7.3019   -8.1459   16.1036 C   0  0  0  0  0  0  0  0  0  0  0  0
   10.2329   -3.7645   16.8959 C   0  0  0  0  0  0  0  0  0  0  0  0
    9.7736   -1.8936   25.5879 C   0  0  0  0  0  0  0  0  0  0  0  0
    5.3847   -8.5540   17.6418 C   0  0  0  0  0  0  0  0  0  0  0  0
    7.2091   -6.8407   16.5595 C   0  0  0  0  0  0  0  0  0  0  0  0
   10.3881   -4.6424   19.0864 C   0  0  0  0  0  0  0  0  0  0  0  0
   10.5043   -3.0942   23.1144 C   0  0  0  0  0  0  0  0  0  0  0  0
    7.4760   -5.9634   15.7945 C   0  0  0  0  0  0  0  0  0  0  0  0
   10.3154   -1.7332   23.2266 C   0  0  0  0  0  0  0  0  0  0  0  0
   10.0593   -3.1730   25.4917 C   0  0  0  0  0  0  0  0  0  0  0  0
   10.8074   -3.0245   20.6575 C   0  0  0  0  0  0  0  0  0  0  0  0
    7.4211   -8.7909   17.1825 C   0  0  0  0  0  0  0  0  0  0  0  0
   10.6279   -5.1694   21.4754 C   0  0  0  0  0  0  0  0  0  0  0  0
    7.7937   -6.4275   16.3521 C   0  0  0  0  0  0  0  0  0  0  0  0
    5.9749   -7.9735   17.0460 C   0  0  0  0  0  0  0  0  0  0  0  0
    8.7502   -7.9257   17.8886 C   0  0  0  0  0  0  0  0  0  0  0  0
    5.3607   -8.7002   17.8330 C   0  0  0  0  0  0  0  0  0  0  0  0
   10.4527   -5.6500   20.1290 C   0  0  0  0  0  0  0  0  0  0  0  0
    8.5718   -4.8637   16.0435 N   0  0  0  0  0  0  0  0  0  0  0  0
    9.9101   -1.1393   24.4759 C   0  0  0  0  0  0  0  0  0  0  0  0
   10.3647   -3.6823   17.7795 N   0  0  0  0  0  0  0  0  0  0  0  0
   10.6804   -3.4268   19.3682 C   0  0  0  0  0  0  0  0  0  0  0  0
    9.1772   -6.3447   17.5348 C   0  0  0  0  0  0  0  0  0  0  0  0
   10.4548   -3.7545   24.3305 C   0  0  0  0  0  0  0  0  0  0  0  0
    9.8391   -4.7760   16.9851 C   0  0  0  0  0  0  0  0  0  0  0  0
  1  8  1  0
  1 12  4  0
  1 14  4  0
  3 22  1  0
  3 26  1  0
  4 11  4  0
  4 21  4  0
  5 18  4  0
  7 19  4  0
  7 22  1  0
  7 23  4  0
  8 10  4  0
  8 25  4  0
  9 20  4  0
 10 21  4  0
 11 25  4  0
 12 23  4  0
 14 19  4  0
 17 24  1  0
 24 26  1  0
M  END
$$$$

 Created by Python create_sdf_string function

 26 34  0  0  0  0  0  0  0  0999 V2000
   10.4557   -3.6797   21.8786 C   0  0  0  0  0  0  0  0  0  0  0  0
    6.0931   -8.4413   16.2507 C   0  0  0  0  0  0  0  0  0  0  0  0
    9.6575   -1.9313   25.4900 C   0  0  0  0  0  0  0  0  0  0  0  0
   10.1862   -3.9226   19.1043 S   0  0  0  0  0  0  0  0  0  0  0  0
   10.0446   -1.7834   22.8458 C   0  0  0  0  0  0  0  0  0  0  0  0
   10.0863   -2.9380   25.5910 C   0  0  0  0  0  0  0  0  0  0  0  0
   10.9143   -2.9160   20.5897 P   0  0  0  0  0  0  0  0  0  0  0  0
   10.5382   -5.6428   21.5326 C   0  0  0  0  0  0  0  0  0  0  0  0
    7.2301   -7.4250   17.2495 C   0  0  0  0  0  0  0  0  0  0  0  0
    5.3139   -9.0512   18.1932 C   0  0  0  0  0  0  0  0  0  0  0  0
   10.4822   -5.5865   20.7482 C   0  0  0  0  0  0  0  0  0  0  0  0
    8.1780   -4.4312   15.8961 N   0  0  0  0  0  0  0  0  0  0  0  0
   10.7161   -1.5854   23.8009 C   0  0  0  0  0  0  0  0  0  0  0  0
   10.7320   -4.0528   19.5008 C   0  0  0  0  0  0  0  0  0  0  0  0
   10.7592   -3.6719   24.0117 C   0  0  0  0  0  0  0  0  0  0  0  0
   10.6404   -3.2018   17.0508 He  0  0  0  0  0  0  0  0  0  0  0  0
    6.2188   -9.0268   18.0727 He  0  0  0  0  0  0  0  0  0  0  0  0
    7.2083   -7.2870   14.5401 He  0  0  0  0  0  0  0  0  0  0  0  0
   10.6427   -3.4527   22.8677 He  0  0  0  0  0  0  0  0  0  0  0  0
    6.8077   -6.3948   15.1262 He  0  0  0  0  0  0  0  0  0  0  0  0
    7.6092   -9.0000   17.7894 He  0  0  0  0  0  0  0  0  0  0  0  0
    8.3611   -7.7558   18.6596 He  0  0  0  0  0  0  0  0  0  0  0  0
    5.9473   -8.9072   18.3592 He  0  0  0  0  0  0  0  0  0  0  0  0
   10.1768   -2.3243   17.9108 He  0  0  0  0  0  0  0  0  0  0  0  0
    8.8049   -6.3535   17.5689 He  0  0  0  0  0  0  0  0  0  0  0  0
   11.2979   -4.3433   15.8975 He  0  0  0  0  0  0  0  0  0  0  0  0
  1  2  4  0
  1  4  4  0
  1  7  4  0
  1  8  1  0
  1  9  1  0
  1 11  1  0
  2  3  2  0
  2  4  3  0
  2  8  3  0
  2  9  4  0
  2 10  1  0
  2 11  4  0
  2 12  1  0
  2 13  4  0
  2 14  2  0
  3  6  1  0
  3  8  1  0
  3 13  4  0
  4  6  4  0
  4  7  2  0
  4  9  2  0
  4 14  2  0
  5  8  2  0
  5 13  4  0
  6 10  3  0
  6 13  4  0
  6 15  4  0
  7  9  4  0
  8  9  1  0
  8 10  4  0
  8 13  3  0
 11 12  1  0
 12 13  4  0
 12 14  3  0
M  END
$$$$

 Created by Python create_sdf_string function

 26 23  0  0  0  0  0  0  0  0999 V2000
   10.7592   -3.8364   21.6793 C   0  0  0  0  0  0  0  0  0  0  0  0
    6.1536   -8.1470   16.4605 C   0  0  0  0  0  0  0  0  0  0  0  0
   10.6785   -3.6724   16.9762 C   0  0  0  0  0  0  0  0  0  0  0  0
    9.8808   -1.8697   25.4174 C   0  0  0  0  0  0  0  0  0  0  0  0
    6.0510   -8.6675   18.0584 C   0  0  0  0  0  0  0  0  0  0  0  0
    7.5665   -6.8839   15.3714 C   0  0  0  0  0  0  0  0  0  0  0  0
   10.2180   -4.9461   18.8332 C   0  0  0  0  0  0  0  0  0  0  0  0
   10.6185   -3.1059   23.0238 C   0  0  0  0  0  0  0  0  0  0  0  0
    7.5066   -6.4992   15.4812 C   0  0  0  0  0  0  0  0  0  0  0  0
   10.4335   -1.8223   23.0349 C   0  0  0  0  0  0  0  0  0  0  0  0
   10.1462   -3.1902   25.3964 C   0  0  0  0  0  0  0  0  0  0  0  0
   10.8752   -3.1160   20.4713 N   0  0  0  0  0  0  0  0  0  0  0  0
    7.7003   -7.7215   17.5793 C   0  0  0  0  0  0  0  0  0  0  0  0
   10.6800   -5.1025   21.4633 C   0  0  0  0  0  0  0  0  0  0  0  0
    7.1650   -7.5823   16.7414 C   0  0  0  0  0  0  0  0  0  0  0  0
    5.4229   -8.8366   17.6948 C   0  0  0  0  0  0  0  0  0  0  0  0
    8.8388   -7.2492   17.9492 C   0  0  0  0  0  0  0  0  0  0  0  0
    5.8495   -8.8328   18.3659 C   0  0  0  0  0  0  0  0  0  0  0  0
   10.3804   -5.7119   20.1608 C   0  0  0  0  0  0  0  0  0  0  0  0
    8.8341   -5.1777   16.2369 N   0  0  0  0  0  0  0  0  0  0  0  0
    9.9665   -1.1907   24.2503 C   0  0  0  0  0  0  0  0  0  0  0  0
   10.8560   -3.0849   17.7615 N   0  0  0  0  0  0  0  0  0  0  0  0
   10.6585   -3.7805   19.1465 C   0  0  0  0  0  0  0  0  0  0  0  0
    9.0575   -6.0720   17.5471 C   0  0  0  0  0  0  0  0  0  0  0  0
   10.5292   -3.8341   24.2419 C   0  0  0  0  0  0  0  0  0  0  0  0
   10.4203   -4.0856   16.4028 C   0  0  0  0  0  0  0  0  0  0  0  0
  1  8  1  0
  1 12  4  0
  1 14  4  0
  2 15  4  0
  3 22  4  0
  3 26  4  0
  4 11  4  0
  4 21  4  0
  5 18  4  0
  6  9  1  0
  7 19  4  0
  7 23  4  0
  8 10  4  0
  8 25  4  0
 10 21  4  0
 11 25  4  0
 12 23  4  0
 13 15  4  0
 13 17  4  0
 14 19  4  0
 16 18  4  0
 17 24  1  0
 22 23  4  0
M  END
$$$$

 Created by Python create_sdf_string function

 26 46  0  0  0  0  0  0  0  0999 V2000
    5.4917   -6.6982   16.9422 C   0  0  0  0  0  0  0  0  0  0  0  0
   10.4795   -3.7807   16.6787 C   0  0  0  0  0  0  0  0  0  0  0  0
   10.0462   -2.0635   25.6631 C   0  0  0  0  0  0  0  0  0  0  0  0
   10.7434   -3.2444   23.1489 C   0  0  0  0  0  0  0  0  0  0  0  0
    6.6915   -6.9121   15.8373 O   0  0  0  0  0  0  0  0  0  0  0  0
   10.2197   -1.6881   22.6967 C   0  0  0  0  0  0  0  0  0  0  0  0
   10.2681   -3.1221   25.4379 C   0  0  0  0  0  0  0  0  0  0  0  0
   11.1601   -3.2277   21.0247 N   0  0  0  0  0  0  0  0  0  0  0  0
    7.7852   -6.8730   17.1394 C   0  0  0  0  0  0  0  0  0  0  0  0
   10.9349   -4.9304   21.4586 C   0  0  0  0  0  0  0  0  0  0  0  0
    8.0467   -7.6659   17.9228 C   0  0  0  0  0  0  0  0  0  0  0  0
   10.1561   -5.9530   20.4902 C   0  0  0  0  0  0  0  0  0  0  0  0
    9.1288   -5.9021   17.0921 N   0  0  0  0  0  0  0  0  0  0  0  0
    9.8781   -1.4193   24.8254 C   0  0  0  0  0  0  0  0  0  0  0  0
   10.3965   -3.3968   19.4730 C   0  0  0  0  0  0  0  0  0  0  0  0
    8.8774   -6.4816   17.4456 C   0  0  0  0  0  0  0  0  0  0  0  0
   10.6118   -3.5595   23.6696 C   0  0  0  0  0  0  0  0  0  0  0  0
   10.1178   -4.1110   16.3004 S   0  0  0  0  0  0  0  0  0  0  0  0
   11.2488   -3.5256   21.6823 He  0  0  0  0  0  0  0  0  0  0  0  0
    4.1859   -8.5561   16.1106 He  0  0  0  0  0  0  0  0  0  0  0  0
    8.3410   -5.8935   14.4943 He  0  0  0  0  0  0  0  0  0  0  0  0
    9.4196   -4.3041   18.8669 He  0  0  0  0  0  0  0  0  0  0  0  0
    4.4934   -9.5140   17.2951 He  0  0  0  0  0  0  0  0  0  0  0  0
    9.2963   -7.4345   16.8652 He  0  0  0  0  0  0  0  0  0  0  0  0
    5.1582   -9.0360   19.8173 He  0  0  0  0  0  0  0  0  0  0  0  0
   10.3433   -2.7397   16.4320 He  0  0  0  0  0  0  0  0  0  0  0  0
  1  2  2  0
  1  3  2  0
  1 11  4  0
  2  8  4  0
  2  9  3  0
  2 13  1  0
  2 18  2  0
  3  5  2  0
  3  9  3  0
  3 13  3  0
  3 18  1  0
  4  5  3  0
  4  6  4  0
  4 11  1  0
  4 12  3  0
  4 15  4  0
  4 17  4  0
  5  6  4  0
  5  7  2  0
  5  8  3  0
  5 12  1  0
  5 17  2  0
  6  8  4  0
  6  9  4  0
  6 11  4  0
  6 14  4  0
  7 11  3  0
  7 15  2  0
  7 17  4  0
  7 18  1  0
  8 11  1  0
  8 13  4  0
  8 15  4  0
  8 18  4  0
  9 10  1  0
  9 11  4  0
  9 15  4  0
  9 16  1  0
  9 18  2  0
 10 12  3  0
 11 12  3  0
 11 13  4  0
 11 14  2  0
 11 15  3  0
 12 18  4  0
 16 18  1  0
M  END
$$$$

 Created by Python create_sdf_string function

 26 27  0  0  0  0  0  0  0  0999 V2000
   10.7606   -3.6643   21.7159 C   0  0  0  0  0  0  0  0  0  0  0  0
    6.0424   -7.6132   16.6627 C   0  0  0  0  0  0  0  0  0  0  0  0
   10.2065   -4.0825   16.8088 C   0  0  0  0  0  0  0  0  0  0  0  0
    9.9326   -2.0525   25.5542 C   0  0  0  0  0  0  0  0  0  0  0  0
    4.6320   -8.3570   16.8163 C   0  0  0  0  0  0  0  0  0  0  0  0
    7.9952   -6.4332   15.5129 C   0  0  0  0  0  0  0  0  0  0  0  0
   10.3285   -4.4381   18.8352 C   0  0  0  0  0  0  0  0  0  0  0  0
   10.5999   -3.0748   23.0168 C   0  0  0  0  0  0  0  0  0  0  0  0
    6.4162   -7.1082   15.9225 C   0  0  0  0  0  0  0  0  0  0  0  0
   10.3256   -1.7399   23.2174 C   0  0  0  0  0  0  0  0  0  0  0  0
   10.2887   -3.3397   25.4060 C   0  0  0  0  0  0  0  0  0  0  0  0
   10.8329   -3.0166   20.5304 N   0  0  0  0  0  0  0  0  0  0  0  0
    7.9523   -7.2111   17.1748 C   0  0  0  0  0  0  0  0  0  0  0  0
   10.8023   -5.0039   21.4821 C   0  0  0  0  0  0  0  0  0  0  0  0
    7.0981   -7.9568   17.8434 C   0  0  0  0  0  0  0  0  0  0  0  0
    4.8014   -8.7480   17.5541 C   0  0  0  0  0  0  0  0  0  0  0  0
    8.4110   -7.3920   16.6196 C   0  0  0  0  0  0  0  0  0  0  0  0
    5.7504   -8.7121   18.3895 C   0  0  0  0  0  0  0  0  0  0  0  0
   10.4931   -5.4817   20.3003 C   0  0  0  0  0  0  0  0  0  0  0  0
    9.6321   -5.1530   17.6385 N   0  0  0  0  0  0  0  0  0  0  0  0
    9.9463   -1.2425   24.4655 C   0  0  0  0  0  0  0  0  0  0  0  0
   10.8045   -3.4188   16.8206 N   0  0  0  0  0  0  0  0  0  0  0  0
   10.6244   -3.4980   19.2773 C   0  0  0  0  0  0  0  0  0  0  0  0
    8.9019   -6.2305   17.5727 C   0  0  0  0  0  0  0  0  0  0  0  0
   10.6512   -3.8483   24.1788 C   0  0  0  0  0  0  0  0  0  0  0  0
    9.9439   -4.0169   16.3345 O   0  0  0  0  0  0  0  0  0  0  0  0
  1  8  1  0
  1 12  4  0
  1 14  4  0
  2  9  4  0
  2 15  4  0
  3 20  1  0
  3 22  2  0
  3 26  2  0
  4 11  4  0
  4 21  4  0
  5 16  4  0
  6 17  1  0
  7 19  4  0
  7 20  1  0
  7 23  4  0
  8 10  4  0
  8 25  4  0
 10 21  4  0
 11 25  4  0
 12 23  4  0
 13 15  4  0
 13 17  1  0
 13 24  1  0
 14 19  4  0
 15 18  4  0
 16 18  4  0
 20 24  1  0
M  END
$$$$

 Created by Python create_sdf_string function

 26 40  0  0  0  0  0  0  0  0999 V2000
    6.7845   -7.8586   16.7144 O   0  0  0  0  0  0  0  0  0  0  0  0
   10.2918   -4.1452   16.7859 N   0  0  0  0  0  0  0  0  0  0  0  0
    9.7601   -2.4420   25.3387 C   0  0  0  0  0  0  0  0  0  0  0  0
    8.0493   -6.6389   14.4899 Br  0  0  0  0  0  0  0  0  0  0  0  0
    9.9603   -4.3526   19.1794 C   0  0  0  0  0  0  0  0  0  0  0  0
   10.6423   -2.9132   22.9431 C   0  0  0  0  0  0  0  0  0  0  0  0
    5.7110   -6.8253   14.3004 C   0  0  0  0  0  0  0  0  0  0  0  0
   10.1728   -1.7577   23.4930 C   0  0  0  0  0  0  0  0  0  0  0  0
   10.4623   -2.8409   25.5685 C   0  0  0  0  0  0  0  0  0  0  0  0
   10.9490   -3.0162   20.8936 N   0  0  0  0  0  0  0  0  0  0  0  0
    7.3206   -7.8521   17.4949 O   0  0  0  0  0  0  0  0  0  0  0  0
    7.2865   -8.2388   17.6204 I   0  0  0  0  0  0  0  0  0  0  0  0
    9.9718   -6.1543   16.9630 O   0  0  0  0  0  0  0  0  0  0  0  0
    9.9974   -5.4145   20.1887 C   0  0  0  0  0  0  0  0  0  0  0  0
    9.6636   -1.1429   24.5317 C   0  0  0  0  0  0  0  0  0  0  0  0
   11.6740   -4.4491   17.4664 C   0  0  0  0  0  0  0  0  0  0  0  0
   10.8121   -3.6496   23.9381 C   0  0  0  0  0  0  0  0  0  0  0  0
   10.8217   -3.4426   21.5035 He  0  0  0  0  0  0  0  0  0  0  0  0
    3.2353   -8.2029   15.4197 He  0  0  0  0  0  0  0  0  0  0  0  0
   10.8557   -4.7544   21.4040 He  0  0  0  0  0  0  0  0  0  0  0  0
    5.1032   -8.3219   16.0830 He  0  0  0  0  0  0  0  0  0  0  0  0
    5.1492   -8.3417   18.4633 He  0  0  0  0  0  0  0  0  0  0  0  0
    9.2081   -5.6133   16.8119 He  0  0  0  0  0  0  0  0  0  0  0  0
   11.0533   -3.8502   18.7602 He  0  0  0  0  0  0  0  0  0  0  0  0
    9.3181   -5.7998   17.2989 He  0  0  0  0  0  0  0  0  0  0  0  0
   10.7700   -3.6973   17.6184 He  0  0  0  0  0  0  0  0  0  0  0  0
  1  2  3  0
  1 10  1  0
  1 11  1  0
  1 12  1  0
  1 13  1  0
  1 14  4  0
  1 17  4  0
  2 11  4  0
  2 16  2  0
  3  4  1  0
  3  8  1  0
  3  9  4  0
  3 12  2  0
  3 16  2  0
  4  9  1  0
  4 14  1  0
  4 17  1  0
  5  7  3  0
  5 10  3  0
  5 11  1  0
  5 14  3  0
  5 15  1  0
  6  7  1  0
  6  8  4  0
  6 16  1  0
  6 17  4  0
  7  9  1  0
  7 10  1  0
  7 12  4  0
  7 15  4  0
  7 16  4  0
  8 11  1  0
  8 14  3  0
  8 15  4  0
  9 17  4  0
 11 13  1  0
 11 14  2  0
 11 16  3  0
 11 17  3  0
 15 17  2  0
M  END
$$$$

 Created by Python create_sdf_string function

 26 23  0  0  0  0  0  0  0  0999 V2000
   10.7190   -3.5594   21.7572 C   0  0  0  0  0  0  0  0  0  0  0  0
    7.0112   -7.5398   16.5217 C   0  0  0  0  0  0  0  0  0  0  0  0
   10.2590   -4.3901   16.1648 N   0  0  0  0  0  0  0  0  0  0  0  0
    9.7971   -2.0418   25.5620 C   0  0  0  0  0  0  0  0  0  0  0  0
    3.8209   -8.2688   16.1990 O   0  0  0  0  0  0  0  0  0  0  0  0
    7.7871   -6.7610   15.2945 C   0  0  0  0  0  0  0  0  0  0  0  0
   10.5017   -4.5123   19.1696 C   0  0  0  0  0  0  0  0  0  0  0  0
   10.5906   -2.9701   23.0698 C   0  0  0  0  0  0  0  0  0  0  0  0
    6.0580   -7.2772   15.3556 C   0  0  0  0  0  0  0  0  0  0  0  0
   10.0811   -1.6991   23.2529 C   0  0  0  0  0  0  0  0  0  0  0  0
   10.3866   -3.2446   25.4565 C   0  0  0  0  0  0  0  0  0  0  0  0
   10.9536   -2.8660   20.7141 N   0  0  0  0  0  0  0  0  0  0  0  0
    7.6887   -7.6468   17.3722 C   0  0  0  0  0  0  0  0  0  0  0  0
   10.5804   -4.8982   21.5288 C   0  0  0  0  0  0  0  0  0  0  0  0
    6.8263   -7.9787   17.4016 C   0  0  0  0  0  0  0  0  0  0  0  0
    4.8486   -8.1412   16.5418 C   0  0  0  0  0  0  0  0  0  0  0  0
    9.2424   -6.4510   17.0585 O   0  0  0  0  0  0  0  0  0  0  0  0
    5.2581   -8.5479   17.7073 C   0  0  0  0  0  0  0  0  0  0  0  0
   10.2964   -5.3390   20.1978 C   0  0  0  0  0  0  0  0  0  0  0  0
    9.5260   -5.4280   17.0714 C   0  0  0  0  0  0  0  0  0  0  0  0
    9.6260   -1.2271   24.4765 C   0  0  0  0  0  0  0  0  0  0  0  0
   11.0094   -3.7076   16.9888 C   0  0  0  0  0  0  0  0  0  0  0  0
   10.9161   -3.3940   19.4429 C   0  0  0  0  0  0  0  0  0  0  0  0
    9.3098   -5.7164   17.1849 C   0  0  0  0  0  0  0  0  0  0  0  0
   10.8265   -3.7344   24.2410 C   0  0  0  0  0  0  0  0  0  0  0  0
   10.9896   -3.5271   17.5441 C   0  0  0  0  0  0  0  0  0  0  0  0
  1  8  1  0
  1 12  4  0
  1 14  4  0
  2  9  4  0
  3 20  4  0
  3 22  4  0
  4 11  4  0
  4 21  4  0
  5 16  2  0
  7 19  4  0
  7 23  4  0
  8 10  4  0
  8 25  4  0
  9 16  4  0
 10 21  4  0
 11 25  4  0
 12 23  4  0
 13 15  4  0
 14 19  4  0
 15 18  4  0
 16 18  4  0
 20 24  4  0
 22 26  4  0
M  END
$$$$

 Created by Python create_sdf_string function

 26 45  0  0  0  0  0  0  0  0999 V2000
    7.3868   -7.5020   16.2449 O   0  0  0  0  0  0  0  0  0  0  0  0
   10.3421   -4.3606   16.2483 N   0  0  0  0  0  0  0  0  0  0  0  0
    9.5715   -1.9940   25.7079 F   0  0  0  0  0  0  0  0  0  0  0  0
    4.2771   -8.1812   16.7362 Br  0  0  0  0  0  0  0  0  0  0  0  0
    6.8859   -6.9933   15.2756 C   0  0  0  0  0  0  0  0  0  0  0  0
   10.7485   -6.1230   20.0495 Cl  0  0  0  0  0  0  0  0  0  0  0  0
   10.3936   -3.1082   22.9883 C   0  0  0  0  0  0  0  0  0  0  0  0
   10.0364   -1.2884   23.4541 N   0  0  0  0  0  0  0  0  0  0  0  0
   10.5076   -2.6733   25.9198 C   0  0  0  0  0  0  0  0  0  0  0  0
   10.8841   -3.1536   20.2371 N   0  0  0  0  0  0  0  0  0  0  0  0
   10.3989   -4.9451   21.7737 C   0  0  0  0  0  0  0  0  0  0  0  0
    4.1158   -8.4292   18.4274 S   0  0  0  0  0  0  0  0  0  0  0  0
    9.6520   -5.4770   20.3603 N   0  0  0  0  0  0  0  0  0  0  0  0
    8.9272   -5.4099   16.6495 C   0  0  0  0  0  0  0  0  0  0  0  0
   10.9533   -3.4007   16.8137 C   0  0  0  0  0  0  0  0  0  0  0  0
   10.6171   -3.3686   19.8352 C   0  0  0  0  0  0  0  0  0  0  0  0
    9.4777   -6.1753   16.9350 C   0  0  0  0  0  0  0  0  0  0  0  0
   10.8186   -3.4122   23.8984 C   0  0  0  0  0  0  0  0  0  0  0  0
   10.6885   -3.8755   21.7827 He  0  0  0  0  0  0  0  0  0  0  0  0
    4.7878   -6.5770   15.3695 He  0  0  0  0  0  0  0  0  0  0  0  0
    8.8144   -6.2881   18.0760 He  0  0  0  0  0  0  0  0  0  0  0  0
    7.6638   -9.0411   17.2110 He  0  0  0  0  0  0  0  0  0  0  0  0
    6.0523   -8.3190   15.7221 He  0  0  0  0  0  0  0  0  0  0  0  0
    9.5566   -8.4063   16.7040 He  0  0  0  0  0  0  0  0  0  0  0  0
    9.4212   -1.2197   24.7039 He  0  0  0  0  0  0  0  0  0  0  0  0
   11.1992   -4.1804   18.5969 He  0  0  0  0  0  0  0  0  0  0  0  0
  1  2  1  0
  1  7  3  0
  1 13  1  0
  1 16  4  0
  1 18  4  0
  2 13  3  0
  2 14  4  0
  2 15  4  0
  3  5  2  0
  3  8  4  0
  3  9  1  0
  3 12  3  0
  3 14  4  0
  3 15  1  0
  4  7  3  0
  4  8  2  0
  4  9  2  0
  4 10  4  0
  4 11  4  0
  4 12  1  0
  4 14  3  0
  4 15  3  0
  5  8  2  0
  5 10  4  0
  6  7  3  0
  6  8  3  0
  6 11  2  0
  6 13  2  0
  6 14  4  0
  6 15  2  0
  6 16  3  0
  7  8  4  0
  7 14  3  0
  8 15  3  0
  9 13  2  0
  9 15  2  0
  9 18  4  0
 10 16  4  0
 12 13  4  0
 12 15  3  0
 12 18  4  0
 13 17  2  0
 13 18  3  0
 14 16  4  0
 15 17  2  0
M  END
$$$$

 Created by Python create_sdf_string function

 26 20  0  0  0  0  0  0  0  0999 V2000
   10.6152   -3.5282   21.9409 C   0  0  0  0  0  0  0  0  0  0  0  0
    7.8110   -7.3934   16.6488 C   0  0  0  0  0  0  0  0  0  0  0  0
   10.2478   -4.1290   16.2276 N   0  0  0  0  0  0  0  0  0  0  0  0
    9.6892   -1.7543   25.6913 C   0  0  0  0  0  0  0  0  0  0  0  0
    4.7471   -8.3052   16.8137 C   0  0  0  0  0  0  0  0  0  0  0  0
    6.4015   -7.1329   15.6194 C   0  0  0  0  0  0  0  0  0  0  0  0
   10.2480   -5.1823   19.8621 C   0  0  0  0  0  0  0  0  0  0  0  0
   10.4133   -2.8857   23.2108 C   0  0  0  0  0  0  0  0  0  0  0  0
    5.2828   -7.2244   15.6476 C   0  0  0  0  0  0  0  0  0  0  0  0
    9.8661   -1.6910   23.2967 N   0  0  0  0  0  0  0  0  0  0  0  0
   10.3700   -2.8939   25.6716 C   0  0  0  0  0  0  0  0  0  0  0  0
   10.7720   -2.9744   20.7038 N   0  0  0  0  0  0  0  0  0  0  0  0
    8.9290   -6.7956   17.7325 C   0  0  0  0  0  0  0  0  0  0  0  0
   10.6507   -4.8519   21.8258 C   0  0  0  0  0  0  0  0  0  0  0  0
    7.0629   -8.3618   17.2522 C   0  0  0  0  0  0  0  0  0  0  0  0
    6.2599   -8.3112   16.3772 C   0  0  0  0  0  0  0  0  0  0  0  0
    8.9279   -8.1067   17.1485 C   0  0  0  0  0  0  0  0  0  0  0  0
    4.8693   -8.4427   17.2521 C   0  0  0  0  0  0  0  0  0  0  0  0
   10.1102   -5.4755   19.7073 C   0  0  0  0  0  0  0  0  0  0  0  0
    9.4202   -5.1973   16.4574 C   0  0  0  0  0  0  0  0  0  0  0  0
    9.4533   -1.1217   24.4879 C   0  0  0  0  0  0  0  0  0  0  0  0
   10.7854   -3.7118   17.2153 C   0  0  0  0  0  0  0  0  0  0  0  0
   10.7643   -3.6086   19.5592 C   0  0  0  0  0  0  0  0  0  0  0  0
    9.3585   -5.8653   17.2077 C   0  0  0  0  0  0  0  0  0  0  0  0
   10.7149   -3.4988   24.4455 C   0  0  0  0  0  0  0  0  0  0  0  0
   10.6660   -3.9839   18.3710 C   0  0  0  0  0  0  0  0  0  0  0  0
  1  8  1  0
  1 12  4  0
  1 14  4  0
  3 20  4  0
  3 22  4  0
  4 11  4  0
  4 21  4  0
  5 18  4  0
  6  9  4  0
  7 14  4  0
  7 19  4  0
  8 10  4  0
  8 25  4  0
 10 21  4  0
 11 25  4  0
 12 23  4  0
 14 19  4  0
 20 24  4  0
 22 26  4  0
 23 26  4  0
M  END
$$$$

 Created by Python create_sdf_string function

 26 36  0  0  0  0  0  0  0  0999 V2000
   10.7483   -3.4971   22.0716 C   0  0  0  0  0  0  0  0  0  0  0  0
   10.4830   -4.2672   16.4285 N   0  0  0  0  0  0  0  0  0  0  0  0
    9.7430   -1.6842   26.0039 C   0  0  0  0  0  0  0  0  0  0  0  0
    5.2061   -9.4349   16.5261 C   0  0  0  0  0  0  0  0  0  0  0  0
   10.6188   -2.9723   23.3480 C   0  0  0  0  0  0  0  0  0  0  0  0
    4.8260   -6.0864   14.2827 F   0  0  0  0  0  0  0  0  0  0  0  0
    9.8188   -1.3152   23.2703 N   0  0  0  0  0  0  0  0  0  0  0  0
   10.6573   -2.7801   21.2122 N   0  0  0  0  0  0  0  0  0  0  0  0
    9.1591   -6.7644   16.8281 P   0  0  0  0  0  0  0  0  0  0  0  0
   10.4603   -4.9165   22.3505 C   0  0  0  0  0  0  0  0  0  0  0  0
    7.0838   -7.6572   16.9105 C   0  0  0  0  0  0  0  0  0  0  0  0
    7.5678   -8.4816   17.9533 S   0  0  0  0  0  0  0  0  0  0  0  0
    9.8543   -5.4318   19.2558 Br  0  0  0  0  0  0  0  0  0  0  0  0
    8.3282   -4.1733   16.9972 C   0  0  0  0  0  0  0  0  0  0  0  0
    9.6384   -1.6540   24.7516 C   0  0  0  0  0  0  0  0  0  0  0  0
   10.3138   -4.1019   19.8673 C   0  0  0  0  0  0  0  0  0  0  0  0
    9.6646   -6.1088   16.7882 C   0  0  0  0  0  0  0  0  0  0  0  0
   10.3541   -3.4558   24.2432 C   0  0  0  0  0  0  0  0  0  0  0  0
    8.5126   -5.8770   17.7016 He  0  0  0  0  0  0  0  0  0  0  0  0
    6.0594   -6.4756   15.5347 He  0  0  0  0  0  0  0  0  0  0  0  0
   11.4096   -4.3165   19.3859 He  0  0  0  0  0  0  0  0  0  0  0  0
    9.9495   -3.2474   25.9160 He  0  0  0  0  0  0  0  0  0  0  0  0
    8.2578   -9.0160   18.1826 He  0  0  0  0  0  0  0  0  0  0  0  0
    5.2736   -8.7334   16.2637 He  0  0  0  0  0  0  0  0  0  0  0  0
    9.3539   -5.0483   15.6949 He  0  0  0  0  0  0  0  0  0  0  0  0
   11.3906   -2.9604   18.4163 He  0  0  0  0  0  0  0  0  0  0  0  0
  1  5  1  0
  1 10  4  0
  1 12  4  0
  1 17  3  0
  2  5  4  0
  2 14  2  0
  3  4  1  0
  3  6  4  0
  3  8  4  0
  3 10  4  0
  3 16  2  0
  4  6  1  0
  4 11  3  0
  4 12  3  0
  4 13  2  0
  4 17  2  0
  5  6  3  0
  5  7  4  0
  5 18  1  0
  6 11  4  0
  6 14  1  0
  6 16  1  0
  7 14  1  0
  7 15  4  0
  8 12  3  0
  8 16  4  0
  9 10  1  0
  9 13  3  0
  9 15  3  0
 10 11  1  0
 10 13  3  0
 11 12  4  0
 11 15  2  0
 12 18  4  0
 13 17  2  0
 14 17  4  0
M  END
$$$$

 Created by Python create_sdf_string function

 26 24  0  0  0  0  0  0  0  0999 V2000
   10.6121   -3.4824   22.1681 C   0  0  0  0  0  0  0  0  0  0  0  0
    9.1544   -6.3402   17.6152 C   0  0  0  0  0  0  0  0  0  0  0  0
   10.5197   -3.9412   16.5590 N   0  0  0  0  0  0  0  0  0  0  0  0
    9.6227   -1.8580   25.8714 C   0  0  0  0  0  0  0  0  0  0  0  0
    5.4083   -8.8744   16.7972 C   0  0  0  0  0  0  0  0  0  0  0  0
    6.2115   -6.9177   15.5302 C   0  0  0  0  0  0  0  0  0  0  0  0
   10.5689   -4.2010   18.9298 C   0  0  0  0  0  0  0  0  0  0  0  0
   10.3120   -2.8718   23.3951 C   0  0  0  0  0  0  0  0  0  0  0  0
    5.3111   -7.0683   15.2679 C   0  0  0  0  0  0  0  0  0  0  0  0
    9.9543   -1.5737   23.4870 N   0  0  0  0  0  0  0  0  0  0  0  0
   10.0175   -3.1694   25.7847 C   0  0  0  0  0  0  0  0  0  0  0  0
   10.7592   -2.9289   21.0015 N   0  0  0  0  0  0  0  0  0  0  0  0
    8.7573   -6.8502   17.3426 C   0  0  0  0  0  0  0  0  0  0  0  0
   10.7767   -4.8869   21.8879 C   0  0  0  0  0  0  0  0  0  0  0  0
    7.1041   -7.5985   16.7051 C   0  0  0  0  0  0  0  0  0  0  0  0
    7.0166   -8.3086   17.2317 C   0  0  0  0  0  0  0  0  0  0  0  0
    8.2892   -8.4937   17.7741 C   0  0  0  0  0  0  0  0  0  0  0  0
    5.1994   -8.5234   16.4445 C   0  0  0  0  0  0  0  0  0  0  0  0
   10.3362   -5.3030   20.0304 C   0  0  0  0  0  0  0  0  0  0  0  0
    9.5987   -4.6458   16.5867 C   0  0  0  0  0  0  0  0  0  0  0  0
    9.6042   -1.1023   24.7267 C   0  0  0  0  0  0  0  0  0  0  0  0
    9.3709   -4.6767   16.2263 N   0  0  0  0  0  0  0  0  0  0  0  0
   10.8368   -3.7393   19.8213 C   0  0  0  0  0  0  0  0  0  0  0  0
    9.6470   -5.5656   17.9245 C   0  0  0  0  0  0  0  0  0  0  0  0
   10.3766   -3.6769   24.5491 C   0  0  0  0  0  0  0  0  0  0  0  0
   11.0090   -3.2700   18.3329 C   0  0  0  0  0  0  0  0  0  0  0  0
  1  8  1  0
  1 12  4  0
  1 14  4  0
  2 13  4  0
  2 24  4  0
  3 20  4  0
  4 11  4  0
  4 21  4  0
  5 16  4  0
  5 18  4  0
  6  9  4  0
  6 15  4  0
  7 19  4  0
  7 23  4  0
  7 26  4  0
  8 10  4  0
  8 25  4  0
  9 18  4  0
 10 21  4  0
 11 25  4  0
 12 23  4  0
 14 19  4  0
 15 16  4  0
 20 22  4  0
M  END
$$$$

 Created by Python create_sdf_string function

 26 47  0  0  0  0  0  0  0  0999 V2000
    9.8715   -6.4415   17.8238 C   0  0  0  0  0  0  0  0  0  0  0  0
   10.3411   -3.8906   16.4530 O   0  0  0  0  0  0  0  0  0  0  0  0
    9.2623   -1.9668   26.1663 Se  0  0  0  0  0  0  0  0  0  0  0  0
    3.6032   -9.1808   16.4934 C   0  0  0  0  0  0  0  0  0  0  0  0
   10.4026   -4.2267   18.7994 C   0  0  0  0  0  0  0  0  0  0  0  0
   10.2625   -2.5238   23.9098 C   0  0  0  0  0  0  0  0  0  0  0  0
    5.2007   -6.0810   15.1670 C   0  0  0  0  0  0  0  0  0  0  0  0
   10.3193   -1.8185   23.2000 N   0  0  0  0  0  0  0  0  0  0  0  0
   10.3067   -3.2741   26.2513 C   0  0  0  0  0  0  0  0  0  0  0  0
   11.1398   -2.6251   21.0600 N   0  0  0  0  0  0  0  0  0  0  0  0
   10.7442   -5.0556   21.9360 C   0  0  0  0  0  0  0  0  0  0  0  0
    7.0741   -8.4524   16.9627 C   0  0  0  0  0  0  0  0  0  0  0  0
    6.0180   -8.8304   16.0247 N   0  0  0  0  0  0  0  0  0  0  0  0
   10.3777   -5.6071   20.3333 Cl  0  0  0  0  0  0  0  0  0  0  0  0
    9.5084   -1.1618   24.6949 C   0  0  0  0  0  0  0  0  0  0  0  0
    8.7820   -3.4510   14.7349 Cl  0  0  0  0  0  0  0  0  0  0  0  0
   10.0852   -3.9078   19.6885 O   0  0  0  0  0  0  0  0  0  0  0  0
    9.5680   -5.4435   17.5069 C   0  0  0  0  0  0  0  0  0  0  0  0
   10.2223   -3.5527   24.4896 Br  0  0  0  0  0  0  0  0  0  0  0  0
   10.3705   -3.0216   19.3129 O   0  0  0  0  0  0  0  0  0  0  0  0
   10.6166   -4.1626   22.1299 He  0  0  0  0  0  0  0  0  0  0  0  0
    7.5178   -6.8121   15.2189 He  0  0  0  0  0  0  0  0  0  0  0  0
   10.6184   -7.8351   17.9435 He  0  0  0  0  0  0  0  0  0  0  0  0
    7.4138   -8.1145   16.2187 He  0  0  0  0  0  0  0  0  0  0  0  0
    8.5632   -7.6419   18.2099 He  0  0  0  0  0  0  0  0  0  0  0  0
   10.2623   -4.4582   17.1829 He  0  0  0  0  0  0  0  0  0  0  0  0
  1  4  4  0
  1  7  2  0
  1 10  4  0
  1 12  3  0
  1 17  2  0
  1 19  4  0
  2 16  1  0
  2 18  3  0
  3  9  4  0
  3 12  2  0
  3 20  2  0
  4  8  4  0
  4 11  1  0
  4 12  4  0
  4 13  1  0
  5  9  4  0
  5 10  2  0
  5 12  2  0
  5 13  1  0
  5 16  3  0
  5 17  4  0
  5 19  4  0
  6 12  4  0
  6 17  4  0
  6 19  4  0
  7  8  1  0
  7 14  1  0
  7 15  2  0
  7 19  3  0
  8  9  1  0
  8 13  1  0
  8 14  2  0
  8 15  4  0
  8 19  1  0
  9 12  4  0
 10 17  4  0
 11 12  2  0
 11 13  2  0
 11 14  4  0
 11 15  4  0
 11 16  4  0
 12 15  2  0
 12 16  3  0
 13 20  2  0
 15 16  4  0
 16 18  3  0
 16 19  2  0
M  END
$$$$

 Created by Python create_sdf_string function

 26 24  0  0  0  0  0  0  0  0999 V2000
   10.6404   -3.6375   22.1971 C   0  0  0  0  0  0  0  0  0  0  0  0
    9.6315   -6.3027   17.8113 C   0  0  0  0  0  0  0  0  0  0  0  0
   10.0128   -3.9006   16.5571 C   0  0  0  0  0  0  0  0  0  0  0  0
    9.4982   -1.9281   25.8361 C   0  0  0  0  0  0  0  0  0  0  0  0
    4.5812   -8.6445   16.5178 C   0  0  0  0  0  0  0  0  0  0  0  0
    7.0067   -6.5597   15.7776 C   0  0  0  0  0  0  0  0  0  0  0  0
   10.5755   -4.5419   19.4243 C   0  0  0  0  0  0  0  0  0  0  0  0
   10.3705   -3.0069   23.4594 C   0  0  0  0  0  0  0  0  0  0  0  0
    5.9774   -7.0492   15.5955 C   0  0  0  0  0  0  0  0  0  0  0  0
    9.9215   -1.6810   23.4826 N   0  0  0  0  0  0  0  0  0  0  0  0
    9.9688   -3.1911   25.8196 C   0  0  0  0  0  0  0  0  0  0  0  0
   10.6805   -2.9985   21.0148 N   0  0  0  0  0  0  0  0  0  0  0  0
    9.9354   -7.6655   18.2902 O   0  0  0  0  0  0  0  0  0  0  0  0
   10.8212   -4.9907   21.9783 C   0  0  0  0  0  0  0  0  0  0  0  0
    7.6201   -8.1849   17.1280 C   0  0  0  0  0  0  0  0  0  0  0  0
    6.6012   -8.7788   17.0555 C   0  0  0  0  0  0  0  0  0  0  0  0
    8.1709   -7.3576   17.1446 C   0  0  0  0  0  0  0  0  0  0  0  0
    5.5970   -8.1560   16.3995 C   0  0  0  0  0  0  0  0  0  0  0  0
   10.7097   -5.5157   20.5506 C   0  0  0  0  0  0  0  0  0  0  0  0
   10.0708   -4.4937   17.3159 C   0  0  0  0  0  0  0  0  0  0  0  0
    9.4546   -1.1717   24.6923 C   0  0  0  0  0  0  0  0  0  0  0  0
    9.2159   -3.6820   15.7273 C   0  0  0  0  0  0  0  0  0  0  0  0
   10.7164   -3.5333   19.6800 C   0  0  0  0  0  0  0  0  0  0  0  0
    9.4458   -5.9415   17.5658 C   0  0  0  0  0  0  0  0  0  0  0  0
   10.4374   -3.7167   24.6456 C   0  0  0  0  0  0  0  0  0  0  0  0
   10.6484   -3.2054   18.4314 N   0  0  0  0  0  0  0  0  0  0  0  0
  1  8  1  0
  1 12  4  0
  1 14  4  0
  2 13  2  0
  2 24  1  0
  3 22  1  0
  4 11  4  0
  4 21  4  0
  5 18  1  0
  6  9  4  0
  6 17  4  0
  7 19  4  0
  7 23  4  0
  8 10  4  0
  8 25  4  0
  9 18  4  0
 10 21  4  0
 11 25  4  0
 12 23  4  0
 14 19  4  0
 15 16  4  0
 15 17  4  0
 16 18  4  0
 17 24  1  0
M  END
$$$$

 Created by Python create_sdf_string function

 26 51  0  0  0  0  0  0  0  0999 V2000
   10.5625   -3.5858   21.9431 C   0  0  0  0  0  0  0  0  0  0  0  0
    9.2997   -7.1099   16.5556 C   0  0  0  0  0  0  0  0  0  0  0  0
    9.8111   -3.4085   16.7774 C   0  0  0  0  0  0  0  0  0  0  0  0
    9.5266   -1.6230   26.1102 C   0  0  0  0  0  0  0  0  0  0  0  0
    4.2589   -8.4213   16.7584 P   0  0  0  0  0  0  0  0  0  0  0  0
   11.4224   -4.8705   21.3177 C   0  0  0  0  0  0  0  0  0  0  0  0
    9.9025   -1.1184   24.1198 N   0  0  0  0  0  0  0  0  0  0  0  0
    9.8902   -3.2078   25.8821 C   0  0  0  0  0  0  0  0  0  0  0  0
   10.2373   -2.8764   20.9804 N   0  0  0  0  0  0  0  0  0  0  0  0
   10.7296   -5.0806   21.4650 C   0  0  0  0  0  0  0  0  0  0  0  0
    7.4431   -8.5560   16.8154 C   0  0  0  0  0  0  0  0  0  0  0  0
    6.9440   -8.9444   17.3019 I   0  0  0  0  0  0  0  0  0  0  0  0
    8.0669   -7.7503   16.6868 C   0  0  0  0  0  0  0  0  0  0  0  0
   10.3453   -5.7079   20.3028 C   0  0  0  0  0  0  0  0  0  0  0  0
    9.1871   -5.8735   17.6985 C   0  0  0  0  0  0  0  0  0  0  0  0
   10.7241   -2.9903   19.5488 C   0  0  0  0  0  0  0  0  0  0  0  0
    9.3586   -5.8156   17.4143 C   0  0  0  0  0  0  0  0  0  0  0  0
   10.5794   -3.5267   24.7181 C   0  0  0  0  0  0  0  0  0  0  0  0
   12.0601   -4.1375   18.9832 N   0  0  0  0  0  0  0  0  0  0  0  0
    7.6490   -6.3421   16.2244 He  0  0  0  0  0  0  0  0  0  0  0  0
   10.4896   -2.7049   23.5670 He  0  0  0  0  0  0  0  0  0  0  0  0
    5.4541   -7.0850   15.9582 He  0  0  0  0  0  0  0  0  0  0  0  0
    9.5064   -7.3976   18.6805 He  0  0  0  0  0  0  0  0  0  0  0  0
    6.0949   -7.5005   17.5181 He  0  0  0  0  0  0  0  0  0  0  0  0
    9.1475   -1.2854   24.5695 He  0  0  0  0  0  0  0  0  0  0  0  0
    9.4378   -2.5367   15.2642 He  0  0  0  0  0  0  0  0  0  0  0  0
  1  3  1  0
  1  9  4  0
  1 10  4  0
  1 12  1  0
  1 13  1  0
  1 18  3  0
  1 19  3  0
  2  3  2  0
  2  4  1  0
  2  5  1  0
  2  6  1  0
  2  7  2  0
  2  8  4  0
  2 11  4  0
  2 14  4  0
  2 15  4  0
  2 16  1  0
  2 18  1  0
  2 19  2  0
  3  5  1  0
  3  6  3  0
  3 13  3  0
  4  5  4  0
  4  8  4  0
  4 12  2  0
  4 19  4  0
  5  8  1  0
  5 17  4  0
  5 18  1  0
  5 19  1  0
  6 11  1  0
  6 16  4  0
  7 13  2  0
  7 14  3  0
  7 15  4  0
  8 12  1  0
  8 13  1  0
  8 17  3  0
  8 18  4  0
 10 13  1  0
 10 14  4  0
 11 12  2  0
 11 14  4  0
 11 16  4  0
 11 17  2  0
 12 14  3  0
 12 15  3  0
 12 17  1  0
 13 19  1  0
 15 16  1  0
 15 17  1  0
M  END
$$$$

 Created by Python create_sdf_string function

 26 27  0  0  0  0  0  0  0  0999 V2000
   10.5833   -3.4659   22.1812 C   0  0  0  0  0  0  0  0  0  0  0  0
    9.0502   -6.3431   16.7819 C   0  0  0  0  0  0  0  0  0  0  0  0
   10.1317   -3.6167   17.0237 C   0  0  0  0  0  0  0  0  0  0  0  0
    9.3953   -1.7920   25.9450 C   0  0  0  0  0  0  0  0  0  0  0  0
    4.4352   -8.6320   17.0661 N   0  0  0  0  0  0  0  0  0  0  0  0
    7.0605   -6.6050   16.2563 C   0  0  0  0  0  0  0  0  0  0  0  0
   10.7457   -4.3934   19.5881 C   0  0  0  0  0  0  0  0  0  0  0  0
   10.2994   -2.8272   23.4977 C   0  0  0  0  0  0  0  0  0  0  0  0
    5.7600   -7.0542   16.2415 C   0  0  0  0  0  0  0  0  0  0  0  0
    9.8289   -1.5132   23.6216 N   0  0  0  0  0  0  0  0  0  0  0  0
    9.9752   -3.0452   25.8629 C   0  0  0  0  0  0  0  0  0  0  0  0
   10.6739   -2.6848   21.1959 N   0  0  0  0  0  0  0  0  0  0  0  0
    9.9709   -7.3083   18.3852 S   0  0  0  0  0  0  0  0  0  0  0  0
   10.8192   -4.8579   21.9643 C   0  0  0  0  0  0  0  0  0  0  0  0
    7.6517   -8.4221   17.2816 C   0  0  0  0  0  0  0  0  0  0  0  0
    6.4435   -8.9534   17.4052 C   0  0  0  0  0  0  0  0  0  0  0  0
    7.9649   -7.4174   16.8581 C   0  0  0  0  0  0  0  0  0  0  0  0
    5.5852   -8.1526   16.9271 C   0  0  0  0  0  0  0  0  0  0  0  0
   10.7516   -5.3484   20.6199 C   0  0  0  0  0  0  0  0  0  0  0  0
    9.7017   -6.1023   17.4956 C   0  0  0  0  0  0  0  0  0  0  0  0
    9.3561   -1.0320   24.8204 C   0  0  0  0  0  0  0  0  0  0  0  0
    9.4920   -3.7996   16.1404 N   0  0  0  0  0  0  0  0  0  0  0  0
   10.8524   -3.1157   19.9705 C   0  0  0  0  0  0  0  0  0  0  0  0
    9.8175   -6.0002   17.5930 C   0  0  0  0  0  0  0  0  0  0  0  0
   10.4194   -3.5506   24.6429 C   0  0  0  0  0  0  0  0  0  0  0  0
   10.8254   -4.3151   18.3409 N   0  0  0  0  0  0  0  0  0  0  0  0
  1  8  1  0
  1 12  4  0
  1 14  4  0
  2 20  4  0
  3 22  4  0
  3 26  4  0
  4 11  4  0
  4 21  4  0
  5 18  1  0
  6  9  4  0
  6 17  4  0
  7 19  4  0
  7 23  4  0
  7 26  1  0
  8 10  4  0
  8 25  4  0
  9 18  4  0
 10 21  4  0
 11 25  4  0
 12 23  4  0
 13 20  4  0
 13 24  4  0
 14 19  4  0
 15 16  4  0
 15 17  4  0
 16 18  4  0
 20 24  4  0
M  END
$$$$

 Created by Python create_sdf_string function

 26 42  0  0  0  0  0  0  0  0999 V2000
   10.7463   -3.9905   21.9607 S   0  0  0  0  0  0  0  0  0  0  0  0
   10.0706   -3.6388   16.8146 C   0  0  0  0  0  0  0  0  0  0  0  0
    9.3623   -1.7835   25.8236 C   0  0  0  0  0  0  0  0  0  0  0  0
    7.0676   -6.7627   16.4844 C   0  0  0  0  0  0  0  0  0  0  0  0
   11.3218   -4.9729   19.6466 C   0  0  0  0  0  0  0  0  0  0  0  0
   10.6475   -2.7129   23.3079 C   0  0  0  0  0  0  0  0  0  0  0  0
    6.3610   -9.0662   15.8330 C   0  0  0  0  0  0  0  0  0  0  0  0
   10.0118   -1.5494   23.5761 O   0  0  0  0  0  0  0  0  0  0  0  0
   10.1380   -2.8995   25.8462 C   0  0  0  0  0  0  0  0  0  0  0  0
   10.4051   -2.3006   21.1251 N   0  0  0  0  0  0  0  0  0  0  0  0
   10.9326   -4.4812   22.2563 C   0  0  0  0  0  0  0  0  0  0  0  0
    8.1245   -6.6599   18.2752 C   0  0  0  0  0  0  0  0  0  0  0  0
    5.7864   -8.1572   16.9625 C   0  0  0  0  0  0  0  0  0  0  0  0
   10.9109   -5.4485   20.5659 O   0  0  0  0  0  0  0  0  0  0  0  0
   10.4087   -6.0861   18.8759 Cl  0  0  0  0  0  0  0  0  0  0  0  0
    9.4432   -3.7355   16.7778 Cl  0  0  0  0  0  0  0  0  0  0  0  0
    9.6745   -5.8959   17.4705 C   0  0  0  0  0  0  0  0  0  0  0  0
   10.7578   -2.9185   24.8980 C   0  0  0  0  0  0  0  0  0  0  0  0
   11.5110   -3.7582   18.5359 S   0  0  0  0  0  0  0  0  0  0  0  0
    9.2636   -5.5641   18.0935 He  0  0  0  0  0  0  0  0  0  0  0  0
    5.3127   -9.9306   16.1420 He  0  0  0  0  0  0  0  0  0  0  0  0
    9.8628   -6.3062   18.8026 He  0  0  0  0  0  0  0  0  0  0  0  0
    7.5422   -8.5125   17.7991 He  0  0  0  0  0  0  0  0  0  0  0  0
    5.7653   -9.6289   17.7565 He  0  0  0  0  0  0  0  0  0  0  0  0
    9.2521   -0.6577   24.5876 He  0  0  0  0  0  0  0  0  0  0  0  0
   11.2253   -3.3873   19.8086 He  0  0  0  0  0  0  0  0  0  0  0  0
  1  4  4  0
  1  6  1  0
  1 10  2  0
  1 11  4  0
  1 18  3  0
  2 13  3  0
  2 19  1  0
  3  5  2  0
  3  7  4  0
  3  9  4  0
  3 11  3  0
  3 13  4  0
  3 17  2  0
  4  6  3  0
  4  7  4  0
  4  9  3  0
  4 10  2  0
  4 13  4  0
  4 16  1  0
  4 17  2  0
  5 12  4  0
  5 18  2  0
  5 19  1  0
  6  8  4  0
  6 19  3  0
  7 10  1  0
  7 13  1  0
  7 16  1  0
  8 17  2  0
  9 18  4  0
 10 13  3  0
 10 14  2  0
 10 16  4  0
 11 16  2  0
 12 18  3  0
 12 19  3  0
 13 15  4  0
 13 16  4  0
 13 17  1  0
 13 19  4  0
 15 17  3  0
 18 19  1  0
M  END
$$$$

 Created by Python create_sdf_string function

 26 25  0  0  0  0  0  0  0  0999 V2000
   10.8021   -3.4108   22.2696 C   0  0  0  0  0  0  0  0  0  0  0  0
    9.3452   -5.5748   17.4096 N   0  0  0  0  0  0  0  0  0  0  0  0
   10.3809   -3.6156   17.0863 C   0  0  0  0  0  0  0  0  0  0  0  0
    9.4168   -1.5970   25.8151 C   0  0  0  0  0  0  0  0  0  0  0  0
    5.4223   -9.4496   15.9198 O   0  0  0  0  0  0  0  0  0  0  0  0
    6.8505   -7.2176   16.1848 C   0  0  0  0  0  0  0  0  0  0  0  0
   10.8063   -4.7885   19.8876 C   0  0  0  0  0  0  0  0  0  0  0  0
   10.4651   -2.7373   23.5118 C   0  0  0  0  0  0  0  0  0  0  0  0
    6.2788   -8.5396   16.2108 C   0  0  0  0  0  0  0  0  0  0  0  0
    9.9145   -1.5152   23.5375 C   0  0  0  0  0  0  0  0  0  0  0  0
   10.0705   -2.7817   25.9084 C   0  0  0  0  0  0  0  0  0  0  0  0
   10.8813   -2.7871   21.1266 N   0  0  0  0  0  0  0  0  0  0  0  0
    9.9655   -6.8128   18.6742 N   0  0  0  0  0  0  0  0  0  0  0  0
   10.9809   -4.8031   22.2121 C   0  0  0  0  0  0  0  0  0  0  0  0
    7.3734   -8.2491   17.8258 C   0  0  0  0  0  0  0  0  0  0  0  0
    6.0212   -8.8727   17.5913 C   0  0  0  0  0  0  0  0  0  0  0  0
    8.4006   -7.0575   17.6372 C   0  0  0  0  0  0  0  0  0  0  0  0
    6.1134   -8.1072   16.8339 C   0  0  0  0  0  0  0  0  0  0  0  0
   10.9269   -5.4345   21.0287 C   0  0  0  0  0  0  0  0  0  0  0  0
   10.2335   -5.7567   18.7168 C   0  0  0  0  0  0  0  0  0  0  0  0
    9.3702   -0.9484   24.6239 N   0  0  0  0  0  0  0  0  0  0  0  0
    9.6940   -3.8728   16.3996 N   0  0  0  0  0  0  0  0  0  0  0  0
   10.9411   -3.4392   19.8709 C   0  0  0  0  0  0  0  0  0  0  0  0
    9.0703   -6.0758   17.4009 C   0  0  0  0  0  0  0  0  0  0  0  0
   10.5787   -3.3841   24.8140 C   0  0  0  0  0  0  0  0  0  0  0  0
   10.9605   -3.2709   18.2790 S   0  0  0  0  0  0  0  0  0  0  0  0
  1  8  1  0
  1 12  4  0
  1 14  4  0
  2 24  4  0
  3 22  4  0
  3 26  1  0
  4 11  4  0
  4 21  4  0
  5  9  1  0
  6  9  4  0
  6 18  4  0
  7 19  4  0
  7 20  4  0
  7 23  4  0
  8 10  4  0
  8 25  4  0
 10 21  4  0
 11 25  4  0
 12 23  4  0
 13 20  4  0
 14 19  4  0
 15 16  4  0
 16 18  4  0
 17 24  1  0
 23 26  4  0
M  END
$$$$

 Created by Python create_sdf_string function

 26 48  0  0  0  0  0  0  0  0999 V2000
   10.9011   -3.1959   22.3974 O   0  0  0  0  0  0  0  0  0  0  0  0
    9.5943   -1.9472   25.9775 C   0  0  0  0  0  0  0  0  0  0  0  0
   11.3494   -4.7365   18.8921 F   0  0  0  0  0  0  0  0  0  0  0  0
   10.7854   -2.9929   23.0622 C   0  0  0  0  0  0  0  0  0  0  0  0
   10.4215   -1.3719   23.2645 C   0  0  0  0  0  0  0  0  0  0  0  0
   10.3035   -3.6736   25.7791 Cl  0  0  0  0  0  0  0  0  0  0  0  0
   10.9161   -2.7122   21.3258 O   0  0  0  0  0  0  0  0  0  0  0  0
   10.9721   -4.6079   21.7715 C   0  0  0  0  0  0  0  0  0  0  0  0
    6.9038   -7.1084   18.1651 N   0  0  0  0  0  0  0  0  0  0  0  0
    6.3594   -9.4160   17.1715 F   0  0  0  0  0  0  0  0  0  0  0  0
    8.3155   -6.8026   17.3093 C   0  0  0  0  0  0  0  0  0  0  0  0
    6.5806   -7.3859   17.0771 C   0  0  0  0  0  0  0  0  0  0  0  0
   10.5394   -5.4600   20.4847 C   0  0  0  0  0  0  0  0  0  0  0  0
    9.4981   -1.2674   24.1743 N   0  0  0  0  0  0  0  0  0  0  0  0
   10.2091   -3.6379   16.1242 N   0  0  0  0  0  0  0  0  0  0  0  0
   11.3075   -3.5644   19.5139 C   0  0  0  0  0  0  0  0  0  0  0  0
    8.9523   -5.9257   17.4631 C   0  0  0  0  0  0  0  0  0  0  0  0
   10.6345   -2.9962   24.7093 C   0  0  0  0  0  0  0  0  0  0  0  0
    9.8506   -3.9712   17.8468 P   0  0  0  0  0  0  0  0  0  0  0  0
    7.9938   -5.3530   18.3847 He  0  0  0  0  0  0  0  0  0  0  0  0
   10.4289   -3.6539   17.3542 He  0  0  0  0  0  0  0  0  0  0  0  0
    4.7377  -10.8938   15.8895 He  0  0  0  0  0  0  0  0  0  0  0  0
    6.1497   -7.8636   14.7412 He  0  0  0  0  0  0  0  0  0  0  0  0
    6.1064   -8.7550   16.8081 He  0  0  0  0  0  0  0  0  0  0  0  0
   11.2751   -7.8477   18.0581 He  0  0  0  0  0  0  0  0  0  0  0  0
   10.2863   -5.3563   18.9429 He  0  0  0  0  0  0  0  0  0  0  0  0
  1  7  4  0
  1  8  4  0
  1 10  4  0
  1 16  3  0
  2  3  2  0
  2  4  3  0
  2  5  3  0
  2  6  4  0
  2  8  4  0
  2 14  4  0
  2 18  3  0
  3  7  4  0
  3  9  2  0
  3 14  3  0
  3 16  4  0
  3 18  2  0
  4 11  3  0
  4 12  3  0
  4 19  1  0
  5  7  2  0
  5  8  4  0
  5  9  4  0
  5 10  2  0
  5 11  4  0
  5 14  3  0
  5 16  2  0
  6 10  3  0
  6 18  4  0
  7  9  3  0
  7 10  1  0
  7 14  1  0
  7 16  1  0
  8 11  1  0
  8 13  4  0
  8 15  1  0
  8 19  3  0
  9 11  1  0
 12 13  1  0
 12 15  1  0
 12 19  1  0
 13 18  4  0
 13 19  3  0
 15 16  1  0
 15 17  4  0
 15 18  2  0
 16 18  4  0
 17 18  4  0
 17 19  3  0
M  END
$$$$

 Created by Python create_sdf_string function

 26 24  0  0  0  0  0  0  0  0999 V2000
   10.9272   -3.5015   22.0264 C   0  0  0  0  0  0  0  0  0  0  0  0
    8.8029   -5.9740   17.4838 C   0  0  0  0  0  0  0  0  0  0  0  0
   10.4175   -3.8560   17.0695 C   0  0  0  0  0  0  0  0  0  0  0  0
    9.4416   -2.0021   25.7235 C   0  0  0  0  0  0  0  0  0  0  0  0
    5.2929   -9.6832   16.3163 O   0  0  0  0  0  0  0  0  0  0  0  0
    6.1848   -8.1071   15.6298 C   0  0  0  0  0  0  0  0  0  0  0  0
   10.7450   -4.5262   19.4170 C   0  0  0  0  0  0  0  0  0  0  0  0
   10.5688   -2.9044   23.3763 C   0  0  0  0  0  0  0  0  0  0  0  0
    5.9785   -8.7796   16.3849 C   0  0  0  0  0  0  0  0  0  0  0  0
   10.1514   -1.6040   23.5530 C   0  0  0  0  0  0  0  0  0  0  0  0
    9.9686   -3.2389   25.6539 C   0  0  0  0  0  0  0  0  0  0  0  0
   11.1304   -2.7172   20.9508 C   0  0  0  0  0  0  0  0  0  0  0  0
   10.3364   -7.3896   18.5986 S   0  0  0  0  0  0  0  0  0  0  0  0
   11.0310   -4.8360   21.8182 C   0  0  0  0  0  0  0  0  0  0  0  0
    7.3048   -7.3692   17.4441 N   0  0  0  0  0  0  0  0  0  0  0  0
    6.5104   -9.0976   17.2972 C   0  0  0  0  0  0  0  0  0  0  0  0
    8.0122   -7.1698   17.4953 C   0  0  0  0  0  0  0  0  0  0  0  0
    6.2534   -7.5817   17.0015 C   0  0  0  0  0  0  0  0  0  0  0  0
   10.8349   -5.3026   20.5330 C   0  0  0  0  0  0  0  0  0  0  0  0
   10.1555   -5.6344   18.4091 C   0  0  0  0  0  0  0  0  0  0  0  0
    9.5480   -1.1831   24.7101 N   0  0  0  0  0  0  0  0  0  0  0  0
    9.6870   -4.0973   16.1799 N   0  0  0  0  0  0  0  0  0  0  0  0
   10.9508   -3.2788   19.7360 C   0  0  0  0  0  0  0  0  0  0  0  0
    8.8812   -5.3688   16.6138 C   0  0  0  0  0  0  0  0  0  0  0  0
   10.5830   -3.6797   24.5091 C   0  0  0  0  0  0  0  0  0  0  0  0
   10.2530   -4.4508   17.7306 N   0  0  0  0  0  0  0  0  0  0  0  0
  1  8  1  0
  1 12  4  0
  1 14  4  0
  2 17  1  0
  2 24  4  0
  3 22  4  0
  3 26  4  0
  4 11  4  0
  4 21  4  0
  5  9  1  0
  6  9  1  0
  7 19  4  0
  7 20  4  0
  7 23  4  0
  8 10  4  0
  8 25  4  0
 10 21  4  0
 11 25  4  0
 12 23  4  0
 13 20  1  0
 14 19  4  0
 15 17  1  0
 15 18  1  0
 22 24  4  0
M  END
$$$$

 Created by Python create_sdf_string function

 26 43  0  0  0  0  0  0  0  0999 V2000
   10.8918   -3.2450   22.1335 C   0  0  0  0  0  0  0  0  0  0  0  0
   10.4730   -3.5281   17.3654 C   0  0  0  0  0  0  0  0  0  0  0  0
    9.5829   -2.1955   25.9099 C   0  0  0  0  0  0  0  0  0  0  0  0
    4.9446   -9.7019   17.7551 O   0  0  0  0  0  0  0  0  0  0  0  0
    6.5389   -8.1584   16.0584 C   0  0  0  0  0  0  0  0  0  0  0  0
   10.0065   -2.6769   23.0630 C   0  0  0  0  0  0  0  0  0  0  0  0
    5.0456   -9.4840   16.3995 C   0  0  0  0  0  0  0  0  0  0  0  0
    9.9915   -1.5355   23.4318 C   0  0  0  0  0  0  0  0  0  0  0  0
    9.7980   -3.3640   25.9021 C   0  0  0  0  0  0  0  0  0  0  0  0
   11.5151   -2.6104   20.4644 C   0  0  0  0  0  0  0  0  0  0  0  0
   11.0623   -4.9568   21.7954 C   0  0  0  0  0  0  0  0  0  0  0  0
    7.7072   -9.5490   17.2616 C   0  0  0  0  0  0  0  0  0  0  0  0
    6.5642   -7.9917   17.1077 C   0  0  0  0  0  0  0  0  0  0  0  0
   10.6795   -4.7357   20.2219 P   0  0  0  0  0  0  0  0  0  0  0  0
   10.0715   -6.0464   19.0132 C   0  0  0  0  0  0  0  0  0  0  0  0
   10.9438   -3.2287   20.0105 C   0  0  0  0  0  0  0  0  0  0  0  0
    9.3110   -5.4335   16.5142 C   0  0  0  0  0  0  0  0  0  0  0  0
   10.6215   -3.6105   24.4116 C   0  0  0  0  0  0  0  0  0  0  0  0
    8.9521   -6.2650   18.2094 He  0  0  0  0  0  0  0  0  0  0  0  0
   11.0785   -2.9790   18.3595 He  0  0  0  0  0  0  0  0  0  0  0  0
   10.8936   -6.1475   18.1789 He  0  0  0  0  0  0  0  0  0  0  0  0
    8.0186   -7.2108   17.0961 He  0  0  0  0  0  0  0  0  0  0  0  0
    5.8404   -7.5800   17.4014 He  0  0  0  0  0  0  0  0  0  0  0  0
    9.3076   -0.8363   24.9076 He  0  0  0  0  0  0  0  0  0  0  0  0
    9.7741   -4.5718   16.0208 He  0  0  0  0  0  0  0  0  0  0  0  0
   10.4424   -3.2748   17.5348 He  0  0  0  0  0  0  0  0  0  0  0  0
  1  6  1  0
  1 10  4  0
  1 11  4  0
  1 12  3  0
  1 15  4  0
  1 18  4  0
  2  4  2  0
  2  6  4  0
  2 13  4  0
  2 15  4  0
  3  7  3  0
  3  9  2  0
  4 10  3  0
  4 17  3  0
  5  8  2  0
  5 10  1  0
  5 11  2  0
  5 13  2  0
  5 14  3  0
  5 16  4  0
  5 18  4  0
  6  7  3  0
  6  8  4  0
  6 14  2  0
  6 18  4  0
  7 14  1  0
  7 16  3  0
  8 10  1  0
  8 12  3  0
  8 13  3  0
  8 16  1  0
  9 18  1  0
 10 12  1  0
 11 13  2  0
 11 14  4  0
 11 17  1  0
 12 15  2  0
 12 18  4  0
 13 15  4  0
 13 17  1  0
 13 18  4  0
 14 17  4  0
 15 17  2  0
M  END
$$$$

 Created by Python create_sdf_string function

 26 27  0  0  0  0  0  0  0  0999 V2000
   10.7509   -3.3076   22.1467 C   0  0  0  0  0  0  0  0  0  0  0  0
    9.1207   -6.3452   17.5067 C   0  0  0  0  0  0  0  0  0  0  0  0
   10.5014   -4.0257   17.4418 C   0  0  0  0  0  0  0  0  0  0  0  0
    9.4079   -1.9647   25.8903 C   0  0  0  0  0  0  0  0  0  0  0  0
    4.8893   -9.3196   17.2959 C   0  0  0  0  0  0  0  0  0  0  0  0
    6.9372   -8.5932   16.2523 C   0  0  0  0  0  0  0  0  0  0  0  0
   11.0719   -3.1342   19.1082 C   0  0  0  0  0  0  0  0  0  0  0  0
   10.3794   -2.8123   23.4013 C   0  0  0  0  0  0  0  0  0  0  0  0
    5.3433   -9.3095   16.6732 C   0  0  0  0  0  0  0  0  0  0  0  0
    9.9430   -1.5048   23.5624 C   0  0  0  0  0  0  0  0  0  0  0  0
    9.8695   -3.2406   25.7427 C   0  0  0  0  0  0  0  0  0  0  0  0
   11.1138   -2.6138   20.9623 C   0  0  0  0  0  0  0  0  0  0  0  0
   10.2177   -5.8996   18.4025 C   0  0  0  0  0  0  0  0  0  0  0  0
   10.8104   -4.6950   21.8687 C   0  0  0  0  0  0  0  0  0  0  0  0
    7.0048   -8.8157   16.6493 C   0  0  0  0  0  0  0  0  0  0  0  0
    6.3803   -7.7869   17.6675 C   0  0  0  0  0  0  0  0  0  0  0  0
    8.2352   -7.2443   17.4063 C   0  0  0  0  0  0  0  0  0  0  0  0
    6.3579   -7.6594   17.8012 C   0  0  0  0  0  0  0  0  0  0  0  0
   10.7867   -5.0944   20.5523 C   0  0  0  0  0  0  0  0  0  0  0  0
   10.2544   -5.4882   18.5765 C   0  0  0  0  0  0  0  0  0  0  0  0
    9.4319   -1.0879   24.8072 C   0  0  0  0  0  0  0  0  0  0  0  0
    9.6684   -4.3784   16.2502 N   0  0  0  0  0  0  0  0  0  0  0  0
   11.0940   -3.2900   19.8456 C   0  0  0  0  0  0  0  0  0  0  0  0
    9.0367   -5.3669   16.2440 C   0  0  0  0  0  0  0  0  0  0  0  0
   10.3752   -3.6832   24.5263 C   0  0  0  0  0  0  0  0  0  0  0  0
   11.1014   -3.0745   17.7369 O   0  0  0  0  0  0  0  0  0  0  0  0
  1  8  1  0
  1 12  4  0
  1 14  4  0
  2 13  4  0
  2 17  1  0
  2 20  4  0
  2 24  4  0
  3 20  4  0
  3 22  4  0
  3 26  4  0
  4 11  4  0
  4 21  4  0
  5  9  4  0
  6  9  4  0
  6 15  4  0
  7 12  4  0
  7 23  4  0
  7 26  1  0
  8 10  4  0
  8 25  4  0
 10 21  4  0
 11 25  4  0
 12 23  4  0
 13 20  4  0
 14 19  4  0
 16 18  4  0
 22 24  4  0
M  END
$$$$

 Created by Python create_sdf_string function

 26 65  0  0  0  0  0  0  0  0999 V2000
   10.8078   -3.3019   22.1296 C   0  0  0  0  0  0  0  0  0  0  0  0
    9.7615   -2.0979   26.1237 I   0  0  0  0  0  0  0  0  0  0  0  0
    4.8963   -8.1708   16.5298 N   0  0  0  0  0  0  0  0  0  0  0  0
    7.5132   -8.2212   16.5769 C   0  0  0  0  0  0  0  0  0  0  0  0
   10.7622   -2.4664   18.9086 O   0  0  0  0  0  0  0  0  0  0  0  0
   10.2590   -2.2547   22.9864 F   0  0  0  0  0  0  0  0  0  0  0  0
    5.1846   -9.4250   16.5628 C   0  0  0  0  0  0  0  0  0  0  0  0
   10.4549   -1.0852   23.9720 C   0  0  0  0  0  0  0  0  0  0  0  0
   10.0833   -2.7089   25.3304 C   0  0  0  0  0  0  0  0  0  0  0  0
   11.3772   -2.8204   20.5392 C   0  0  0  0  0  0  0  0  0  0  0  0
    9.5406   -5.2535   18.8946 Cl  0  0  0  0  0  0  0  0  0  0  0  0
   10.6482   -4.9947   22.0305 C   0  0  0  0  0  0  0  0  0  0  0  0
    7.0074   -8.8935   16.9194 S   0  0  0  0  0  0  0  0  0  0  0  0
    7.5175   -6.3224   17.2924 C   0  0  0  0  0  0  0  0  0  0  0  0
    5.5543   -7.6048   18.3773 C   0  0  0  0  0  0  0  0  0  0  0  0
   10.0974   -4.6301   18.1160 C   0  0  0  0  0  0  0  0  0  0  0  0
    9.4541   -1.5973   24.6760 C   0  0  0  0  0  0  0  0  0  0  0  0
   10.9295   -5.5156   16.6153 N   0  0  0  0  0  0  0  0  0  0  0  0
   11.3215   -3.3275   19.9875 C   0  0  0  0  0  0  0  0  0  0  0  0
    9.0378   -5.8448   16.4207 C   0  0  0  0  0  0  0  0  0  0  0  0
   10.3492   -3.5426   24.7023 C   0  0  0  0  0  0  0  0  0  0  0  0
   11.5336   -3.6552   18.8495 C   0  0  0  0  0  0  0  0  0  0  0  0
    8.3180   -6.0585   17.5020 He  0  0  0  0  0  0  0  0  0  0  0  0
   10.6677   -3.6972   17.7979 He  0  0  0  0  0  0  0  0  0  0  0  0
    6.4365   -7.2905   18.7344 He  0  0  0  0  0  0  0  0  0  0  0  0
   10.9629   -5.1666   20.5307 He  0  0  0  0  0  0  0  0  0  0  0  0
  1  4  3  0
  1  6  1  0
  1  9  4  0
  1 10  4  0
  1 11  3  0
  1 12  4  0
  1 16  3  0
  2  6  4  0
  2 12  3  0
  2 15  1  0
  2 17  4  0
  2 18  4  0
  3 12  2  0
  3 14  3  0
  3 17  3  0
  3 21  4  0
  3 22  4  0
  4  5  3  0
  4  7  2  0
  4  9  4  0
  4 11  1  0
  4 12  3  0
  4 16  2  0
  4 17  4  0
  5  7  3  0
  5 10  4  0
  5 13  1  0
  5 16  2  0
  5 19  4  0
  5 21  4  0
  5 22  2  0
  6  7  2  0
  6  8  4  0
  6 16  1  0
  7 16  2  0
  8 17  4  0
  8 18  3  0
  8 20  1  0
  9 14  3  0
  9 16  3  0
  9 18  3  0
  9 21  4  0
 10 11  2  0
 10 15  2  0
 10 16  4  0
 10 19  4  0
 10 20  2  0
 10 22  2  0
 11 20  2  0
 12 16  2  0
 12 20  1  0
 12 22  1  0
 13 14  1  0
 13 17  2  0
 14 21  1  0
 15 16  3  0
 15 17  1  0
 15 20  3  0
 16 19  3  0
 16 20  2  0
 17 18  1  0
 17 22  2  0
 18 19  1  0
 18 20  4  0
 18 21  2  0
M  END
$$$$

 Created by Python create_sdf_string function

 26 26  0  0  0  0  0  0  0  0999 V2000
   10.8308   -3.3301   22.2665 C   0  0  0  0  0  0  0  0  0  0  0  0
    8.8276   -6.1059   17.2333 C   0  0  0  0  0  0  0  0  0  0  0  0
   10.6901   -4.2656   17.3695 C   0  0  0  0  0  0  0  0  0  0  0  0
    9.5017   -1.8877   25.9427 C   0  0  0  0  0  0  0  0  0  0  0  0
    4.9417   -8.6176   16.8453 N   0  0  0  0  0  0  0  0  0  0  0  0
    7.3342   -8.2860   16.4102 C   0  0  0  0  0  0  0  0  0  0  0  0
   11.4068   -2.1636   18.2151 O   0  0  0  0  0  0  0  0  0  0  0  0
   10.4942   -2.8057   23.5296 C   0  0  0  0  0  0  0  0  0  0  0  0
    5.5029   -9.0820   16.1968 C   0  0  0  0  0  0  0  0  0  0  0  0
   10.0767   -1.5453   23.6712 C   0  0  0  0  0  0  0  0  0  0  0  0
    9.9222   -3.1782   25.8292 C   0  0  0  0  0  0  0  0  0  0  0  0
   11.1469   -2.7504   20.9576 C   0  0  0  0  0  0  0  0  0  0  0  0
    9.1869   -5.5266   18.4261 C   0  0  0  0  0  0  0  0  0  0  0  0
   10.8360   -4.7405   22.0717 C   0  0  0  0  0  0  0  0  0  0  0  0
    7.2442   -8.1392   16.7328 C   0  0  0  0  0  0  0  0  0  0  0  0
    6.1857   -7.5878   18.2476 C   0  0  0  0  0  0  0  0  0  0  0  0
    7.8512   -7.0044   17.3724 C   0  0  0  0  0  0  0  0  0  0  0  0
    5.4600   -7.7750   17.8983 C   0  0  0  0  0  0  0  0  0  0  0  0
   10.9363   -5.0048   20.6629 C   0  0  0  0  0  0  0  0  0  0  0  0
   10.1940   -4.6394   18.3058 C   0  0  0  0  0  0  0  0  0  0  0  0
    9.5890   -1.0629   24.8719 C   0  0  0  0  0  0  0  0  0  0  0  0
   10.2856   -4.6931   16.1165 N   0  0  0  0  0  0  0  0  0  0  0  0
   10.9861   -3.7746   19.8834 C   0  0  0  0  0  0  0  0  0  0  0  0
    9.3535   -5.6780   16.1615 C   0  0  0  0  0  0  0  0  0  0  0  0
   10.4718   -3.6687   24.6936 C   0  0  0  0  0  0  0  0  0  0  0  0
   11.0720   -3.2029   18.6895 C   0  0  0  0  0  0  0  0  0  0  0  0
  1  8  1  0
  1 12  4  0
  1 14  4  0
  2 13  4  0
  2 17  1  0
  2 24  4  0
  3 20  4  0
  3 22  4  0
  4 11  4  0
  4 21  4  0
  5  9  4  0
  5 18  4  0
  6 15  4  0
  7 26  2  0
  8 10  4  0
  8 25  4  0
 10 21  4  0
 11 25  4  0
 12 23  4  0
 13 20  4  0
 14 19  4  0
 15 17  1  0
 16 18  4  0
 19 23  4  0
 22 24  4  0
 23 26  1  0
M  END
$$$$

 Created by Python create_sdf_string function

 26 64  0  0  0  0  0  0  0  0999 V2000
   10.4101   -3.3290   22.6132 C   0  0  0  0  0  0  0  0  0  0  0  0
    8.7518   -5.6667   17.5747 P   0  0  0  0  0  0  0  0  0  0  0  0
   10.8146   -4.1376   17.4157 C   0  0  0  0  0  0  0  0  0  0  0  0
    9.4343   -2.0106   26.2127 Cl  0  0  0  0  0  0  0  0  0  0  0  0
    5.3982   -7.6572   16.0686 N   0  0  0  0  0  0  0  0  0  0  0  0
   11.4356   -2.9516   19.0276 O   0  0  0  0  0  0  0  0  0  0  0  0
   10.5193   -2.2752   23.3518 O   0  0  0  0  0  0  0  0  0  0  0  0
    5.3269   -8.6959   15.5459 P   0  0  0  0  0  0  0  0  0  0  0  0
    9.8562   -1.8458   23.5587 C   0  0  0  0  0  0  0  0  0  0  0  0
   10.3527   -3.3266   26.0314 P   0  0  0  0  0  0  0  0  0  0  0  0
   11.0869   -2.5266   20.9830 C   0  0  0  0  0  0  0  0  0  0  0  0
    9.8385   -4.5615   18.7599 F   0  0  0  0  0  0  0  0  0  0  0  0
    5.1080   -8.3517   19.2367 Cl  0  0  0  0  0  0  0  0  0  0  0  0
    8.5126   -7.3801   17.7307 I   0  0  0  0  0  0  0  0  0  0  0  0
    5.5685   -7.5330   17.5251 C   0  0  0  0  0  0  0  0  0  0  0  0
   10.6980   -5.2687   20.2817 C   0  0  0  0  0  0  0  0  0  0  0  0
    9.5744   -3.5629   17.6767 C   0  0  0  0  0  0  0  0  0  0  0  0
    9.1121   -1.0163   24.7680 C   0  0  0  0  0  0  0  0  0  0  0  0
   10.8300   -5.3276   16.4850 N   0  0  0  0  0  0  0  0  0  0  0  0
   11.0869   -3.7609   19.8207 C   0  0  0  0  0  0  0  0  0  0  0  0
    9.3866   -5.9017   16.2399 C   0  0  0  0  0  0  0  0  0  0  0  0
   11.2960   -3.6748   24.5667 C   0  0  0  0  0  0  0  0  0  0  0  0
   11.0990   -4.3966   17.9647 F   0  0  0  0  0  0  0  0  0  0  0  0
    7.6496   -8.2716   17.1158 He  0  0  0  0  0  0  0  0  0  0  0  0
   10.6781   -4.9616   22.0604 He  0  0  0  0  0  0  0  0  0  0  0  0
    6.8559   -7.9235   16.5667 He  0  0  0  0  0  0  0  0  0  0  0  0
  1  5  3  0
  1  7  1  0
  1  9  3  0
  1 11  4  0
  1 13  4  0
  1 17  4  0
  2  6  3  0
  2  8  3  0
  2 10  4  0
  2 11  2  0
  2 12  4  0
  2 14  2  0
  2 16  3  0
  2 20  1  0
  2 21  4  0
  3  8  2  0
  3 13  1  0
  4 12  2  0
  4 13  1  0
  4 15  1  0
  4 17  4  0
  4 18  4  0
  5  8  3  0
  5 13  3  0
  5 14  3  0
  5 18  1  0
  5 20  2  0
  5 22  4  0
  6  7  3  0
  6  8  2  0
  6 11  1  0
  6 23  2  0
  7  9  4  0
  7 22  4  0
  8 11  4  0
  8 18  3  0
  9 18  4  0
 10 16  3  0
 10 22  4  0
 11 12  1  0
 11 14  2  0
 11 15  4  0
 11 19  3  0
 11 20  4  0
 11 23  3  0
 12 13  3  0
 12 14  3  0
 12 15  1  0
 12 18  3  0
 12 21  1  0
 12 22  4  0
 12 23  4  0
 13 15  4  0
 14 22  2  0
 14 23  1  0
 15 18  2  0
 15 21  2  0
 15 23  4  0
 16 17  1  0
 16 20  1  0
 17 22  4  0
 17 23  2  0
 18 23  3  0
 19 21  4  0
M  END
$$$$

 Created by Python create_sdf_string function

 26 26  0  0  0  0  0  0  0  0999 V2000
   10.7450   -3.4197   22.3602 C   0  0  0  0  0  0  0  0  0  0  0  0
    8.9658   -6.3057   17.3201 C   0  0  0  0  0  0  0  0  0  0  0  0
   10.6981   -4.0898   16.6757 C   0  0  0  0  0  0  0  0  0  0  0  0
    9.4798   -1.9954   25.9803 C   0  0  0  0  0  0  0  0  0  0  0  0
    5.5665   -8.4036   16.2636 C   0  0  0  0  0  0  0  0  0  0  0  0
    7.4015   -7.9417   17.2131 C   0  0  0  0  0  0  0  0  0  0  0  0
   11.4464   -2.2372   18.3892 O   0  0  0  0  0  0  0  0  0  0  0  0
   10.4811   -2.8733   23.5984 C   0  0  0  0  0  0  0  0  0  0  0  0
    5.3045   -8.4733   15.9808 C   0  0  0  0  0  0  0  0  0  0  0  0
    9.8071   -1.6761   23.6263 C   0  0  0  0  0  0  0  0  0  0  0  0
   10.2595   -3.0851   25.9801 C   0  0  0  0  0  0  0  0  0  0  0  0
   11.0182   -2.8207   21.1072 C   0  0  0  0  0  0  0  0  0  0  0  0
    9.6267   -5.4268   18.3887 C   0  0  0  0  0  0  0  0  0  0  0  0
   10.7328   -4.8163   22.1536 O   0  0  0  0  0  0  0  0  0  0  0  0
    6.8364   -7.7489   16.4493 C   0  0  0  0  0  0  0  0  0  0  0  0
    5.7256   -8.3814   18.1654 C   0  0  0  0  0  0  0  0  0  0  0  0
    8.3177   -7.4091   17.7801 C   0  0  0  0  0  0  0  0  0  0  0  0
    5.8687   -7.8773   17.9361 C   0  0  0  0  0  0  0  0  0  0  0  0
   10.6319   -5.1440   20.8061 C   0  0  0  0  0  0  0  0  0  0  0  0
   10.4550   -4.3413   18.0663 C   0  0  0  0  0  0  0  0  0  0  0  0
    9.2707   -1.2322   24.8472 C   0  0  0  0  0  0  0  0  0  0  0  0
   10.0590   -4.7919   15.8582 C   0  0  0  0  0  0  0  0  0  0  0  0
   10.8465   -3.6886   20.1146 C   0  0  0  0  0  0  0  0  0  0  0  0
    9.2653   -5.8105   16.1906 C   0  0  0  0  0  0  0  0  0  0  0  0
   10.8052   -3.5825   24.7400 C   0  0  0  0  0  0  0  0  0  0  0  0
   10.9387   -3.4217   18.7365 C   0  0  0  0  0  0  0  0  0  0  0  0
  1  8  1  0
  1 12  4  0
  1 14  4  0
  2 13  4  0
  2 17  1  0
  2 24  4  0
  3 20  4  0
  3 22  4  0
  4 11  4  0
  4 21  4  0
  5  9  4  0
  6 15  4  0
  6 17  1  0
  7 26  2  0
  8 10  4  0
  8 25  4  0
 10 21  4  0
 11 25  4  0
 12 23  4  0
 13 20  4  0
 14 19  4  0
 16 18  4  0
 19 23  4  0
 20 26  1  0
 22 24  4  0
 23 26  1  0
M  END
$$$$

 Created by Python create_sdf_string function

 26 63  0  0  0  0  0  0  0  0999 V2000
   11.2282   -3.9740   22.1038 C   0  0  0  0  0  0  0  0  0  0  0  0
   10.3413   -3.8175   16.7226 C   0  0  0  0  0  0  0  0  0  0  0  0
    9.6374   -1.9333   26.4548 N   0  0  0  0  0  0  0  0  0  0  0  0
    6.4651   -7.2334   16.5718 C   0  0  0  0  0  0  0  0  0  0  0  0
    5.9880   -8.1821   17.5136 C   0  0  0  0  0  0  0  0  0  0  0  0
   10.2357   -1.7622   18.0420 O   0  0  0  0  0  0  0  0  0  0  0  0
   10.7614   -2.9149   23.5108 C   0  0  0  0  0  0  0  0  0  0  0  0
    4.1517   -8.1577   14.8959 C   0  0  0  0  0  0  0  0  0  0  0  0
   10.3535   -3.4505   26.0649 O   0  0  0  0  0  0  0  0  0  0  0  0
   10.8148   -2.8064   20.8358 C   0  0  0  0  0  0  0  0  0  0  0  0
    8.5779   -5.8625   17.9574 C   0  0  0  0  0  0  0  0  0  0  0  0
   10.4965   -4.8563   22.0646 N   0  0  0  0  0  0  0  0  0  0  0  0
    6.1824   -7.0994   15.1146 C   0  0  0  0  0  0  0  0  0  0  0  0
    5.4552   -8.1143   17.6256 C   0  0  0  0  0  0  0  0  0  0  0  0
    7.7627   -7.7650   17.6568 C   0  0  0  0  0  0  0  0  0  0  0  0
   10.9688   -5.1869   21.1187 C   0  0  0  0  0  0  0  0  0  0  0  0
   10.1098   -3.6729   17.8451 C   0  0  0  0  0  0  0  0  0  0  0  0
    9.3696   -1.2801   24.8332 C   0  0  0  0  0  0  0  0  0  0  0  0
    9.8928   -5.4186   16.4619 C   0  0  0  0  0  0  0  0  0  0  0  0
   10.5248   -3.9367   24.8051 C   0  0  0  0  0  0  0  0  0  0  0  0
   11.4789   -2.7747   18.3896 C   0  0  0  0  0  0  0  0  0  0  0  0
    8.5760   -7.2341   17.3455 He  0  0  0  0  0  0  0  0  0  0  0  0
   10.1756   -2.0751   24.0240 He  0  0  0  0  0  0  0  0  0  0  0  0
    6.3846   -7.8158   17.2384 He  0  0  0  0  0  0  0  0  0  0  0  0
   10.8793   -3.9480   19.6791 He  0  0  0  0  0  0  0  0  0  0  0  0
    9.0241   -6.2019   16.1943 He  0  0  0  0  0  0  0  0  0  0  0  0
  1  5  2  0
  1  7  1  0
  1 10  4  0
  1 12  4  0
  1 14  3  0
  2  6  3  0
  2 10  3  0
  2 11  3  0
  2 15  4  0
  2 17  4  0
  2 18  4  0
  2 19  4  0
  3  4  2  0
  3  9  4  0
  3 14  2  0
  3 21  3  0
  4  5  1  0
  4 10  4  0
  4 15  3  0
  4 18  2  0
  5  8  3  0
  5 13  4  0
  5 15  1  0
  5 20  4  0
  6  7  3  0
  6  8  2  0
  6  9  1  0
  6 10  4  0
  6 12  4  0
  6 15  1  0
  6 17  2  0
  6 19  4  0
  6 21  4  0
  7 13  4  0
  7 14  4  0
  7 15  2  0
  7 20  4  0
  8 10  1  0
  8 12  4  0
  8 18  4  0
  8 19  4  0
  9 11  4  0
  9 14  4  0
  9 17  2  0
  9 19  2  0
  9 20  4  0
 10 13  3  0
 10 17  2  0
 10 19  3  0
 11 13  1  0
 11 15  2  0
 11 17  4  0
 12 13  1  0
 12 16  4  0
 13 16  3  0
 13 18  4  0
 14 16  4  0
 15 16  3  0
 15 19  3  0
 15 21  4  0
 17 18  3  0
 17 19  4  0
 18 19  4  0
M  END
$$$$

 Created by Python create_sdf_string function

 26 29  0  0  0  0  0  0  0  0999 V2000
   10.7943   -3.6199   22.3408 C   0  0  0  0  0  0  0  0  0  0  0  0
    8.8499   -6.5410   17.2632 C   0  0  0  0  0  0  0  0  0  0  0  0
   10.2331   -3.9524   16.5099 C   0  0  0  0  0  0  0  0  0  0  0  0
    9.6682   -2.1114   26.0613 N   0  0  0  0  0  0  0  0  0  0  0  0
    6.4766   -7.4681   16.1961 C   0  0  0  0  0  0  0  0  0  0  0  0
    6.1979   -7.9782   17.1238 C   0  0  0  0  0  0  0  0  0  0  0  0
   11.2808   -2.3548   18.4222 O   0  0  0  0  0  0  0  0  0  0  0  0
   10.5067   -3.0948   23.5905 C   0  0  0  0  0  0  0  0  0  0  0  0
    4.6530   -7.9698   15.7965 C   0  0  0  0  0  0  0  0  0  0  0  0
   10.0150   -1.8066   23.7174 C   0  0  0  0  0  0  0  0  0  0  0  0
   10.2362   -3.3319   25.9877 C   0  0  0  0  0  0  0  0  0  0  0  0
   11.0419   -2.9653   21.1469 C   0  0  0  0  0  0  0  0  0  0  0  0
    9.5426   -5.6990   18.2779 C   0  0  0  0  0  0  0  0  0  0  0  0
   10.8006   -4.9693   22.1085 N   0  0  0  0  0  0  0  0  0  0  0  0
    5.6990   -7.3330   15.4659 C   0  0  0  0  0  0  0  0  0  0  0  0
    4.8653   -8.4565   17.1576 C   0  0  0  0  0  0  0  0  0  0  0  0
    8.2045   -7.6391   17.4969 C   0  0  0  0  0  0  0  0  0  0  0  0
    6.4131   -7.9186   17.4605 C   0  0  0  0  0  0  0  0  0  0  0  0
   10.7320   -5.1098   20.7162 C   0  0  0  0  0  0  0  0  0  0  0  0
   10.2233   -4.4759   17.8757 C   0  0  0  0  0  0  0  0  0  0  0  0
    9.5458   -1.3182   24.9437 C   0  0  0  0  0  0  0  0  0  0  0  0
    9.6243   -4.7886   15.7966 C   0  0  0  0  0  0  0  0  0  0  0  0
   10.8625   -3.8721   20.1275 C   0  0  0  0  0  0  0  0  0  0  0  0
    9.0111   -5.9151   16.0836 C   0  0  0  0  0  0  0  0  0  0  0  0
   10.6554   -3.8392   24.7633 C   0  0  0  0  0  0  0  0  0  0  0  0
   10.8249   -3.5329   18.7521 C   0  0  0  0  0  0  0  0  0  0  0  0
  1  8  1  0
  1 12  4  0
  1 14  4  0
  2 13  4  0
  2 17  1  0
  2 24  4  0
  3 20  4  0
  3 22  4  0
  4 11  4  0
  4 21  4  0
  5 15  4  0
  5 18  4  0
  6 16  4  0
  6 18  4  0
  7 26  2  0
  8 10  4  0
  8 25  4  0
  9 15  4  0
  9 16  4  0
 10 21  4  0
 11 25  4  0
 12 23  4  0
 13 20  4  0
 14 19  4  0
 16 18  4  0
 19 23  4  0
 20 26  1  0
 22 24  4  0
 23 26  1  0
M  END
$$$$

 Created by Python create_sdf_string function

 26 64  0  0  0  0  0  0  0  0999 V2000
   10.5273   -3.9058   22.3420 C   0  0  0  0  0  0  0  0  0  0  0  0
    7.2910   -6.7899   17.6953 Br  0  0  0  0  0  0  0  0  0  0  0  0
    9.9895   -3.7146   16.4808 C   0  0  0  0  0  0  0  0  0  0  0  0
    9.7281   -1.8435   25.8377 F   0  0  0  0  0  0  0  0  0  0  0  0
    6.7539   -7.8986   17.3405 P   0  0  0  0  0  0  0  0  0  0  0  0
   11.5584   -3.2211   18.8522 O   0  0  0  0  0  0  0  0  0  0  0  0
   10.2719   -3.3785   23.0723 F   0  0  0  0  0  0  0  0  0  0  0  0
    4.9743   -8.7720   15.8274 F   0  0  0  0  0  0  0  0  0  0  0  0
   10.1017   -1.8936   23.5793 F   0  0  0  0  0  0  0  0  0  0  0  0
    9.9977   -3.5151   26.0653 C   0  0  0  0  0  0  0  0  0  0  0  0
   11.3029   -3.2510   21.3967 C   0  0  0  0  0  0  0  0  0  0  0  0
    8.6323   -4.8586   17.4995 F   0  0  0  0  0  0  0  0  0  0  0  0
   10.5971   -4.8995   22.1460 N   0  0  0  0  0  0  0  0  0  0  0  0
    5.8959   -8.2311   15.5294 B   0  0  0  0  0  0  0  0  0  0  0  0
    4.3131   -8.4177   17.4546 C   0  0  0  0  0  0  0  0  0  0  0  0
    7.8787   -6.0421   17.6756 C   0  0  0  0  0  0  0  0  0  0  0  0
    6.0476   -8.4269   16.3837 P   0  0  0  0  0  0  0  0  0  0  0  0
   10.7649   -5.1131   20.9240 C   0  0  0  0  0  0  0  0  0  0  0  0
   10.0055   -4.3726   16.3727 C   0  0  0  0  0  0  0  0  0  0  0  0
   10.8462   -3.6295   20.2663 C   0  0  0  0  0  0  0  0  0  0  0  0
    9.0989   -5.9679   16.1339 C   0  0  0  0  0  0  0  0  0  0  0  0
   10.6392   -3.8208   24.5988 C   0  0  0  0  0  0  0  0  0  0  0  0
    9.8197   -4.1800   18.1622 C   0  0  0  0  0  0  0  0  0  0  0  0
    7.1493   -7.2000   15.9315 He  0  0  0  0  0  0  0  0  0  0  0  0
   10.3376   -4.6063   18.3373 He  0  0  0  0  0  0  0  0  0  0  0  0
    9.3458   -1.0020   25.0650 He  0  0  0  0  0  0  0  0  0  0  0  0
  1  4  2  0
  1  7  1  0
  1 11  4  0
  1 13  4  0
  1 14  3  0
  1 15  3  0
  1 17  1  0
  1 18  3  0
  1 22  2  0
  1 23  4  0
  2  3  2  0
  2  6  1  0
  2  7  2  0
  2  9  4  0
  2 12  4  0
  2 16  1  0
  2 19  3  0
  2 21  4  0
  2 22  3  0
  3  6  2  0
  3  7  4  0
  3 15  3  0
  3 17  1  0
  3 19  4  0
  4  8  1  0
  4 10  4  0
  4 20  3  0
  5  9  1  0
  5 18  2  0
  5 19  1  0
  6  7  1  0
  6 10  4  0
  6 16  4  0
  6 23  2  0
  7  9  4  0
  7 11  2  0
  7 12  2  0
  7 16  3  0
  7 18  4  0
  7 19  1  0
  7 20  4  0
  8 16  4  0
  9 14  2  0
  9 15  2  0
  9 19  1  0
 11 14  3  0
 11 17  2  0
 11 20  4  0
 12 17  4  0
 13 14  3  0
 13 17  1  0
 13 18  4  0
 14 19  1  0
 14 20  2  0
 15 16  1  0
 15 20  1  0
 15 21  3  0
 16 19  1  0
 16 21  4  0
 17 18  4  0
 17 19  3  0
 17 22  2  0
 18 20  4  0
 19 21  4  0
M  END
$$$$

 Created by Python create_sdf_string function

 26 29  0  0  0  0  0  0  0  0999 V2000
   10.7570   -3.6704   22.4094 C   0  0  0  0  0  0  0  0  0  0  0  0
    8.0275   -6.8859   17.7034 O   0  0  0  0  0  0  0  0  0  0  0  0
   10.4354   -3.8849   16.6238 C   0  0  0  0  0  0  0  0  0  0  0  0
    9.4610   -1.9735   26.0073 C   0  0  0  0  0  0  0  0  0  0  0  0
    6.7780   -7.7155   15.7600 C   0  0  0  0  0  0  0  0  0  0  0  0
    6.6613   -7.6999   17.2513 C   0  0  0  0  0  0  0  0  0  0  0  0
   11.3654   -2.8403   18.7035 O   0  0  0  0  0  0  0  0  0  0  0  0
   10.4239   -3.0806   23.6659 C   0  0  0  0  0  0  0  0  0  0  0  0
    4.8010   -8.7242   15.9155 C   0  0  0  0  0  0  0  0  0  0  0  0
    9.9887   -1.7780   23.6729 C   0  0  0  0  0  0  0  0  0  0  0  0
    9.9293   -3.2275   26.0338 C   0  0  0  0  0  0  0  0  0  0  0  0
   10.9682   -3.0273   21.1536 C   0  0  0  0  0  0  0  0  0  0  0  0
    9.3283   -5.4922   18.1583 C   0  0  0  0  0  0  0  0  0  0  0  0
   10.8387   -4.9580   22.2775 N   0  0  0  0  0  0  0  0  0  0  0  0
    5.7225   -8.2597   15.2725 C   0  0  0  0  0  0  0  0  0  0  0  0
    4.8282   -8.6880   17.1448 C   0  0  0  0  0  0  0  0  0  0  0  0
    8.3732   -6.4248   17.2611 C   0  0  0  0  0  0  0  0  0  0  0  0
    5.9380   -8.0701   17.5040 C   0  0  0  0  0  0  0  0  0  0  0  0
   10.7289   -5.1836   20.6849 C   0  0  0  0  0  0  0  0  0  0  0  0
   10.2186   -4.4917   17.9840 C   0  0  0  0  0  0  0  0  0  0  0  0
    9.4706   -1.2361   24.9153 C   0  0  0  0  0  0  0  0  0  0  0  0
    9.7295   -4.3863   15.8153 C   0  0  0  0  0  0  0  0  0  0  0  0
   10.8578   -3.9551   20.1651 C   0  0  0  0  0  0  0  0  0  0  0  0
    8.8590   -5.5822   15.9727 C   0  0  0  0  0  0  0  0  0  0  0  0
   10.4659   -3.8591   24.8235 C   0  0  0  0  0  0  0  0  0  0  0  0
   10.7350   -3.8690   18.7288 C   0  0  0  0  0  0  0  0  0  0  0  0
  1  8  1  0
  1 12  4  0
  1 14  4  0
  2  6  1  0
  2 17  1  0
  3 20  4  0
  3 22  4  0
  4 11  4  0
  4 21  4  0
  5  6  4  0
  5 15  4  0
  6 18  4  0
  7 26  2  0
  8 10  4  0
  8 25  4  0
  9 15  4  0
  9 16  4  0
 10 21  4  0
 11 25  4  0
 12 23  4  0
 13 17  4  0
 13 20  4  0
 14 19  4  0
 16 18  4  0
 17 24  4  0
 19 23  4  0
 20 26  1  0
 22 24  4  0
 23 26  1  0
M  END
$$$$

 Created by Python create_sdf_string function

 26 48  0  0  0  0  0  0  0  0999 V2000
   11.1507   -3.5846   22.3062 C   0  0  0  0  0  0  0  0  0  0  0  0
    8.9428   -6.7727   16.7706 O   0  0  0  0  0  0  0  0  0  0  0  0
   10.1779   -3.8492   16.4458 C   0  0  0  0  0  0  0  0  0  0  0  0
    9.3873   -1.8724   25.9995 C   0  0  0  0  0  0  0  0  0  0  0  0
    6.8991   -7.8111   15.9998 C   0  0  0  0  0  0  0  0  0  0  0  0
    5.6539   -6.6493   16.6370 C   0  0  0  0  0  0  0  0  0  0  0  0
   10.2072   -2.5567   17.5578 O   0  0  0  0  0  0  0  0  0  0  0  0
   10.6399   -3.0880   23.8582 C   0  0  0  0  0  0  0  0  0  0  0  0
    9.9815   -1.5538   23.1267 C   0  0  0  0  0  0  0  0  0  0  0  0
    9.5984   -2.9681   26.2092 C   0  0  0  0  0  0  0  0  0  0  0  0
   10.5435   -2.8401   21.1978 C   0  0  0  0  0  0  0  0  0  0  0  0
    8.5392   -5.3540   18.6552 C   0  0  0  0  0  0  0  0  0  0  0  0
   11.1242   -4.9918   21.8272 C   0  0  0  0  0  0  0  0  0  0  0  0
    6.0151   -8.9738   15.5563 C   0  0  0  0  0  0  0  0  0  0  0  0
    4.2702   -8.5632   17.6403 Cl  0  0  0  0  0  0  0  0  0  0  0  0
    6.4803   -7.2939   16.8351 N   0  0  0  0  0  0  0  0  0  0  0  0
   10.4425   -5.5287   21.0500 C   0  0  0  0  0  0  0  0  0  0  0  0
   11.7548   -4.7267   18.4617 N   0  0  0  0  0  0  0  0  0  0  0  0
    9.3447   -1.0442   24.9136 C   0  0  0  0  0  0  0  0  0  0  0  0
    9.8510   -5.6674   15.4851 C   0  0  0  0  0  0  0  0  0  0  0  0
   10.7701   -3.7763   19.9471 C   0  0  0  0  0  0  0  0  0  0  0  0
    8.9248   -5.8498   16.1084 C   0  0  0  0  0  0  0  0  0  0  0  0
   10.1329   -4.2556   25.0287 C   0  0  0  0  0  0  0  0  0  0  0  0
    5.7582   -8.6913   16.0186 He  0  0  0  0  0  0  0  0  0  0  0  0
    8.3999   -6.5122   16.8500 He  0  0  0  0  0  0  0  0  0  0  0  0
   11.1339   -4.8241   18.7040 He  0  0  0  0  0  0  0  0  0  0  0  0
  1  2  1  0
  1  5  3  0
  1  7  1  0
  1 13  4  0
  2  6  1  0
  2 12  4  0
  2 13  1  0
  2 14  4  0
  2 15  3  0
  2 16  1  0
  3 22  2  0
  4 10  4  0
  4 19  3  0
  5  7  4  0
  5  8  2  0
  5  9  1  0
  5 13  1  0
  6  9  1  0
  6 21  3  0
  6 23  3  0
  7 21  1  0
  8 13  3  0
  8 17  3  0
  8 18  1  0
  8 23  1  0
  9 19  4  0
 10 18  3  0
 10 23  4  0
 11 21  4  0
 11 22  1  0
 12 14  3  0
 12 15  2  0
 12 18  4  0
 13 15  2  0
 13 17  4  0
 13 20  3  0
 14 16  2  0
 14 21  3  0
 15 21  1  0
 16 17  1  0
 16 20  2  0
 16 21  1  0
 16 22  2  0
 17 20  3  0
 17 21  4  0
 18 22  3  0
 18 23  2  0
 19 23  1  0
M  END
$$$$

 Created by Python create_sdf_string function

 26 29  0  0  0  0  0  0  0  0999 V2000
   10.6986   -3.6588   22.4052 C   0  0  0  0  0  0  0  0  0  0  0  0
    8.1314   -6.8210   17.1092 O   0  0  0  0  0  0  0  0  0  0  0  0
   10.3176   -4.3632   16.7860 C   0  0  0  0  0  0  0  0  0  0  0  0
    9.3025   -1.8355   25.9459 C   0  0  0  0  0  0  0  0  0  0  0  0
    7.1858   -8.3878   15.9609 C   0  0  0  0  0  0  0  0  0  0  0  0
    5.8049   -7.5002   17.5055 C   0  0  0  0  0  0  0  0  0  0  0  0
   11.3621   -2.5869   18.1310 O   0  0  0  0  0  0  0  0  0  0  0  0
   10.3506   -3.0236   23.6042 C   0  0  0  0  0  0  0  0  0  0  0  0
    5.1411   -8.9745   16.2167 C   0  0  0  0  0  0  0  0  0  0  0  0
    9.9939   -1.6849   23.6101 C   0  0  0  0  0  0  0  0  0  0  0  0
    9.7169   -3.1578   25.9661 C   0  0  0  0  0  0  0  0  0  0  0  0
   10.7655   -3.0572   21.0962 C   0  0  0  0  0  0  0  0  0  0  0  0
    9.3934   -5.7282   18.3618 C   0  0  0  0  0  0  0  0  0  0  0  0
   10.9912   -5.0168   22.2357 C   0  0  0  0  0  0  0  0  0  0  0  0
    6.1048   -9.1504   15.6940 C   0  0  0  0  0  0  0  0  0  0  0  0
    4.5904   -8.2665   17.0904 C   0  0  0  0  0  0  0  0  0  0  0  0
    8.6505   -6.3239   16.9826 C   0  0  0  0  0  0  0  0  0  0  0  0
    6.7562   -7.5012   17.0003 C   0  0  0  0  0  0  0  0  0  0  0  0
   11.0025   -5.3759   20.8401 C   0  0  0  0  0  0  0  0  0  0  0  0
   10.3112   -4.7118   18.1122 C   0  0  0  0  0  0  0  0  0  0  0  0
    9.4403   -1.1009   24.8130 C   0  0  0  0  0  0  0  0  0  0  0  0
    9.7609   -4.7137   15.9030 C   0  0  0  0  0  0  0  0  0  0  0  0
   10.8945   -4.0168   20.1560 C   0  0  0  0  0  0  0  0  0  0  0  0
    9.0131   -5.5976   16.0560 C   0  0  0  0  0  0  0  0  0  0  0  0
   10.2717   -3.7727   24.8293 C   0  0  0  0  0  0  0  0  0  0  0  0
   10.8771   -4.0473   18.8166 C   0  0  0  0  0  0  0  0  0  0  0  0
  1  8  1  0
  1 12  4  0
  1 14  4  0
  2 17  1  0
  2 18  1  0
  3 20  4  0
  3 22  4  0
  4 11  4  0
  4 21  4  0
  5 15  4  0
  5 18  4  0
  6 16  4  0
  6 18  4  0
  7 26  2  0
  8 10  4  0
  8 25  4  0
  9 15  4  0
  9 16  4  0
 10 21  4  0
 11 25  4  0
 12 23  4  0
 13 17  4  0
 13 20  4  0
 14 19  4  0
 17 24  4  0
 19 23  4  0
 20 26  1  0
 22 24  4  0
 23 26  1  0
M  END
$$$$

 Created by Python create_sdf_string function

 26 39  0  0  0  0  0  0  0  0999 V2000
   10.8590   -3.5329   22.5854 C   0  0  0  0  0  0  0  0  0  0  0  0
    7.9936   -6.7043   17.3894 P   0  0  0  0  0  0  0  0  0  0  0  0
    9.9683   -4.2777   16.4599 Cl  0  0  0  0  0  0  0  0  0  0  0  0
    9.1656   -2.0279   25.8309 C   0  0  0  0  0  0  0  0  0  0  0  0
    5.6353   -7.9973   18.1646 C   0  0  0  0  0  0  0  0  0  0  0  0
   11.5855   -3.1521   18.3458 O   0  0  0  0  0  0  0  0  0  0  0  0
   10.2368   -2.6218   23.6130 C   0  0  0  0  0  0  0  0  0  0  0  0
    5.0663   -9.7253   16.4585 C   0  0  0  0  0  0  0  0  0  0  0  0
    9.9255   -2.9884   26.1163 C   0  0  0  0  0  0  0  0  0  0  0  0
   11.1323   -3.3798   21.3456 C   0  0  0  0  0  0  0  0  0  0  0  0
   10.7890   -5.3958   21.9805 C   0  0  0  0  0  0  0  0  0  0  0  0
    9.2482   -6.3611   17.9232 N   0  0  0  0  0  0  0  0  0  0  0  0
    7.1832   -7.6839   17.0978 C   0  0  0  0  0  0  0  0  0  0  0  0
   10.9600   -5.2220   20.4364 C   0  0  0  0  0  0  0  0  0  0  0  0
    9.9386   -4.5113   17.6371 N   0  0  0  0  0  0  0  0  0  0  0  0
    9.5323   -1.0645   24.6155 C   0  0  0  0  0  0  0  0  0  0  0  0
    9.7295   -4.3398   16.0947 C   0  0  0  0  0  0  0  0  0  0  0  0
   11.0895   -3.6548   20.1768 C   0  0  0  0  0  0  0  0  0  0  0  0
   10.2181   -3.7145   25.0544 C   0  0  0  0  0  0  0  0  0  0  0  0
   10.8324   -3.9214   18.4567 C   0  0  0  0  0  0  0  0  0  0  0  0
    7.2049   -8.9775   14.2233 He  0  0  0  0  0  0  0  0  0  0  0  0
    9.9359   -1.4711   23.1346 He  0  0  0  0  0  0  0  0  0  0  0  0
    8.3672   -4.5528   18.7533 He  0  0  0  0  0  0  0  0  0  0  0  0
    5.9799   -8.5785   16.0257 He  0  0  0  0  0  0  0  0  0  0  0  0
    4.8715   -7.5251   17.8431 He  0  0  0  0  0  0  0  0  0  0  0  0
    8.8722   -5.4954   15.8104 He  0  0  0  0  0  0  0  0  0  0  0  0
  1  7  1  0
  1 10  4  0
  2 11  3  0
  2 12  1  0
  2 13  1  0
  3 13  1  0
  3 17  1  0
  4  9  4  0
  4 13  1  0
  5  8  2  0
  5  9  3  0
  5 10  1  0
  5 14  1  0
  5 16  3  0
  6  7  2  0
  6 14  4  0
  6 16  1  0
  6 17  1  0
  6 19  2  0
  7 15  1  0
  7 19  4  0
  8 12  3  0
  8 14  3  0
  8 20  4  0
  9 19  4  0
 10 15  3  0
 10 18  4  0
 11 14  4  0
 12 14  4  0
 12 15  3  0
 12 19  4  0
 13 14  4  0
 13 16  2  0
 13 20  3  0
 14 15  4  0
 14 16  3  0
 15 20  1  0
 16 17  3  0
 16 20  2  0
M  END
$$$$

 Created by Python create_sdf_string function

 26 28  0  0  0  0  0  0  0  0999 V2000
   10.7690   -3.6100   22.3940 C   0  0  0  0  0  0  0  0  0  0  0  0
    8.1512   -7.0489   17.4077 C   0  0  0  0  0  0  0  0  0  0  0  0
   10.1047   -4.0753   16.4612 C   0  0  0  0  0  0  0  0  0  0  0  0
    9.2791   -1.7680   25.8532 C   0  0  0  0  0  0  0  0  0  0  0  0
    7.1365   -8.6107   15.6729 C   0  0  0  0  0  0  0  0  0  0  0  0
    6.0939   -7.7207   17.9480 C   0  0  0  0  0  0  0  0  0  0  0  0
   11.4420   -2.5029   18.3070 O   0  0  0  0  0  0  0  0  0  0  0  0
   10.3779   -3.0057   23.5886 C   0  0  0  0  0  0  0  0  0  0  0  0
    5.1878   -8.9701   16.4386 C   0  0  0  0  0  0  0  0  0  0  0  0
    9.9837   -1.6755   23.5511 C   0  0  0  0  0  0  0  0  0  0  0  0
    9.7384   -3.0554   25.9376 C   0  0  0  0  0  0  0  0  0  0  0  0
   11.0930   -2.9641   21.1691 C   0  0  0  0  0  0  0  0  0  0  0  0
    9.4246   -5.5724   18.1577 C   0  0  0  0  0  0  0  0  0  0  0  0
   10.7675   -5.0024   22.1929 C   0  0  0  0  0  0  0  0  0  0  0  0
    6.1273   -9.1062   15.7494 C   0  0  0  0  0  0  0  0  0  0  0  0
    5.1286   -8.2830   17.5549 C   0  0  0  0  0  0  0  0  0  0  0  0
    8.8296   -6.1249   17.7641 N   0  0  0  0  0  0  0  0  0  0  0  0
    7.2627   -7.6321   17.0570 C   0  0  0  0  0  0  0  0  0  0  0  0
   10.7349   -5.2137   20.7646 C   0  0  0  0  0  0  0  0  0  0  0  0
   10.0915   -4.4741   18.0000 N   0  0  0  0  0  0  0  0  0  0  0  0
    9.4002   -1.0675   24.6709 C   0  0  0  0  0  0  0  0  0  0  0  0
    9.5006   -4.4403   16.0753 C   0  0  0  0  0  0  0  0  0  0  0  0
   10.9444   -3.8471   20.1643 C   0  0  0  0  0  0  0  0  0  0  0  0
    8.7911   -5.5157   15.9115 C   0  0  0  0  0  0  0  0  0  0  0  0
   10.2984   -3.6935   24.7969 C   0  0  0  0  0  0  0  0  0  0  0  0
   10.8849   -3.5796   18.6674 C   0  0  0  0  0  0  0  0  0  0  0  0
  1  8  1  0
  1 12  4  0
  1 14  4  0
  2 17  1  0
  2 18  1  0
  3 20  1  0
  3 22  1  0
  4 11  4  0
  4 21  4  0
  5 15  4  0
  5 18  1  0
  6 16  4  0
  6 18  4  0
  7 26  2  0
  8 10  4  0
  8 25  4  0
  9 15  4  0
  9 16  4  0
 10 21  4  0
 11 25  4  0
 12 23  4  0
 13 17  4  0
 13 20  1  0
 14 19  4  0
 19 23  4  0
 20 26  1  0
 22 24  4  0
 23 26  1  0
M  END
$$$$

 Created by Python create_sdf_string function

 26 59  0  0  0  0  0  0  0  0999 V2000
   10.6375   -3.7463   22.3784 C   0  0  0  0  0  0  0  0  0  0  0  0
    8.0665   -7.0868   16.7321 C   0  0  0  0  0  0  0  0  0  0  0  0
    9.4623   -1.6377   25.9806 C   0  0  0  0  0  0  0  0  0  0  0  0
   11.0410   -2.5218   18.3901 O   0  0  0  0  0  0  0  0  0  0  0  0
   10.3488   -2.9025   23.3847 S   0  0  0  0  0  0  0  0  0  0  0  0
    4.9493   -8.3500   16.8932 O   0  0  0  0  0  0  0  0  0  0  0  0
   10.1564   -1.4186   23.5220 C   0  0  0  0  0  0  0  0  0  0  0  0
   10.0200   -2.7807   25.9619 C   0  0  0  0  0  0  0  0  0  0  0  0
   10.3867   -2.7227   21.0973 C   0  0  0  0  0  0  0  0  0  0  0  0
   11.1160   -4.7523   22.7715 C   0  0  0  0  0  0  0  0  0  0  0  0
    6.1874   -8.9192   15.3288 C   0  0  0  0  0  0  0  0  0  0  0  0
    4.9862   -7.3167   16.6419 N   0  0  0  0  0  0  0  0  0  0  0  0
    8.5433   -5.9145   18.1732 P   0  0  0  0  0  0  0  0  0  0  0  0
    6.7410   -7.6810   17.9912 C   0  0  0  0  0  0  0  0  0  0  0  0
   10.7296   -5.2669   20.6267 C   0  0  0  0  0  0  0  0  0  0  0  0
    9.2389   -0.8987   24.1740 C   0  0  0  0  0  0  0  0  0  0  0  0
   10.2523   -4.9554   16.1760 C   0  0  0  0  0  0  0  0  0  0  0  0
   11.1729   -4.4705   19.8030 C   0  0  0  0  0  0  0  0  0  0  0  0
    8.8801   -5.4002   16.0248 C   0  0  0  0  0  0  0  0  0  0  0  0
   10.3281   -3.6088   24.6296 C   0  0  0  0  0  0  0  0  0  0  0  0
   10.9952   -3.0782   18.5110 F   0  0  0  0  0  0  0  0  0  0  0  0
   10.1900   -4.4673   16.5318 He  0  0  0  0  0  0  0  0  0  0  0  0
    6.0779   -8.3863   14.4897 He  0  0  0  0  0  0  0  0  0  0  0  0
    6.3231   -7.2117   17.1331 He  0  0  0  0  0  0  0  0  0  0  0  0
   10.0310   -4.2391   19.3516 He  0  0  0  0  0  0  0  0  0  0  0  0
   10.0499   -4.7801   18.6470 He  0  0  0  0  0  0  0  0  0  0  0  0
  1  4  4  0
  1  5  1  0
  1 10  4  0
  1 12  3  0
  1 13  2  0
  2  5  1  0
  2  7  3  0
  2 11  3  0
  2 13  1  0
  2 14  1  0
  2 17  3  0
  2 20  4  0
  3  5  2  0
  3  7  2  0
  3  8  4  0
  3 16  4  0
  4  5  1  0
  4 12  1  0
  4 15  3  0
  4 17  2  0
  4 21  2  0
  5  7  4  0
  5 20  4  0
  5 21  1  0
  6  7  2  0
  6 11  4  0
  6 12  4  0
  6 16  2  0
  7 12  1  0
  7 16  4  0
  7 21  2  0
  8 11  1  0
  8 12  1  0
  8 13  2  0
  8 14  1  0
  8 16  1  0
  8 20  1  0
  9 10  1  0
  9 18  4  0
 10 13  2  0
 10 14  4  0
 10 15  3  0
 11 14  3  0
 11 16  4  0
 11 18  3  0
 12 17  3  0
 12 20  1  0
 13 14  2  0
 13 20  4  0
 14 16  3  0
 14 18  2  0
 15 16  2  0
 15 18  4  0
 17 18  1  0
 17 19  4  0
 17 20  2  0
 19 20  3  0
 19 21  3  0
 20 21  1  0
M  END
$$$$

 Created by Python create_sdf_string function

 26 28  0  0  0  0  0  0  0  0999 V2000
   10.7528   -3.5415   22.4100 C   0  0  0  0  0  0  0  0  0  0  0  0
    7.9514   -6.9871   17.0546 C   0  0  0  0  0  0  0  0  0  0  0  0
   10.2519   -4.0677   16.5039 C   0  0  0  0  0  0  0  0  0  0  0  0
    9.4136   -1.5124   25.8124 C   0  0  0  0  0  0  0  0  0  0  0  0
    7.0257   -8.4314   15.6489 C   0  0  0  0  0  0  0  0  0  0  0  0
    6.0975   -7.2717   17.6831 C   0  0  0  0  0  0  0  0  0  0  0  0
   11.3944   -2.2958   18.3265 O   0  0  0  0  0  0  0  0  0  0  0  0
   10.3614   -2.8319   23.5495 C   0  0  0  0  0  0  0  0  0  0  0  0
    4.8842   -8.5156   16.2356 C   0  0  0  0  0  0  0  0  0  0  0  0
    9.9464   -1.4956   23.4578 C   0  0  0  0  0  0  0  0  0  0  0  0
    9.8836   -2.8016   25.8979 C   0  0  0  0  0  0  0  0  0  0  0  0
   10.8532   -3.0396   21.0319 C   0  0  0  0  0  0  0  0  0  0  0  0
    9.8117   -5.5099   18.5476 C   0  0  0  0  0  0  0  0  0  0  0  0
   11.0532   -4.9432   22.3482 C   0  0  0  0  0  0  0  0  0  0  0  0
    5.9084   -8.8573   15.5165 C   0  0  0  0  0  0  0  0  0  0  0  0
    4.8787   -7.7672   17.1330 N   0  0  0  0  0  0  0  0  0  0  0  0
    8.8345   -6.2608   18.0337 S   0  0  0  0  0  0  0  0  0  0  0  0
    7.3485   -7.2957   17.2138 C   0  0  0  0  0  0  0  0  0  0  0  0
   10.9181   -5.2572   20.7310 C   0  0  0  0  0  0  0  0  0  0  0  0
   10.2866   -4.4848   18.2739 N   0  0  0  0  0  0  0  0  0  0  0  0
    9.4499   -0.8350   24.6199 C   0  0  0  0  0  0  0  0  0  0  0  0
    9.5707   -4.8227   16.2050 C   0  0  0  0  0  0  0  0  0  0  0  0
   10.9242   -3.9264   20.1214 C   0  0  0  0  0  0  0  0  0  0  0  0
    8.8842   -5.6651   16.0861 C   0  0  0  0  0  0  0  0  0  0  0  0
   10.3470   -3.5055   24.7818 C   0  0  0  0  0  0  0  0  0  0  0  0
   10.9581   -3.4020   18.7050 C   0  0  0  0  0  0  0  0  0  0  0  0
  1  8  1  0
  1 12  4  0
  1 14  4  0
  2 17  1  0
  2 18  1  0
  3 20  1  0
  3 22  1  0
  4 11  4  0
  4 21  4  0
  5 15  4  0
  5 18  4  0
  6 16  4  0
  6 18  4  0
  7 26  2  0
  8 10  4  0
  8 25  4  0
  9 15  4  0
  9 16  4  0
 10 21  4  0
 11 25  4  0
 12 23  4  0
 13 17  4  0
 13 20  1  0
 14 19  4  0
 19 23  4  0
 20 26  1  0
 22 24  4  0
 23 26  1  0
M  END
$$$$

 Created by Python create_sdf_string function

 26 57  0  0  0  0  0  0  0  0999 V2000
   10.2221   -3.4381   22.0955 C   0  0  0  0  0  0  0  0  0  0  0  0
    7.5016   -6.8923   16.1828 C   0  0  0  0  0  0  0  0  0  0  0  0
   10.0052   -4.0658   16.4960 C   0  0  0  0  0  0  0  0  0  0  0  0
    6.7179   -8.2911   15.4294 N   0  0  0  0  0  0  0  0  0  0  0  0
   11.3611   -2.5990   18.2734 C   0  0  0  0  0  0  0  0  0  0  0  0
   10.5495   -3.0823   23.5868 C   0  0  0  0  0  0  0  0  0  0  0  0
    5.7564   -9.4118   15.8436 C   0  0  0  0  0  0  0  0  0  0  0  0
   10.3861   -1.5537   23.4475 C   0  0  0  0  0  0  0  0  0  0  0  0
    9.3731   -3.0813   25.6774 N   0  0  0  0  0  0  0  0  0  0  0  0
   11.0142   -2.8605   21.1151 C   0  0  0  0  0  0  0  0  0  0  0  0
    9.9345   -5.8877   17.9510 Se  0  0  0  0  0  0  0  0  0  0  0  0
   11.1623   -5.1723   22.3733 C   0  0  0  0  0  0  0  0  0  0  0  0
    6.4237   -8.6685   15.9137 O   0  0  0  0  0  0  0  0  0  0  0  0
    5.1555   -8.2686   16.0855 N   0  0  0  0  0  0  0  0  0  0  0  0
    7.7674   -5.7190   16.7054 C   0  0  0  0  0  0  0  0  0  0  0  0
   10.9064   -5.0374   20.4258 C   0  0  0  0  0  0  0  0  0  0  0  0
    9.7102   -3.8447   17.9160 N   0  0  0  0  0  0  0  0  0  0  0  0
    8.9317   -0.5857   24.4654 C   0  0  0  0  0  0  0  0  0  0  0  0
    9.8318   -4.9517   15.7185 S   0  0  0  0  0  0  0  0  0  0  0  0
   10.9855   -4.0390   20.0996 C   0  0  0  0  0  0  0  0  0  0  0  0
    9.4458   -6.0124   15.8707 O   0  0  0  0  0  0  0  0  0  0  0  0
   10.1677   -3.6459   25.1684 C   0  0  0  0  0  0  0  0  0  0  0  0
   10.9623   -4.2900   18.0395 C   0  0  0  0  0  0  0  0  0  0  0  0
    9.5833   -1.2848   26.1020 He  0  0  0  0  0  0  0  0  0  0  0  0
    6.4869   -6.9279   17.9749 He  0  0  0  0  0  0  0  0  0  0  0  0
    9.3335   -7.3451   18.0273 He  0  0  0  0  0  0  0  0  0  0  0  0
  1  5  3  0
  1  6  1  0
  1 10  4  0
  1 12  4  0
  1 19  2  0
  2  8  3  0
  2 11  2  0
  2 23  2  0
  3  5  3  0
  3 14  2  0
  3 18  2  0
  3 19  1  0
  4  8  2  0
  4 15  4  0
  4 18  2  0
  5  7  1  0
  5  9  3  0
  5 10  2  0
  5 11  1  0
  5 12  1  0
  5 14  1  0
  5 15  4  0
  5 16  1  0
  5 23  2  0
  6  8  4  0
  6 11  4  0
  6 15  3  0
  6 19  2  0
  6 22  4  0
  7  9  2  0
  7 12  4  0
  7 14  4  0
  7 18  1  0
  7 19  1  0
  7 20  2  0
  8 14  4  0
  8 18  4  0
  8 19  2  0
  9 22  4  0
  9 23  2  0
 10 20  4  0
 11 17  1  0
 12 16  4  0
 12 17  4  0
 12 20  1  0
 13 16  2  0
 13 17  1  0
 13 22  3  0
 13 23  2  0
 14 20  2  0
 14 21  4  0
 15 16  1  0
 15 21  3  0
 16 19  2  0
 16 20  4  0
 17 23  1  0
 21 22  2  0
M  END
$$$$

 Created by Python create_sdf_string function

 26 27  0  0  0  0  0  0  0  0999 V2000
   10.7091   -3.5147   22.3447 C   0  0  0  0  0  0  0  0  0  0  0  0
    7.8671   -6.9466   16.7458 C   0  0  0  0  0  0  0  0  0  0  0  0
   10.0395   -4.0103   16.5814 C   0  0  0  0  0  0  0  0  0  0  0  0
    9.2351   -1.5921   25.8277 C   0  0  0  0  0  0  0  0  0  0  0  0
    7.3214   -8.1465   15.5706 C   0  0  0  0  0  0  0  0  0  0  0  0
    6.4051   -7.3674   17.5899 C   0  0  0  0  0  0  0  0  0  0  0  0
   11.3688   -2.3726   18.3891 O   0  0  0  0  0  0  0  0  0  0  0  0
   10.3069   -2.8524   23.5457 C   0  0  0  0  0  0  0  0  0  0  0  0
    5.6404   -8.8869   16.1902 C   0  0  0  0  0  0  0  0  0  0  0  0
   10.0445   -1.4786   23.5321 C   0  0  0  0  0  0  0  0  0  0  0  0
    9.5791   -2.8935   25.8516 N   0  0  0  0  0  0  0  0  0  0  0  0
   10.9190   -2.9214   21.0664 N   0  0  0  0  0  0  0  0  0  0  0  0
    9.8032   -5.7774   18.0764 C   0  0  0  0  0  0  0  0  0  0  0  0
   10.8591   -4.9249   22.2342 C   0  0  0  0  0  0  0  0  0  0  0  0
    6.6130   -8.6966   15.6644 C   0  0  0  0  0  0  0  0  0  0  0  0
    5.4047   -8.2915   16.9388 C   0  0  0  0  0  0  0  0  0  0  0  0
    9.0220   -6.9495   18.1179 C   0  0  0  0  0  0  0  0  0  0  0  0
    7.8749   -6.7179   16.5131 C   0  0  0  0  0  0  0  0  0  0  0  0
   10.9177   -5.1746   20.7977 C   0  0  0  0  0  0  0  0  0  0  0  0
   10.2632   -4.5143   17.8672 N   0  0  0  0  0  0  0  0  0  0  0  0
    9.5011   -0.8251   24.6827 C   0  0  0  0  0  0  0  0  0  0  0  0
    9.5226   -4.8839   15.7497 C   0  0  0  0  0  0  0  0  0  0  0  0
   10.8998   -3.9104   20.1297 C   0  0  0  0  0  0  0  0  0  0  0  0
    8.9164   -5.8868   16.1479 C   0  0  0  0  0  0  0  0  0  0  0  0
   10.0989   -3.5283   24.7475 C   0  0  0  0  0  0  0  0  0  0  0  0
   10.8687   -3.6402   18.6987 C   0  0  0  0  0  0  0  0  0  0  0  0
  1  8  1  0
  1 12  4  0
  1 14  4  0
  2 17  1  0
  2 18  1  0
  3 20  1  0
  3 22  1  0
  4 11  4  0
  4 21  4  0
  5 15  4  0
  6 16  4  0
  7 26  2  0
  8 10  4  0
  8 25  4  0
  9 15  4  0
  9 16  4  0
 10 21  4  0
 11 25  4  0
 12 23  4  0
 13 17  1  0
 13 20  1  0
 14 19  4  0
 18 24  1  0
 19 23  4  0
 20 26  1  0
 22 24  1  0
 23 26  1  0
M  END
$$$$

 Created by Python create_sdf_string function

 26 42  0  0  0  0  0  0  0  0999 V2000
   10.9862   -3.5799   22.3969 C   0  0  0  0  0  0  0  0  0  0  0  0
    9.2189   -5.3842   17.4609 C   0  0  0  0  0  0  0  0  0  0  0  0
    9.8989   -4.0414   16.8551 C   0  0  0  0  0  0  0  0  0  0  0  0
    9.1331   -1.6384   25.8059 N   0  0  0  0  0  0  0  0  0  0  0  0
    7.0930   -8.9902   15.7283 C   0  0  0  0  0  0  0  0  0  0  0  0
    6.0568   -7.1679   17.3078 N   0  0  0  0  0  0  0  0  0  0  0  0
   12.3826   -2.1506   18.5330 N   0  0  0  0  0  0  0  0  0  0  0  0
    9.7825   -1.5636   23.3976 C   0  0  0  0  0  0  0  0  0  0  0  0
    9.5441   -2.4462   25.7996 N   0  0  0  0  0  0  0  0  0  0  0  0
   10.9847   -2.7830   20.8927 N   0  0  0  0  0  0  0  0  0  0  0  0
   10.2580   -5.6258   18.2090 F   0  0  0  0  0  0  0  0  0  0  0  0
   10.8174   -5.0559   22.0683 C   0  0  0  0  0  0  0  0  0  0  0  0
    7.1547   -8.7101   15.5101 C   0  0  0  0  0  0  0  0  0  0  0  0
    9.5516   -6.1939   18.5123 C   0  0  0  0  0  0  0  0  0  0  0  0
    7.1337   -5.4938   16.0436 C   0  0  0  0  0  0  0  0  0  0  0  0
    9.6473   -0.8586   24.5214 C   0  0  0  0  0  0  0  0  0  0  0  0
   10.8212   -3.7392   20.2152 C   0  0  0  0  0  0  0  0  0  0  0  0
    8.9125   -5.6397   16.1930 C   0  0  0  0  0  0  0  0  0  0  0  0
   11.5420   -3.7722   19.0279 C   0  0  0  0  0  0  0  0  0  0  0  0
   10.2098   -2.9642   23.4479 He  0  0  0  0  0  0  0  0  0  0  0  0
    6.2920   -8.5320   15.6560 He  0  0  0  0  0  0  0  0  0  0  0  0
    5.1760   -7.9110   15.8034 He  0  0  0  0  0  0  0  0  0  0  0  0
   11.1528   -5.1569   20.8486 He  0  0  0  0  0  0  0  0  0  0  0  0
   10.9639   -4.0057   17.9850 He  0  0  0  0  0  0  0  0  0  0  0  0
    9.2341   -3.5532   16.3741 He  0  0  0  0  0  0  0  0  0  0  0  0
    9.8698   -3.4614   24.8992 He  0  0  0  0  0  0  0  0  0  0  0  0
  1  5  2  0
  1  7  4  0
  1 10  4  0
  1 11  2  0
  1 12  4  0
  2  3  4  0
  2  6  4  0
  2  8  2  0
  2 15  4  0
  3 11  2  0
  3 19  4  0
  4  6  4  0
  4  9  4  0
  4 16  2  0
  4 19  3  0
  5  9  4  0
  5 13  4  0
  5 14  3  0
  5 18  3  0
  6 11  2  0
  6 12  4  0
  6 14  2  0
  6 16  4  0
  6 18  3  0
  7  9  3  0
  7 14  1  0
  7 17  3  0
  7 19  2  0
  8 16  4  0
  9 10  3  0
  9 19  3  0
 10 13  3  0
 10 17  1  0
 11 12  2  0
 11 17  2  0
 11 19  3  0
 14 19  1  0
 15 17  4  0
 15 18  1  0
 16 19  3  0
 17 19  2  0
 18 19  1  0
M  END
$$$$

 Created by Python create_sdf_string function

 26 30  0  0  0  0  0  0  0  0999 V2000
   10.6767   -3.5195   22.4105 C   0  0  0  0  0  0  0  0  0  0  0  0
    9.1614   -5.2883   16.6773 C   0  0  0  0  0  0  0  0  0  0  0  0
    9.9691   -4.0961   16.8715 C   0  0  0  0  0  0  0  0  0  0  0  0
    9.2283   -1.4853   25.7729 N   0  0  0  0  0  0  0  0  0  0  0  0
    7.2153   -8.7308   15.4984 C   0  0  0  0  0  0  0  0  0  0  0  0
    6.2559   -6.9336   16.6891 C   0  0  0  0  0  0  0  0  0  0  0  0
   11.5321   -2.2968   18.5789 O   0  0  0  0  0  0  0  0  0  0  0  0
   10.2254   -2.8418   23.5280 C   0  0  0  0  0  0  0  0  0  0  0  0
    5.8035   -8.8759   15.8170 C   0  0  0  0  0  0  0  0  0  0  0  0
    9.9464   -1.5017   23.4520 C   0  0  0  0  0  0  0  0  0  0  0  0
    9.4935   -2.8122   25.8296 N   0  0  0  0  0  0  0  0  0  0  0  0
   10.9701   -2.9138   21.1839 N   0  0  0  0  0  0  0  0  0  0  0  0
   10.4190   -5.8350   18.3993 N   0  0  0  0  0  0  0  0  0  0  0  0
   10.8682   -4.8735   22.2945 C   0  0  0  0  0  0  0  0  0  0  0  0
    7.5805   -8.4696   15.4601 C   0  0  0  0  0  0  0  0  0  0  0  0
    5.2391   -7.8819   16.4680 C   0  0  0  0  0  0  0  0  0  0  0  0
    9.6865   -6.2815   18.0512 C   0  0  0  0  0  0  0  0  0  0  0  0
    7.4715   -6.8624   16.2417 C   0  0  0  0  0  0  0  0  0  0  0  0
   11.0835   -5.1933   20.9356 C   0  0  0  0  0  0  0  0  0  0  0  0
   10.5720   -4.3891   18.0926 N   0  0  0  0  0  0  0  0  0  0  0  0
    9.4444   -0.8243   24.5794 C   0  0  0  0  0  0  0  0  0  0  0  0
    9.4003   -3.7614   16.0292 N   0  0  0  0  0  0  0  0  0  0  0  0
   11.1009   -3.9082   20.2881 C   0  0  0  0  0  0  0  0  0  0  0  0
    8.2239   -5.7767   16.0112 C   0  0  0  0  0  0  0  0  0  0  0  0
   10.0013   -3.4760   24.7484 C   0  0  0  0  0  0  0  0  0  0  0  0
   11.1213   -3.5720   18.9666 C   0  0  0  0  0  0  0  0  0  0  0  0
  1  8  1  0
  1 12  4  0
  1 14  4  0
  2  3  4  0
  2 17  4  0
  2 22  4  0
  2 24  1  0
  3 20  4  0
  3 22  4  0
  4 11  4  0
  4 21  4  0
  5  9  4  0
  5 15  4  0
  6 16  4  0
  6 18  4  0
  7 26  2  0
  8 10  4  0
  8 25  4  0
  9 16  4  0
 10 21  4  0
 11 25  4  0
 12 23  4  0
 13 17  4  0
 13 20  4  0
 14 19  4  0
 15 18  4  0
 18 24  1  0
 19 23  4  0
 20 26  1  0
 23 26  1  0
M  END
$$$$

 Created by Python create_sdf_string function

 26 57  0  0  0  0  0  0  0  0999 V2000
   10.7370   -3.4532   22.4568 C   0  0  0  0  0  0  0  0  0  0  0  0
    8.9607   -5.6075   17.2198 C   0  0  0  0  0  0  0  0  0  0  0  0
    9.9629   -4.0137   16.6711 C   0  0  0  0  0  0  0  0  0  0  0  0
    9.3078   -1.5382   25.3706 N   0  0  0  0  0  0  0  0  0  0  0  0
    8.0731   -9.1769   15.1580 C   0  0  0  0  0  0  0  0  0  0  0  0
    6.4838   -6.7479   16.5541 Br  0  0  0  0  0  0  0  0  0  0  0  0
   11.9877   -2.2560   18.8993 O   0  0  0  0  0  0  0  0  0  0  0  0
    9.9382   -1.6813   23.4609 O   0  0  0  0  0  0  0  0  0  0  0  0
    9.5499   -2.5445   25.9710 N   0  0  0  0  0  0  0  0  0  0  0  0
   10.3136   -6.6452   18.6547 P   0  0  0  0  0  0  0  0  0  0  0  0
   11.2417   -4.8087   22.4274 C   0  0  0  0  0  0  0  0  0  0  0  0
    7.7563   -7.8720   15.3289 C   0  0  0  0  0  0  0  0  0  0  0  0
    8.7131   -5.8694   18.5220 C   0  0  0  0  0  0  0  0  0  0  0  0
    7.5864   -7.3746   16.4824 C   0  0  0  0  0  0  0  0  0  0  0  0
   11.4936   -5.4060   20.5440 C   0  0  0  0  0  0  0  0  0  0  0  0
   10.3842   -5.2991   17.6984 N   0  0  0  0  0  0  0  0  0  0  0  0
    8.9443   -0.5457   24.5576 C   0  0  0  0  0  0  0  0  0  0  0  0
   10.1182   -3.7418   16.4148 N   0  0  0  0  0  0  0  0  0  0  0  0
   11.4739   -3.9943   20.1991 F   0  0  0  0  0  0  0  0  0  0  0  0
    7.9725   -6.1721   16.1412 C   0  0  0  0  0  0  0  0  0  0  0  0
   10.4330   -3.7510   24.2502 C   0  0  0  0  0  0  0  0  0  0  0  0
   11.5031   -4.3301   18.3175 C   0  0  0  0  0  0  0  0  0  0  0  0
   10.2197   -2.6960   23.7199 He  0  0  0  0  0  0  0  0  0  0  0  0
    5.9652   -9.2534   15.4011 He  0  0  0  0  0  0  0  0  0  0  0  0
   11.4722   -2.9891   21.1740 He  0  0  0  0  0  0  0  0  0  0  0  0
    6.0009   -8.0734   16.5503 He  0  0  0  0  0  0  0  0  0  0  0  0
  1 11  4  0
  2  3  4  0
  2  7  1  0
  2 13  4  0
  2 18  4  0
  2 20  3  0
  3  6  2  0
  3 16  4  0
  3 21  2  0
  4  6  1  0
  4  9  4  0
  4 13  4  0
  4 19  1  0
  4 21  2  0
  5  9  2  0
  5 11  1  0
  5 21  3  0
  5 22  4  0
  6  7  3  0
  6 11  3  0
  6 13  1  0
  6 14  4  0
  6 21  3  0
  7 10  4  0
  7 21  4  0
  7 22  2  0
  8 10  1  0
  8 14  4  0
  8 16  1  0
  8 17  4  0
  8 18  3  0
  9 16  2  0
  9 20  2  0
  9 21  4  0
 10 13  4  0
 10 16  2  0
 10 18  3  0
 10 20  4  0
 11 15  4  0
 12 14  1  0
 12 17  1  0
 13 14  2  0
 13 15  4  0
 13 19  1  0
 13 20  2  0
 14 19  1  0
 14 20  3  0
 14 21  4  0
 14 22  1  0
 15 19  4  0
 16 21  4  0
 16 22  2  0
 17 18  3  0
 18 20  1  0
 18 21  1  0
 19 22  1  0
 20 22  4  0
M  END
$$$$

 Created by Python create_sdf_string function

 26 29  0  0  0  0  0  0  0  0999 V2000
   10.8773   -3.5425   22.4135 C   0  0  0  0  0  0  0  0  0  0  0  0
    9.0281   -5.4248   17.0027 C   0  0  0  0  0  0  0  0  0  0  0  0
    9.9243   -4.5400   17.1293 C   0  0  0  0  0  0  0  0  0  0  0  0
    9.1671   -1.5382   25.6225 N   0  0  0  0  0  0  0  0  0  0  0  0
    7.3869   -9.0732   15.1594 C   0  0  0  0  0  0  0  0  0  0  0  0
    6.3768   -7.1863   16.7383 C   0  0  0  0  0  0  0  0  0  0  0  0
   11.6777   -2.5942   18.3853 O   0  0  0  0  0  0  0  0  0  0  0  0
   10.3877   -2.8652   23.5448 C   0  0  0  0  0  0  0  0  0  0  0  0
    6.1386   -9.4713   15.6668 C   0  0  0  0  0  0  0  0  0  0  0  0
   10.0029   -1.5325   23.3685 C   0  0  0  0  0  0  0  0  0  0  0  0
    9.5498   -2.7840   25.7988 N   0  0  0  0  0  0  0  0  0  0  0  0
   11.0307   -3.0502   21.1123 N   0  0  0  0  0  0  0  0  0  0  0  0
   10.4070   -5.9690   18.6824 N   0  0  0  0  0  0  0  0  0  0  0  0
   11.1879   -4.9714   22.4273 C   0  0  0  0  0  0  0  0  0  0  0  0
    8.1232   -7.9142   15.3921 C   0  0  0  0  0  0  0  0  0  0  0  0
    5.6804   -8.4160   16.4729 C   0  0  0  0  0  0  0  0  0  0  0  0
    9.2614   -6.3907   18.2522 C   0  0  0  0  0  0  0  0  0  0  0  0
    7.4873   -6.9986   16.1311 C   0  0  0  0  0  0  0  0  0  0  0  0
   11.5349   -5.2969   21.0390 C   0  0  0  0  0  0  0  0  0  0  0  0
   10.6653   -4.7545   18.2304 N   0  0  0  0  0  0  0  0  0  0  0  0
    9.3838   -0.8758   24.4578 C   0  0  0  0  0  0  0  0  0  0  0  0
    9.9883   -3.7313   16.2114 N   0  0  0  0  0  0  0  0  0  0  0  0
   11.3033   -4.0666   20.2892 C   0  0  0  0  0  0  0  0  0  0  0  0
    8.1037   -5.6416   16.1163 C   0  0  0  0  0  0  0  0  0  0  0  0
   10.2042   -3.4930   24.7661 C   0  0  0  0  0  0  0  0  0  0  0  0
   11.2814   -3.9190   18.8522 C   0  0  0  0  0  0  0  0  0  0  0  0
  1  8  1  0
  1 12  4  0
  1 14  4  0
  2  3  4  0
  2 17  4  0
  2 24  1  0
  3 20  4  0
  3 22  1  0
  4 11  4  0
  4 21  4  0
  5  9  4  0
  5 15  4  0
  6 16  4  0
  6 18  4  0
  7 26  2  0
  8 10  4  0
  8 25  4  0
  9 16  4  0
 10 21  4  0
 11 25  4  0
 12 23  4  0
 13 17  4  0
 13 20  4  0
 14 19  4  0
 15 18  4  0
 18 24  1  0
 19 23  4  0
 20 26  1  0
 23 26  1  0
M  END
$$$$

 Created by Python create_sdf_string function

 26 37  0  0  0  0  0  0  0  0999 V2000
   10.8717   -3.8271   22.4420 C   0  0  0  0  0  0  0  0  0  0  0  0
    9.0126   -5.3488   16.3716 C   0  0  0  0  0  0  0  0  0  0  0  0
   10.3792   -4.5739   17.0436 C   0  0  0  0  0  0  0  0  0  0  0  0
    9.2469   -1.3580   25.7621 N   0  0  0  0  0  0  0  0  0  0  0  0
   11.3021   -2.3416   18.4427 O   0  0  0  0  0  0  0  0  0  0  0  0
   10.5347   -2.9286   23.4849 C   0  0  0  0  0  0  0  0  0  0  0  0
    9.8280   -1.7915   23.3102 C   0  0  0  0  0  0  0  0  0  0  0  0
    9.4497   -2.5312   26.2588 N   0  0  0  0  0  0  0  0  0  0  0  0
   11.2036   -3.2357   20.7766 N   0  0  0  0  0  0  0  0  0  0  0  0
   11.2713   -4.9386   22.0173 C   0  0  0  0  0  0  0  0  0  0  0  0
    8.5365   -8.6496   15.0295 C   0  0  0  0  0  0  0  0  0  0  0  0
    5.1336   -8.0525   16.7521 C   0  0  0  0  0  0  0  0  0  0  0  0
    8.6673   -7.1829   18.9942 S   0  0  0  0  0  0  0  0  0  0  0  0
    7.8876   -6.3499   14.8377 C   0  0  0  0  0  0  0  0  0  0  0  0
   11.7090   -5.6057   20.9808 C   0  0  0  0  0  0  0  0  0  0  0  0
    9.3044   -0.7811   24.5831 C   0  0  0  0  0  0  0  0  0  0  0  0
   11.1141   -3.8856   20.4801 C   0  0  0  0  0  0  0  0  0  0  0  0
    8.2308   -5.9151   16.3134 P   0  0  0  0  0  0  0  0  0  0  0  0
   10.5627   -3.8434   24.9510 C   0  0  0  0  0  0  0  0  0  0  0  0
    6.6540   -9.3131   15.3919 He  0  0  0  0  0  0  0  0  0  0  0  0
    6.1088   -6.7866   17.1354 He  0  0  0  0  0  0  0  0  0  0  0  0
    6.1465   -8.4525   14.7449 He  0  0  0  0  0  0  0  0  0  0  0  0
    9.9931   -6.5644   18.9964 He  0  0  0  0  0  0  0  0  0  0  0  0
   10.5104   -5.0588   17.9186 He  0  0  0  0  0  0  0  0  0  0  0  0
    9.9220   -2.6891   16.2810 He  0  0  0  0  0  0  0  0  0  0  0  0
   12.0325   -4.2480   17.4778 He  0  0  0  0  0  0  0  0  0  0  0  0
  1  6  1  0
  1  9  4  0
  1 10  4  0
  1 14  4  0
  2  3  4  0
  2 13  4  0
  2 14  2  0
  2 15  2  0
  2 17  3  0
  2 18  4  0
  3 12  3  0
  3 13  2  0
  3 18  1  0
  4  8  4  0
  4 11  3  0
  5 13  2  0
  6  7  4  0
  6 13  3  0
  6 19  4  0
  7 11  4  0
  7 16  4  0
  8 12  1  0
  8 19  4  0
  9 16  4  0
  9 17  2  0
 10 13  1  0
 10 14  2  0
 10 15  4  0
 10 16  1  0
 11 14  4  0
 11 18  2  0
 11 19  4  0
 12 15  2  0
 12 16  1  0
 12 19  4  0
 14 18  1  0
 15 17  4  0
M  END
$$$$

 Created by Python create_sdf_string function

 26 28  0  0  0  0  0  0  0  0999 V2000
   10.8445   -3.6490   22.4183 C   0  0  0  0  0  0  0  0  0  0  0  0
    9.0081   -5.5106   16.4328 C   0  0  0  0  0  0  0  0  0  0  0  0
    9.8327   -4.7386   16.9814 C   0  0  0  0  0  0  0  0  0  0  0  0
    9.2466   -1.5123   25.7257 N   0  0  0  0  0  0  0  0  0  0  0  0
    6.9148   -9.0515   15.1467 C   0  0  0  0  0  0  0  0  0  0  0  0
    6.2561   -7.0536   16.7421 C   0  0  0  0  0  0  0  0  0  0  0  0
   11.3815   -2.8154   18.4734 O   0  0  0  0  0  0  0  0  0  0  0  0
   10.3824   -2.9488   23.5227 C   0  0  0  0  0  0  0  0  0  0  0  0
    5.8927   -9.0257   15.7048 C   0  0  0  0  0  0  0  0  0  0  0  0
    9.9244   -1.6454   23.3761 C   0  0  0  0  0  0  0  0  0  0  0  0
    9.7323   -2.8003   25.8948 N   0  0  0  0  0  0  0  0  0  0  0  0
   10.9792   -3.1781   21.0789 N   0  0  0  0  0  0  0  0  0  0  0  0
    9.9893   -6.3684   18.4771 C   0  0  0  0  0  0  0  0  0  0  0  0
   11.1937   -5.0278   22.4048 C   0  0  0  0  0  0  0  0  0  0  0  0
    7.8795   -8.0027   15.1452 C   0  0  0  0  0  0  0  0  0  0  0  0
    5.5398   -7.9750   16.5238 C   0  0  0  0  0  0  0  0  0  0  0  0
    9.3241   -7.2289   18.3923 S   0  0  0  0  0  0  0  0  0  0  0  0
    7.6556   -6.9383   16.0780 C   0  0  0  0  0  0  0  0  0  0  0  0
   11.4515   -5.3790   21.0041 C   0  0  0  0  0  0  0  0  0  0  0  0
   10.4166   -5.0668   18.2397 C   0  0  0  0  0  0  0  0  0  0  0  0
    9.3528   -0.9213   24.4681 C   0  0  0  0  0  0  0  0  0  0  0  0
   10.2512   -3.5814   16.2973 N   0  0  0  0  0  0  0  0  0  0  0  0
   11.2222   -4.2025   20.2874 C   0  0  0  0  0  0  0  0  0  0  0  0
    8.5877   -6.2647   16.3109 C   0  0  0  0  0  0  0  0  0  0  0  0
   10.3008   -3.4998   24.8234 C   0  0  0  0  0  0  0  0  0  0  0  0
   11.1576   -4.0201   18.8731 C   0  0  0  0  0  0  0  0  0  0  0  0
  1  8  1  0
  1 12  4  0
  1 14  4  0
  2  3  4  0
  2 24  4  0
  3 20  4  0
  3 22  1  0
  4 11  4  0
  4 21  4  0
  5  9  4  0
  5 15  4  0
  6 16  4  0
  6 18  4  0
  7 26  2  0
  8 10  4  0
  8 25  4  0
  9 16  4  0
 10 21  4  0
 11 25  4  0
 12 23  4  0
 13 17  4  0
 13 20  4  0
 14 19  4  0
 15 18  4  0
 18 24  1  0
 19 23  4  0
 20 26  1  0
 23 26  1  0
M  END
$$$$

 Created by Python create_sdf_string function

 26 31  0  0  0  0  0  0  0  0999 V2000
   10.8901   -3.6834   22.4256 C   0  0  0  0  0  0  0  0  0  0  0  0
    9.6252   -4.1495   16.4093 C   0  0  0  0  0  0  0  0  0  0  0  0
    9.1921   -1.6834   25.6323 N   0  0  0  0  0  0  0  0  0  0  0  0
    6.5706   -6.3374   17.1746 C   0  0  0  0  0  0  0  0  0  0  0  0
   11.4791   -3.7708   18.0239 O   0  0  0  0  0  0  0  0  0  0  0  0
   10.1392   -2.8960   23.8437 C   0  0  0  0  0  0  0  0  0  0  0  0
    6.6654   -9.5637   15.3725 C   0  0  0  0  0  0  0  0  0  0  0  0
   10.1639   -1.4697   23.4904 C   0  0  0  0  0  0  0  0  0  0  0  0
    9.8719   -2.8729   25.5837 C   0  0  0  0  0  0  0  0  0  0  0  0
   11.0561   -3.0676   21.2957 N   0  0  0  0  0  0  0  0  0  0  0  0
   10.4338   -6.9403   19.3872 I   0  0  0  0  0  0  0  0  0  0  0  0
    9.7420   -8.5581   18.7282 S   0  0  0  0  0  0  0  0  0  0  0  0
    9.7233   -3.7798   17.3778 O   0  0  0  0  0  0  0  0  0  0  0  0
   11.1961   -4.0471   20.3256 C   0  0  0  0  0  0  0  0  0  0  0  0
    8.5221   -6.2427   16.5674 C   0  0  0  0  0  0  0  0  0  0  0  0
   10.9286   -4.7658   19.6118 C   0  0  0  0  0  0  0  0  0  0  0  0
    9.5353   -5.6092   16.7098 He  0  0  0  0  0  0  0  0  0  0  0  0
    6.6140   -8.8607   14.5162 He  0  0  0  0  0  0  0  0  0  0  0  0
   10.9448   -5.2392   22.2866 He  0  0  0  0  0  0  0  0  0  0  0  0
    7.7780   -8.3632   14.9495 He  0  0  0  0  0  0  0  0  0  0  0  0
    5.1344   -8.6820   16.8645 He  0  0  0  0  0  0  0  0  0  0  0  0
    8.0669   -7.1803   15.8517 He  0  0  0  0  0  0  0  0  0  0  0  0
   11.6863   -5.5645   21.0779 He  0  0  0  0  0  0  0  0  0  0  0  0
   10.1683   -5.7633   18.4980 He  0  0  0  0  0  0  0  0  0  0  0  0
    9.6568   -0.7029   24.8203 He  0  0  0  0  0  0  0  0  0  0  0  0
   10.3657   -3.4449   25.1772 He  0  0  0  0  0  0  0  0  0  0  0  0
  1  5  4  0
  1 10  4  0
  2  7  1  0
  2 10  2  0
  2 13  1  0
  2 16  1  0
  3  5  2  0
  3  7  4  0
  3  9  4  0
  3 13  4  0
  3 14  4  0
  4  7  3  0
  4  8  1  0
  4 11  1  0
  4 16  3  0
  5  6  1  0
  5  7  3  0
  5  9  2  0
  6  8  4  0
  6 12  2  0
  6 14  2  0
  7  8  2  0
  8 16  2  0
  9 12  3  0
  9 13  4  0
 10 11  2  0
 10 14  4  0
 11 12  4  0
 11 13  1  0
 11 15  4  0
 14 16  1  0
M  END
$$$$

 Created by Python create_sdf_string function

 26 29  0  0  0  0  0  0  0  0999 V2000
   10.8259   -3.5651   22.5758 C   0  0  0  0  0  0  0  0  0  0  0  0
    9.1039   -5.6478   16.5918 N   0  0  0  0  0  0  0  0  0  0  0  0
    9.8808   -4.8376   17.2781 C   0  0  0  0  0  0  0  0  0  0  0  0
    9.3036   -1.5007   25.7954 N   0  0  0  0  0  0  0  0  0  0  0  0
    6.4760   -9.2497   15.2922 N   0  0  0  0  0  0  0  0  0  0  0  0
    6.3885   -7.2155   16.8988 C   0  0  0  0  0  0  0  0  0  0  0  0
   11.5382   -3.2483   18.4361 N   0  0  0  0  0  0  0  0  0  0  0  0
   10.4127   -2.8684   23.6939 C   0  0  0  0  0  0  0  0  0  0  0  0
    6.2356   -9.2895   15.4882 C   0  0  0  0  0  0  0  0  0  0  0  0
   10.0908   -1.5317   23.5328 C   0  0  0  0  0  0  0  0  0  0  0  0
    9.6711   -2.8079   25.9611 C   0  0  0  0  0  0  0  0  0  0  0  0
   10.8852   -3.1918   21.2617 N   0  0  0  0  0  0  0  0  0  0  0  0
   10.2775   -6.6534   18.8653 C   0  0  0  0  0  0  0  0  0  0  0  0
   11.1691   -4.8675   22.6586 N   0  0  0  0  0  0  0  0  0  0  0  0
    7.8750   -8.2235   15.3437 C   0  0  0  0  0  0  0  0  0  0  0  0
    5.5160   -8.2423   16.6510 C   0  0  0  0  0  0  0  0  0  0  0  0
    9.4292   -7.6839   18.0879 C   0  0  0  0  0  0  0  0  0  0  0  0
    7.6518   -7.4512   16.3730 C   0  0  0  0  0  0  0  0  0  0  0  0
   11.3687   -5.3489   21.3326 O   0  0  0  0  0  0  0  0  0  0  0  0
   10.4066   -5.3349   18.4060 C   0  0  0  0  0  0  0  0  0  0  0  0
    9.5041   -0.8613   24.6080 C   0  0  0  0  0  0  0  0  0  0  0  0
   10.0506   -3.6151   16.8294 N   0  0  0  0  0  0  0  0  0  0  0  0
   11.1169   -4.2777   20.5064 C   0  0  0  0  0  0  0  0  0  0  0  0
    8.7234   -6.8627   16.9370 C   0  0  0  0  0  0  0  0  0  0  0  0
   10.2589   -3.5522   24.9242 C   0  0  0  0  0  0  0  0  0  0  0  0
   11.1941   -4.2535   19.1334 C   0  0  0  0  0  0  0  0  0  0  0  0
  1  8  1  0
  1 12  4  0
  1 14  4  0
  2  3  4  0
  2 24  4  0
  3 20  4  0
  3 22  1  0
  4 11  4  0
  4 21  4  0
  5  9  1  0
  6 16  1  0
  6 18  1  0
  7 26  1  0
  8 10  4  0
  8 25  4  0
  9 15  1  0
  9 16  1  0
 10 21  4  0
 11 25  4  0
 12 23  4  0
 13 17  4  0
 13 20  4  0
 14 19  4  0
 15 18  1  0
 17 24  4  0
 18 24  1  0
 19 23  4  0
 20 26  1  0
 23 26  1  0
M  END
$$$$

 Created by Python create_sdf_string function

 26 43  0  0  0  0  0  0  0  0999 V2000
    9.8492   -4.9903   17.1248 C   0  0  0  0  0  0  0  0  0  0  0  0
    9.0676   -1.0189   25.7445 N   0  0  0  0  0  0  0  0  0  0  0  0
    6.7232   -8.9228   15.1315 N   0  0  0  0  0  0  0  0  0  0  0  0
    5.6576   -6.8948   16.7026 C   0  0  0  0  0  0  0  0  0  0  0  0
   10.5265   -2.6889   23.9955 C   0  0  0  0  0  0  0  0  0  0  0  0
    9.9265   -1.3875   23.3474 F   0  0  0  0  0  0  0  0  0  0  0  0
   10.1453   -2.8271   26.0707 C   0  0  0  0  0  0  0  0  0  0  0  0
   10.5917   -3.1553   21.5033 N   0  0  0  0  0  0  0  0  0  0  0  0
   10.0693   -6.0400   19.1989 C   0  0  0  0  0  0  0  0  0  0  0  0
   11.0480   -4.7398   23.0979 N   0  0  0  0  0  0  0  0  0  0  0  0
    8.3755   -8.1354   15.0543 N   0  0  0  0  0  0  0  0  0  0  0  0
    4.7588   -8.0897   17.1931 S   0  0  0  0  0  0  0  0  0  0  0  0
    8.9455   -7.6088   19.1988 Cl  0  0  0  0  0  0  0  0  0  0  0  0
    7.4539   -7.3379   15.9992 C   0  0  0  0  0  0  0  0  0  0  0  0
   11.3725   -5.2270   21.5304 O   0  0  0  0  0  0  0  0  0  0  0  0
    9.3741   -0.7293   24.4336 C   0  0  0  0  0  0  0  0  0  0  0  0
   11.0403   -3.2190   16.2768 C   0  0  0  0  0  0  0  0  0  0  0  0
   10.8205   -4.2533   20.3164 C   0  0  0  0  0  0  0  0  0  0  0  0
    8.6972   -7.3628   16.9298 C   0  0  0  0  0  0  0  0  0  0  0  0
    9.9016   -3.3515   24.8416 C   0  0  0  0  0  0  0  0  0  0  0  0
   11.0498   -4.4989   19.3263 S   0  0  0  0  0  0  0  0  0  0  0  0
   11.0921   -3.5523   22.4223 He  0  0  0  0  0  0  0  0  0  0  0  0
    9.6651   -5.0151   16.0760 He  0  0  0  0  0  0  0  0  0  0  0  0
   11.4583   -2.7891   19.0869 He  0  0  0  0  0  0  0  0  0  0  0  0
    6.0851   -8.6642   15.9331 He  0  0  0  0  0  0  0  0  0  0  0  0
   10.6589   -5.7756   18.2616 He  0  0  0  0  0  0  0  0  0  0  0  0
  1  9  2  0
  1 13  1  0
  1 17  1  0
  1 20  2  0
  1 21  4  0
  2  3  2  0
  2  7  4  0
  2 16  1  0
  2 19  3  0
  3  7  2  0
  3 10  2  0
  3 11  2  0
  3 14  3  0
  3 17  3  0
  4  6  2  0
  4 12  1  0
  4 14  1  0
  4 17  2  0
  4 18  4  0
  5  6  4  0
  5 11  4  0
  5 17  4  0
  5 20  4  0
  6 15  3  0
  6 16  4  0
  7  9  2  0
  7 14  3  0
  7 20  4  0
  8  9  2  0
  9 13  3  0
  9 14  2  0
 10 15  4  0
 11 14  2  0
 11 16  4  0
 12 17  4  0
 13 19  4  0
 13 21  2  0
 14 15  4  0
 14 20  3  0
 15 18  4  0
 15 21  1  0
 16 21  3  0
 18 21  1  0
M  END
$$$$

 Created by Python create_sdf_string function

 26 30  0  0  0  0  0  0  0  0999 V2000
   10.7081   -3.5057   22.6887 C   0  0  0  0  0  0  0  0  0  0  0  0
    9.2467   -5.5108   16.4467 C   0  0  0  0  0  0  0  0  0  0  0  0
   10.0556   -4.9368   17.2397 C   0  0  0  0  0  0  0  0  0  0  0  0
    9.2552   -1.2159   25.8096 N   0  0  0  0  0  0  0  0  0  0  0  0
    6.8796   -9.0014   15.2894 N   0  0  0  0  0  0  0  0  0  0  0  0
    6.1452   -7.1970   16.9323 C   0  0  0  0  0  0  0  0  0  0  0  0
   11.1463   -3.0589   18.4315 C   0  0  0  0  0  0  0  0  0  0  0  0
   10.2775   -2.7163   23.7699 C   0  0  0  0  0  0  0  0  0  0  0  0
    5.9768   -8.9950   15.7925 C   0  0  0  0  0  0  0  0  0  0  0  0
    9.9176   -1.3971   23.5226 C   0  0  0  0  0  0  0  0  0  0  0  0
    9.6570   -2.5135   26.0395 C   0  0  0  0  0  0  0  0  0  0  0  0
   10.7272   -3.1474   21.3938 N   0  0  0  0  0  0  0  0  0  0  0  0
   10.0335   -6.4472   18.8698 C   0  0  0  0  0  0  0  0  0  0  0  0
   11.1629   -4.7673   22.8122 N   0  0  0  0  0  0  0  0  0  0  0  0
    7.8897   -8.2156   15.3336 N   0  0  0  0  0  0  0  0  0  0  0  0
    5.4318   -8.1797   16.7277 N   0  0  0  0  0  0  0  0  0  0  0  0
    9.2112   -7.3528   18.2765 C   0  0  0  0  0  0  0  0  0  0  0  0
    7.5054   -7.4664   16.3503 C   0  0  0  0  0  0  0  0  0  0  0  0
   11.2532   -5.2898   21.4999 O   0  0  0  0  0  0  0  0  0  0  0  0
   10.3130   -5.3173   18.4991 C   0  0  0  0  0  0  0  0  0  0  0  0
    9.3785   -0.6468   24.5675 C   0  0  0  0  0  0  0  0  0  0  0  0
   10.8314   -3.6628   16.9357 C   0  0  0  0  0  0  0  0  0  0  0  0
   10.9833   -4.2011   20.6792 C   0  0  0  0  0  0  0  0  0  0  0  0
    8.6510   -6.7916   16.9875 C   0  0  0  0  0  0  0  0  0  0  0  0
   10.2110   -3.2852   25.0437 C   0  0  0  0  0  0  0  0  0  0  0  0
   10.9799   -4.1542   19.2245 C   0  0  0  0  0  0  0  0  0  0  0  0
  1  8  1  0
  1 12  4  0
  1 14  4  0
  2  3  4  0
  2 24  4  0
  3 20  4  0
  3 22  1  0
  4 11  4  0
  4 21  4  0
  5  9  1  0
  5 15  2  0
  6 16  1  0
  6 18  1  0
  7 22  1  0
  7 26  1  0
  8 10  4  0
  8 25  4  0
  9 16  2  0
 10 21  4  0
 11 25  4  0
 12 23  4  0
 13 17  4  0
 13 20  4  0
 14 19  4  0
 15 18  2  0
 17 24  4  0
 18 24  1  0
 19 23  4  0
 20 26  1  0
 23 26  1  0
M  END
$$$$

 Created by Python create_sdf_string function

 26 28  0  0  0  0  0  0  0  0999 V2000
   10.8972   -3.3922   22.9728 C   0  0  0  0  0  0  0  0  0  0  0  0
   10.0982   -4.8148   17.2526 C   0  0  0  0  0  0  0  0  0  0  0  0
    9.3022   -1.1318   25.7126 N   0  0  0  0  0  0  0  0  0  0  0  0
    6.5226   -7.2337   16.3985 C   0  0  0  0  0  0  0  0  0  0  0  0
   11.0699   -3.2888   18.6541 C   0  0  0  0  0  0  0  0  0  0  0  0
   10.2084   -2.7285   23.6150 C   0  0  0  0  0  0  0  0  0  0  0  0
    6.0127   -9.5368   15.1978 C   0  0  0  0  0  0  0  0  0  0  0  0
   10.4012   -6.8822   18.5689 C   0  0  0  0  0  0  0  0  0  0  0  0
   10.9930   -5.0296   22.9983 N   0  0  0  0  0  0  0  0  0  0  0  0
    8.0029   -7.3863   15.5583 F   0  0  0  0  0  0  0  0  0  0  0  0
   11.1927   -4.7155   21.6105 O   0  0  0  0  0  0  0  0  0  0  0  0
    9.3027   -0.6611   24.5323 F   0  0  0  0  0  0  0  0  0  0  0  0
   10.1749   -2.4603   16.9249 C   0  0  0  0  0  0  0  0  0  0  0  0
    9.1866   -6.9034   17.0032 C   0  0  0  0  0  0  0  0  0  0  0  0
   10.4333   -3.0703   25.1055 C   0  0  0  0  0  0  0  0  0  0  0  0
   11.7591   -4.6085   19.5186 C   0  0  0  0  0  0  0  0  0  0  0  0
    9.4945   -5.1825   16.5006 He  0  0  0  0  0  0  0  0  0  0  0  0
    5.6863   -9.5186   15.6514 He  0  0  0  0  0  0  0  0  0  0  0  0
    9.9764   -1.2345   23.5636 He  0  0  0  0  0  0  0  0  0  0  0  0
    9.6399   -2.3076   26.4320 He  0  0  0  0  0  0  0  0  0  0  0  0
   11.1483   -2.8874   21.3995 He  0  0  0  0  0  0  0  0  0  0  0  0
    4.9320   -8.7062   16.0624 He  0  0  0  0  0  0  0  0  0  0  0  0
    8.9739   -7.3783   18.7681 He  0  0  0  0  0  0  0  0  0  0  0  0
    7.0507   -6.5337   16.4847 He  0  0  0  0  0  0  0  0  0  0  0  0
    9.5272   -4.9681   18.3798 He  0  0  0  0  0  0  0  0  0  0  0  0
   10.9993   -4.3261   20.5272 He  0  0  0  0  0  0  0  0  0  0  0  0
  1  5  2  0
  1  6  1  0
  1  9  4  0
  2  5  4  0
  2  8  4  0
  2  9  1  0
  2 11  1  0
  2 14  1  0
  3  6  3  0
  3  8  4  0
  3 12  4  0
  3 13  3  0
  4  9  3  0
  4 10  2  0
  4 12  3  0
  4 13  1  0
  4 15  4  0
  5 11  2  0
  5 13  1  0
  6  8  4  0
  6 15  4  0
  7 16  1  0
  8 12  1  0
  8 13  2  0
  8 15  3  0
  9 11  4  0
 13 14  2  0
 14 16  4  0
M  END
$$$$

 Created by Python create_sdf_string function

 26 30  0  0  0  0  0  0  0  0999 V2000
   10.7682   -3.4065   22.8230 C   0  0  0  0  0  0  0  0  0  0  0  0
    9.0625   -5.4337   16.7229 N   0  0  0  0  0  0  0  0  0  0  0  0
   10.0009   -4.8881   17.5307 C   0  0  0  0  0  0  0  0  0  0  0  0
    9.1833   -1.0629   25.8406 N   0  0  0  0  0  0  0  0  0  0  0  0
    6.2733   -9.2532   15.2578 C   0  0  0  0  0  0  0  0  0  0  0  0
    6.0519   -7.2945   16.8760 C   0  0  0  0  0  0  0  0  0  0  0  0
   11.0036   -3.1111   18.5985 C   0  0  0  0  0  0  0  0  0  0  0  0
   10.3276   -2.6036   23.8622 C   0  0  0  0  0  0  0  0  0  0  0  0
    5.9846   -9.1567   15.5236 C   0  0  0  0  0  0  0  0  0  0  0  0
    9.9278   -1.2999   23.5753 C   0  0  0  0  0  0  0  0  0  0  0  0
    9.6374   -2.3225   26.1332 C   0  0  0  0  0  0  0  0  0  0  0  0
   10.9282   -3.0830   21.5678 N   0  0  0  0  0  0  0  0  0  0  0  0
   10.0607   -6.6539   18.8503 C   0  0  0  0  0  0  0  0  0  0  0  0
   11.0457   -4.6978   22.9111 N   0  0  0  0  0  0  0  0  0  0  0  0
    7.4824   -8.2223   15.5087 C   0  0  0  0  0  0  0  0  0  0  0  0
    5.2106   -8.2612   16.3320 C   0  0  0  0  0  0  0  0  0  0  0  0
    9.1172   -7.2942   18.0373 C   0  0  0  0  0  0  0  0  0  0  0  0
    7.3438   -7.2826   16.3978 C   0  0  0  0  0  0  0  0  0  0  0  0
   11.2317   -5.2136   21.5839 O   0  0  0  0  0  0  0  0  0  0  0  0
   10.3889   -5.3447   18.6293 C   0  0  0  0  0  0  0  0  0  0  0  0
    9.3312   -0.5503   24.5754 C   0  0  0  0  0  0  0  0  0  0  0  0
   10.6693   -3.2654   17.2427 C   0  0  0  0  0  0  0  0  0  0  0  0
   11.0987   -4.1487   20.7730 C   0  0  0  0  0  0  0  0  0  0  0  0
    8.4970   -6.6036   17.0234 C   0  0  0  0  0  0  0  0  0  0  0  0
   10.2193   -3.1260   25.1426 C   0  0  0  0  0  0  0  0  0  0  0  0
   11.0755   -4.2339   19.3229 C   0  0  0  0  0  0  0  0  0  0  0  0
  1  8  1  0
  1 12  4  0
  1 14  4  0
  2  3  4  0
  2 24  4  0
  3 20  4  0
  4 11  4  0
  4 21  4  0
  5  9  4  0
  5 15  4  0
  6 16  4  0
  6 18  4  0
  7 22  4  0
  7 26  4  0
  8 10  4  0
  8 25  4  0
  9 15  4  0
  9 16  4  0
 10 21  4  0
 11 25  4  0
 12 23  4  0
 13 17  4  0
 13 20  4  0
 14 19  4  0
 15 18  4  0
 17 24  4  0
 18 24  1  0
 19 23  4  0
 20 26  4  0
 23 26  1  0
M  END
$$$$

 Created by Python create_sdf_string function

 26 46  0  0  0  0  0  0  0  0999 V2000
   10.9957   -3.4724   22.7066 C   0  0  0  0  0  0  0  0  0  0  0  0
    9.5714   -5.5591   18.0332 N   0  0  0  0  0  0  0  0  0  0  0  0
   10.0053   -4.9730   17.3478 C   0  0  0  0  0  0  0  0  0  0  0  0
    9.5407   -1.0703   25.7631 N   0  0  0  0  0  0  0  0  0  0  0  0
    6.7816   -9.4512   15.3639 C   0  0  0  0  0  0  0  0  0  0  0  0
    6.0706   -7.0975   16.2084 C   0  0  0  0  0  0  0  0  0  0  0  0
   10.2752   -2.6055   23.7581 N   0  0  0  0  0  0  0  0  0  0  0  0
    5.7343   -9.0169   15.5073 S   0  0  0  0  0  0  0  0  0  0  0  0
    9.9499   -1.2296   23.4178 C   0  0  0  0  0  0  0  0  0  0  0  0
    9.3778   -2.3561   26.2423 C   0  0  0  0  0  0  0  0  0  0  0  0
   11.3995   -3.0109   21.7418 N   0  0  0  0  0  0  0  0  0  0  0  0
    9.8674   -5.6938   18.7484 C   0  0  0  0  0  0  0  0  0  0  0  0
   10.7159   -4.5972   22.6929 N   0  0  0  0  0  0  0  0  0  0  0  0
    4.6992   -7.7350   16.9313 C   0  0  0  0  0  0  0  0  0  0  0  0
    9.5163   -6.8585   18.6953 F   0  0  0  0  0  0  0  0  0  0  0  0
    7.8610   -7.7892   16.0316 C   0  0  0  0  0  0  0  0  0  0  0  0
   10.9797   -5.5455   21.0996 O   0  0  0  0  0  0  0  0  0  0  0  0
   10.4852   -5.3624   18.9428 C   0  0  0  0  0  0  0  0  0  0  0  0
    9.4753   -0.6487   24.6792 C   0  0  0  0  0  0  0  0  0  0  0  0
   11.4348   -4.1878   20.5698 C   0  0  0  0  0  0  0  0  0  0  0  0
    8.3615   -6.7292   17.0877 C   0  0  0  0  0  0  0  0  0  0  0  0
   10.0415   -3.2937   24.7651 C   0  0  0  0  0  0  0  0  0  0  0  0
   10.7052   -3.1428   17.9202 He  0  0  0  0  0  0  0  0  0  0  0  0
    7.7764   -6.9813   15.0028 He  0  0  0  0  0  0  0  0  0  0  0  0
   11.1240   -3.2225   17.2096 He  0  0  0  0  0  0  0  0  0  0  0  0
   11.1358   -4.4554   19.5373 He  0  0  0  0  0  0  0  0  0  0  0  0
  1  7  1  0
  1 11  4  0
  1 13  4  0
  1 16  3  0
  1 17  4  0
  2 10  3  0
  2 13  4  0
  2 18  2  0
  2 20  2  0
  2 21  4  0
  3  6  3  0
  3 13  1  0
  4 10  4  0
  4 13  3  0
  4 19  4  0
  5  8  4  0
  5 11  2  0
  5 14  2  0
  6  9  4  0
  6 11  2  0
  6 16  4  0
  7  9  4  0
  7 16  4  0
  7 22  4  0
  8 11  2  0
  8 13  3  0
  8 14  4  0
  9 10  2  0
  9 19  4  0
 10 12  3  0
 10 13  2  0
 10 15  2  0
 10 22  4  0
 11 12  1  0
 11 14  3  0
 11 20  4  0
 12 14  1  0
 12 15  4  0
 12 18  4  0
 12 19  3  0
 13 16  2  0
 14 16  1  0
 14 18  4  0
 15 21  4  0
 16 21  3  0
 17 20  4  0
M  END
$$$$

 Created by Python create_sdf_string function

 26 30  0  0  0  0  0  0  0  0999 V2000
   10.7377   -3.3730   22.7094 C   0  0  0  0  0  0  0  0  0  0  0  0
    9.1531   -5.4972   16.6264 N   0  0  0  0  0  0  0  0  0  0  0  0
   10.0507   -4.7784   17.4148 C   0  0  0  0  0  0  0  0  0  0  0  0
    9.3421   -1.1088   25.8150 N   0  0  0  0  0  0  0  0  0  0  0  0
    6.7404   -8.9586   15.1521 C   0  0  0  0  0  0  0  0  0  0  0  0
    6.1837   -7.0900   16.9635 C   0  0  0  0  0  0  0  0  0  0  0  0
   11.2070   -3.1511   18.4192 N   0  0  0  0  0  0  0  0  0  0  0  0
   10.2762   -2.6247   23.7550 C   0  0  0  0  0  0  0  0  0  0  0  0
    5.6229   -8.9590   15.6449 C   0  0  0  0  0  0  0  0  0  0  0  0
   10.0509   -1.2995   23.5445 C   0  0  0  0  0  0  0  0  0  0  0  0
    9.5288   -2.4415   26.0191 C   0  0  0  0  0  0  0  0  0  0  0  0
   10.9885   -3.0096   21.4169 N   0  0  0  0  0  0  0  0  0  0  0  0
   10.0424   -6.5015   19.0367 C   0  0  0  0  0  0  0  0  0  0  0  0
   10.9055   -4.7051   22.8231 N   0  0  0  0  0  0  0  0  0  0  0  0
    7.6088   -8.0556   15.4450 C   0  0  0  0  0  0  0  0  0  0  0  0
    5.1850   -7.9243   16.5280 C   0  0  0  0  0  0  0  0  0  0  0  0
    9.1597   -7.1379   18.2466 C   0  0  0  0  0  0  0  0  0  0  0  0
    7.4664   -7.2220   16.4968 C   0  0  0  0  0  0  0  0  0  0  0  0
   11.2161   -5.2211   21.4631 O   0  0  0  0  0  0  0  0  0  0  0  0
   10.3806   -5.1710   18.5763 C   0  0  0  0  0  0  0  0  0  0  0  0
    9.5563   -0.5298   24.5973 C   0  0  0  0  0  0  0  0  0  0  0  0
   10.7128   -3.5640   17.2246 N   0  0  0  0  0  0  0  0  0  0  0  0
   11.1227   -4.0186   20.6609 C   0  0  0  0  0  0  0  0  0  0  0  0
    8.5637   -6.6097   17.0930 C   0  0  0  0  0  0  0  0  0  0  0  0
    9.9958   -3.2332   24.9694 C   0  0  0  0  0  0  0  0  0  0  0  0
   11.0000   -4.0714   19.2486 C   0  0  0  0  0  0  0  0  0  0  0  0
  1  8  1  0
  1 12  4  0
  1 14  4  0
  2  3  4  0
  2 24  4  0
  3 20  4  0
  3 22  4  0
  4 11  4  0
  4 21  4  0
  5  9  4  0
  5 15  4  0
  6 16  4  0
  6 18  4  0
  7 22  4  0
  7 26  4  0
  8 10  4  0
  8 25  4  0
  9 16  4  0
 10 21  4  0
 11 25  4  0
 12 23  4  0
 13 17  4  0
 13 20  4  0
 14 19  4  0
 15 18  4  0
 17 24  4  0
 18 24  1  0
 19 23  4  0
 20 26  4  0
 23 26  1  0
M  END
$$$$

 Created by Python create_sdf_string function

 26 52  0  0  0  0  0  0  0  0999 V2000
   10.6815   -3.4686   22.8708 C   0  0  0  0  0  0  0  0  0  0  0  0
   10.1831   -4.8906   17.5524 C   0  0  0  0  0  0  0  0  0  0  0  0
    9.1518   -0.9373   25.8107 P   0  0  0  0  0  0  0  0  0  0  0  0
    6.0483   -7.1738   17.2529 C   0  0  0  0  0  0  0  0  0  0  0  0
   11.4301   -3.0447   18.0655 N   0  0  0  0  0  0  0  0  0  0  0  0
   10.2920   -2.3805   23.6920 C   0  0  0  0  0  0  0  0  0  0  0  0
   10.1961   -1.2996   23.2948 C   0  0  0  0  0  0  0  0  0  0  0  0
    9.6500   -2.3039   26.2108 C   0  0  0  0  0  0  0  0  0  0  0  0
   10.6758   -3.1836   21.3737 N   0  0  0  0  0  0  0  0  0  0  0  0
   10.0214   -6.7572   19.8018 F   0  0  0  0  0  0  0  0  0  0  0  0
   10.7825   -4.7336   22.8685 N   0  0  0  0  0  0  0  0  0  0  0  0
    8.0239   -8.2809   15.9663 C   0  0  0  0  0  0  0  0  0  0  0  0
    9.5085   -7.3366   18.6427 C   0  0  0  0  0  0  0  0  0  0  0  0
   11.3865   -5.3828   21.1425 O   0  0  0  0  0  0  0  0  0  0  0  0
    9.8901   -5.9249   18.4659 C   0  0  0  0  0  0  0  0  0  0  0  0
    9.6520   -0.4656   24.3719 C   0  0  0  0  0  0  0  0  0  0  0  0
   10.2756   -4.5726   17.6309 N   0  0  0  0  0  0  0  0  0  0  0  0
   10.9604   -4.0713   20.5622 C   0  0  0  0  0  0  0  0  0  0  0  0
    9.8309   -3.0361   24.8507 C   0  0  0  0  0  0  0  0  0  0  0  0
   11.0221   -4.3702   18.9656 C   0  0  0  0  0  0  0  0  0  0  0  0
    8.4817   -5.5894   16.4358 He  0  0  0  0  0  0  0  0  0  0  0  0
    6.8920   -8.8957   15.5999 He  0  0  0  0  0  0  0  0  0  0  0  0
    6.4145   -8.7357   14.8997 He  0  0  0  0  0  0  0  0  0  0  0  0
    4.9173   -6.9759   16.9051 He  0  0  0  0  0  0  0  0  0  0  0  0
    7.1230   -7.4213   16.9768 He  0  0  0  0  0  0  0  0  0  0  0  0
    8.4956   -6.6698   16.8810 He  0  0  0  0  0  0  0  0  0  0  0  0
  1  3  2  0
  1  6  1  0
  1  9  4  0
  1 11  4  0
  1 17  3  0
  1 20  3  0
  2  5  3  0
  2  8  3  0
  2 10  2  0
  2 15  2  0
  2 17  4  0
  3  5  3  0
  3  8  4  0
  3 10  1  0
  3 16  4  0
  4 14  1  0
  4 19  1  0
  5  9  4  0
  5 10  3  0
  5 11  4  0
  5 14  4  0
  5 16  1  0
  5 17  3  0
  5 20  4  0
  6 10  2  0
  6 13  3  0
  6 17  4  0
  6 19  4  0
  7 10  1  0
  7 13  1  0
  7 14  3  0
  7 15  3  0
  7 16  4  0
  7 20  1  0
  8 19  4  0
  8 20  4  0
  9 13  2  0
  9 18  4  0
 10 13  4  0
 10 15  4  0
 11 13  3  0
 11 14  4  0
 11 15  2  0
 12 15  3  0
 12 16  2  0
 12 19  3  0
 13 18  4  0
 13 19  1  0
 13 20  2  0
 14 15  2  0
 15 20  4  0
 18 20  4  0
M  END
$$$$

 Created by Python create_sdf_string function

 26 30  0  0  0  0  0  0  0  0999 V2000
   10.6387   -3.3963   22.6782 C   0  0  0  0  0  0  0  0  0  0  0  0
    8.9702   -5.6592   16.8314 N   0  0  0  0  0  0  0  0  0  0  0  0
    9.8700   -4.9715   17.4660 C   0  0  0  0  0  0  0  0  0  0  0  0
    9.3070   -0.9096   25.7168 C   0  0  0  0  0  0  0  0  0  0  0  0
    6.7128   -9.0110   15.3161 C   0  0  0  0  0  0  0  0  0  0  0  0
    6.3324   -7.1855   17.1712 C   0  0  0  0  0  0  0  0  0  0  0  0
   10.9692   -3.3136   18.3834 N   0  0  0  0  0  0  0  0  0  0  0  0
   10.2311   -2.5568   23.7207 C   0  0  0  0  0  0  0  0  0  0  0  0
    5.5103   -8.6706   15.5485 C   0  0  0  0  0  0  0  0  0  0  0  0
   10.0877   -1.2157   23.4653 C   0  0  0  0  0  0  0  0  0  0  0  0
    9.5015   -2.2542   25.9886 C   0  0  0  0  0  0  0  0  0  0  0  0
   10.7903   -3.0698   21.3923 N   0  0  0  0  0  0  0  0  0  0  0  0
   10.1833   -6.6788   19.1728 N   0  0  0  0  0  0  0  0  0  0  0  0
   10.9254   -4.7130   22.8228 N   0  0  0  0  0  0  0  0  0  0  0  0
    7.7929   -8.3858   15.8294 C   0  0  0  0  0  0  0  0  0  0  0  0
    5.2336   -7.7187   16.5694 C   0  0  0  0  0  0  0  0  0  0  0  0
    9.2944   -7.4691   18.4564 C   0  0  0  0  0  0  0  0  0  0  0  0
    7.6312   -7.4385   16.8074 C   0  0  0  0  0  0  0  0  0  0  0  0
   11.1527   -5.2188   21.5503 O   0  0  0  0  0  0  0  0  0  0  0  0
   10.3047   -5.4142   18.6447 C   0  0  0  0  0  0  0  0  0  0  0  0
    9.6000   -0.4004   24.4675 C   0  0  0  0  0  0  0  0  0  0  0  0
   10.3721   -3.8210   17.2047 N   0  0  0  0  0  0  0  0  0  0  0  0
   10.9604   -4.1323   20.6870 C   0  0  0  0  0  0  0  0  0  0  0  0
    8.6362   -6.7655   17.3535 C   0  0  0  0  0  0  0  0  0  0  0  0
    9.9575   -3.0781   24.9823 C   0  0  0  0  0  0  0  0  0  0  0  0
   10.8056   -4.3091   19.2999 C   0  0  0  0  0  0  0  0  0  0  0  0
  1  8  1  0
  1 12  4  0
  1 14  4  0
  2  3  4  0
  2 24  4  0
  3 20  4  0
  3 22  4  0
  4 11  4  0
  4 21  4  0
  5  9  4  0
  5 15  4  0
  6 16  4  0
  6 18  4  0
  7 22  4  0
  7 26  4  0
  8 10  4  0
  8 25  4  0
  9 16  4  0
 10 21  4  0
 11 25  4  0
 12 23  4  0
 13 17  4  0
 13 20  4  0
 14 19  4  0
 15 18  4  0
 17 24  4  0
 18 24  1  0
 19 23  4  0
 20 26  4  0
 23 26  1  0
M  END
$$$$

 Created by Python create_sdf_string function

 26 56  0  0  0  0  0  0  0  0999 V2000
   10.4769   -3.2473   22.6046 C   0  0  0  0  0  0  0  0  0  0  0  0
   10.0019   -4.7953   17.5666 O   0  0  0  0  0  0  0  0  0  0  0  0
    9.1777   -0.6426   25.8325 C   0  0  0  0  0  0  0  0  0  0  0  0
    6.1090   -8.9116   14.5399 C   0  0  0  0  0  0  0  0  0  0  0  0
    6.1230   -7.7113   17.5583 C   0  0  0  0  0  0  0  0  0  0  0  0
   10.2842   -3.2313   18.4089 N   0  0  0  0  0  0  0  0  0  0  0  0
   10.2475   -2.6162   23.9191 C   0  0  0  0  0  0  0  0  0  0  0  0
    5.8280   -8.4782   15.5380 N   0  0  0  0  0  0  0  0  0  0  0  0
   10.2310   -1.3270   23.2072 C   0  0  0  0  0  0  0  0  0  0  0  0
    9.6635   -2.3207   26.0481 C   0  0  0  0  0  0  0  0  0  0  0  0
   11.0458   -3.3094   21.6994 C   0  0  0  0  0  0  0  0  0  0  0  0
    9.4916   -6.7992   19.1550 N   0  0  0  0  0  0  0  0  0  0  0  0
    7.7027   -7.6521   15.5102 C   0  0  0  0  0  0  0  0  0  0  0  0
    5.7495   -7.4779   17.6732 C   0  0  0  0  0  0  0  0  0  0  0  0
    9.3355   -7.5126   19.2954 C   0  0  0  0  0  0  0  0  0  0  0  0
    7.3254   -6.9027   15.9960 C   0  0  0  0  0  0  0  0  0  0  0  0
   11.3067   -5.3709   21.5096 S   0  0  0  0  0  0  0  0  0  0  0  0
   11.4743   -5.3853   18.9618 C   0  0  0  0  0  0  0  0  0  0  0  0
    9.8612   -0.1836   24.4798 C   0  0  0  0  0  0  0  0  0  0  0  0
   10.6510   -3.7399   17.0193 N   0  0  0  0  0  0  0  0  0  0  0  0
   10.9528   -3.8704   20.8200 C   0  0  0  0  0  0  0  0  0  0  0  0
    8.6159   -6.4563   17.3892 C   0  0  0  0  0  0  0  0  0  0  0  0
   10.0036   -3.0641   25.1373 C   0  0  0  0  0  0  0  0  0  0  0  0
   10.9141   -4.2246   19.8213 C   0  0  0  0  0  0  0  0  0  0  0  0
   10.0877   -4.8889   16.3062 He  0  0  0  0  0  0  0  0  0  0  0  0
   10.7690   -4.4101   22.7963 He  0  0  0  0  0  0  0  0  0  0  0  0
  1  5  1  0
  1  7  1  0
  1 11  4  0
  1 15  1  0
  1 16  2  0
  1 24  1  0
  2 16  1  0
  2 18  4  0
  2 20  4  0
  3  4  4  0
  3  8  3  0
  3 10  4  0
  3 19  4  0
  4  8  4  0
  4 13  4  0
  5  9  1  0
  5 14  4  0
  5 23  3  0
  6 17  1  0
  6 18  3  0
  6 20  4  0
  6 24  4  0
  7 23  4  0
  7 24  4  0
  8 13  1  0
  8 14  4  0
  8 15  1  0
  8 18  1  0
  8 20  1  0
  9 19  4  0
 10 17  2  0
 10 23  4  0
 10 24  3  0
 11 15  1  0
 11 21  4  0
 12 15  4  0
 12 16  3  0
 12 19  1  0
 12 23  2  0
 12 24  3  0
 14 16  3  0
 14 17  1  0
 14 20  2  0
 14 21  3  0
 15 18  2  0
 15 21  1  0
 15 22  4  0
 16 18  4  0
 17 20  2  0
 17 21  4  0
 18 19  4  0
 18 24  4  0
 19 22  2  0
 21 23  2  0
 21 24  4  0
 22 24  4  0
M  END
$$$$

 Created by Python create_sdf_string function

 26 30  0  0  0  0  0  0  0  0999 V2000
   10.6861   -3.2875   22.8366 C   0  0  0  0  0  0  0  0  0  0  0  0
    9.3574   -5.5435   16.6450 C   0  0  0  0  0  0  0  0  0  0  0  0
   10.0345   -4.8734   17.5230 C   0  0  0  0  0  0  0  0  0  0  0  0
    9.3109   -0.7796   25.8354 C   0  0  0  0  0  0  0  0  0  0  0  0
    6.4402   -8.4548   15.0711 C   0  0  0  0  0  0  0  0  0  0  0  0
    6.4878   -7.2217   17.4876 C   0  0  0  0  0  0  0  0  0  0  0  0
   10.9816   -3.1646   18.5814 N   0  0  0  0  0  0  0  0  0  0  0  0
   10.2766   -2.4249   23.8744 C   0  0  0  0  0  0  0  0  0  0  0  0
    5.4579   -8.6289   15.8774 N   0  0  0  0  0  0  0  0  0  0  0  0
   10.1407   -1.0807   23.6173 C   0  0  0  0  0  0  0  0  0  0  0  0
    9.4266   -2.1079   26.0767 C   0  0  0  0  0  0  0  0  0  0  0  0
   10.7580   -3.0227   21.5069 C   0  0  0  0  0  0  0  0  0  0  0  0
   10.1870   -6.5927   19.1277 N   0  0  0  0  0  0  0  0  0  0  0  0
   10.9968   -4.6011   23.0466 N   0  0  0  0  0  0  0  0  0  0  0  0
    7.5817   -7.7239   15.4443 C   0  0  0  0  0  0  0  0  0  0  0  0
    5.4032   -7.9613   17.0851 C   0  0  0  0  0  0  0  0  0  0  0  0
    9.4431   -7.3381   18.3304 C   0  0  0  0  0  0  0  0  0  0  0  0
    7.6444   -7.1249   16.6542 C   0  0  0  0  0  0  0  0  0  0  0  0
   11.2430   -5.3220   21.6348 O   0  0  0  0  0  0  0  0  0  0  0  0
   10.3457   -5.2903   18.7405 C   0  0  0  0  0  0  0  0  0  0  0  0
    9.6211   -0.2435   24.6152 C   0  0  0  0  0  0  0  0  0  0  0  0
   10.5130   -3.6182   17.3482 N   0  0  0  0  0  0  0  0  0  0  0  0
   10.9702   -4.0638   20.8207 C   0  0  0  0  0  0  0  0  0  0  0  0
    8.8632   -6.7369   17.1902 C   0  0  0  0  0  0  0  0  0  0  0  0
    9.9349   -2.9749   25.1041 C   0  0  0  0  0  0  0  0  0  0  0  0
   10.8006   -4.1859   19.4137 C   0  0  0  0  0  0  0  0  0  0  0  0
  1  8  1  0
  1 12  4  0
  1 14  4  0
  2  3  4  0
  2 24  4  0
  3 20  4  0
  3 22  4  0
  4 11  4  0
  4 21  4  0
  5  9  4  0
  5 15  4  0
  6 16  4  0
  6 18  4  0
  7 22  4  0
  7 26  4  0
  8 10  4  0
  8 25  4  0
  9 16  4  0
 10 21  4  0
 11 25  4  0
 12 23  4  0
 13 17  4  0
 13 20  4  0
 14 19  4  0
 15 18  4  0
 17 24  4  0
 18 24  1  0
 19 23  4  0
 20 26  4  0
 23 26  1  0
M  END
$$$$

 Created by Python create_sdf_string function

 26 52  0  0  0  0  0  0  0  0999 V2000
   10.9661   -3.4305   22.4419 C   0  0  0  0  0  0  0  0  0  0  0  0
    9.0048   -5.7712   17.2704 C   0  0  0  0  0  0  0  0  0  0  0  0
   10.1200   -4.9093   17.4314 C   0  0  0  0  0  0  0  0  0  0  0  0
    9.1955   -0.6722   25.7001 C   0  0  0  0  0  0  0  0  0  0  0  0
    6.2777   -9.2498   15.1618 C   0  0  0  0  0  0  0  0  0  0  0  0
   11.6505   -2.6267   18.6219 N   0  0  0  0  0  0  0  0  0  0  0  0
   10.1705   -2.0944   23.8254 C   0  0  0  0  0  0  0  0  0  0  0  0
    5.2442   -9.0978   16.3341 F   0  0  0  0  0  0  0  0  0  0  0  0
   10.2336   -1.2658   23.6282 C   0  0  0  0  0  0  0  0  0  0  0  0
    9.4568   -2.1855   26.4221 Cl  0  0  0  0  0  0  0  0  0  0  0  0
   10.7012   -3.1938   21.6056 C   0  0  0  0  0  0  0  0  0  0  0  0
   11.1716   -4.3990   23.1753 N   0  0  0  0  0  0  0  0  0  0  0  0
    7.0488   -7.6529   15.4395 C   0  0  0  0  0  0  0  0  0  0  0  0
    6.0278   -8.5346   16.8065 C   0  0  0  0  0  0  0  0  0  0  0  0
    9.9682   -6.2869   18.3550 C   0  0  0  0  0  0  0  0  0  0  0  0
   11.2652   -5.1890   21.9626 O   0  0  0  0  0  0  0  0  0  0  0  0
   10.7436   -5.7119   18.7302 P   0  0  0  0  0  0  0  0  0  0  0  0
    9.7499   -0.0590   24.6301 C   0  0  0  0  0  0  0  0  0  0  0  0
   10.8290   -4.2171   20.9043 C   0  0  0  0  0  0  0  0  0  0  0  0
    8.5720   -6.7241   17.2947 C   0  0  0  0  0  0  0  0  0  0  0  0
    9.9098   -3.0149   25.1363 C   0  0  0  0  0  0  0  0  0  0  0  0
   11.0205   -4.2368   19.7431 C   0  0  0  0  0  0  0  0  0  0  0  0
    5.8719   -6.6183   17.6356 He  0  0  0  0  0  0  0  0  0  0  0  0
   10.3083   -6.5929   19.6474 He  0  0  0  0  0  0  0  0  0  0  0  0
    7.4756   -7.7555   16.5228 He  0  0  0  0  0  0  0  0  0  0  0  0
   11.0341   -3.9522   17.1873 He  0  0  0  0  0  0  0  0  0  0  0  0
  1  7  1  0
  1 11  4  0
  1 12  4  0
  1 13  1  0
  1 16  4  0
  1 17  1  0
  1 18  1  0
  2  3  4  0
  2  6  2  0
  2  7  4  0
  2  9  3  0
  2 16  2  0
  3  5  1  0
  3  6  3  0
  3 17  4  0
  3 22  3  0
  4 10  4  0
  4 18  4  0
  5 13  4  0
  5 14  3  0
  5 16  2  0
  6  7  4  0
  6  8  2  0
  6 10  3  0
  6 22  4  0
  7  9  4  0
  7 12  2  0
  7 14  4  0
  7 20  2  0
  7 21  4  0
  8 20  4  0
  9 15  3  0
 10 14  4  0
 10 21  4  0
 11 15  1  0
 11 19  4  0
 12 16  4  0
 12 21  4  0
 13 14  4  0
 13 15  3  0
 13 16  3  0
 13 20  1  0
 14 15  1  0
 15 17  3  0
 16 19  4  0
 17 18  4  0
 17 19  3  0
 17 21  3  0
 17 22  4  0
 18 21  2  0
 19 22  1  0
 21 22  1  0
M  END
$$$$

 Created by Python create_sdf_string function

 26 30  0  0  0  0  0  0  0  0999 V2000
   10.7051   -3.2693   22.8759 C   0  0  0  0  0  0  0  0  0  0  0  0
    9.3276   -5.4838   16.7913 C   0  0  0  0  0  0  0  0  0  0  0  0
   10.1546   -4.8180   17.5756 C   0  0  0  0  0  0  0  0  0  0  0  0
    9.2353   -0.7021   25.8114 C   0  0  0  0  0  0  0  0  0  0  0  0
    6.5103   -8.9332   15.3923 C   0  0  0  0  0  0  0  0  0  0  0  0
    6.3355   -7.3523   17.5576 C   0  0  0  0  0  0  0  0  0  0  0  0
   11.2411   -3.1720   18.6528 N   0  0  0  0  0  0  0  0  0  0  0  0
   10.2554   -2.3934   23.9288 C   0  0  0  0  0  0  0  0  0  0  0  0
    5.3920   -8.8991   16.1296 C   0  0  0  0  0  0  0  0  0  0  0  0
   10.1474   -1.0285   23.6550 C   0  0  0  0  0  0  0  0  0  0  0  0
    9.3599   -2.0482   26.0555 C   0  0  0  0  0  0  0  0  0  0  0  0
   10.7701   -3.0080   21.5729 C   0  0  0  0  0  0  0  0  0  0  0  0
   10.2120   -6.5486   19.1850 N   0  0  0  0  0  0  0  0  0  0  0  0
   11.0870   -4.5517   23.0305 N   0  0  0  0  0  0  0  0  0  0  0  0
    7.5573   -8.1181   15.6351 C   0  0  0  0  0  0  0  0  0  0  0  0
    5.2927   -8.0981   17.1895 C   0  0  0  0  0  0  0  0  0  0  0  0
    9.3412   -7.2401   18.4001 C   0  0  0  0  0  0  0  0  0  0  0  0
    7.5299   -7.3396   16.8469 C   0  0  0  0  0  0  0  0  0  0  0  0
   11.2540   -5.1088   21.7141 O   0  0  0  0  0  0  0  0  0  0  0  0
   10.4246   -5.2674   18.7956 N   0  0  0  0  0  0  0  0  0  0  0  0
    9.5960   -0.1782   24.6226 C   0  0  0  0  0  0  0  0  0  0  0  0
   10.7831   -3.5486   17.4018 N   0  0  0  0  0  0  0  0  0  0  0  0
   11.0357   -4.0512   20.8819 C   0  0  0  0  0  0  0  0  0  0  0  0
    8.7117   -6.6832   17.3019 C   0  0  0  0  0  0  0  0  0  0  0  0
    9.9048   -2.9040   25.1375 C   0  0  0  0  0  0  0  0  0  0  0  0
   10.9655   -4.1827   19.4745 C   0  0  0  0  0  0  0  0  0  0  0  0
  1  8  1  0
  1 12  4  0
  1 14  4  0
  2  3  4  0
  2 24  4  0
  3 20  4  0
  3 22  4  0
  4 11  4  0
  4 21  4  0
  5  9  4  0
  5 15  4  0
  6 16  4  0
  6 18  4  0
  7 22  4  0
  7 26  4  0
  8 10  4  0
  8 25  4  0
  9 16  4  0
 10 21  4  0
 11 25  4  0
 12 23  4  0
 13 17  4  0
 13 20  4  0
 14 19  4  0
 15 18  4  0
 17 24  4  0
 18 24  1  0
 19 23  4  0
 20 26  4  0
 23 26  1  0
M  END
$$$$

 Created by Python create_sdf_string function

 26 51  0  0  0  0  0  0  0  0999 V2000
   10.5183   -3.5181   22.8130 C   0  0  0  0  0  0  0  0  0  0  0  0
    9.0635   -5.9395   16.6916 C   0  0  0  0  0  0  0  0  0  0  0  0
   10.1249   -4.6748   17.3867 C   0  0  0  0  0  0  0  0  0  0  0  0
    9.0501   -0.5894   26.0530 C   0  0  0  0  0  0  0  0  0  0  0  0
    6.1090  -10.1695   15.0975 C   0  0  0  0  0  0  0  0  0  0  0  0
    6.3219   -7.6915   17.6369 C   0  0  0  0  0  0  0  0  0  0  0  0
   11.8216   -3.3468   17.6355 N   0  0  0  0  0  0  0  0  0  0  0  0
    5.7574   -9.5825   16.3485 C   0  0  0  0  0  0  0  0  0  0  0  0
   10.2888   -0.9330   23.5631 C   0  0  0  0  0  0  0  0  0  0  0  0
   10.8519   -2.9573   21.4500 C   0  0  0  0  0  0  0  0  0  0  0  0
   10.2486   -5.8786   19.5308 N   0  0  0  0  0  0  0  0  0  0  0  0
   11.3292   -5.0141   23.2050 N   0  0  0  0  0  0  0  0  0  0  0  0
    8.3478   -7.7207   15.5980 C   0  0  0  0  0  0  0  0  0  0  0  0
    4.8464   -8.6254   17.7781 C   0  0  0  0  0  0  0  0  0  0  0  0
    9.7512   -7.7501   18.4222 Cl  0  0  0  0  0  0  0  0  0  0  0  0
    7.0582   -7.5931   16.7677 C   0  0  0  0  0  0  0  0  0  0  0  0
   11.1017   -5.2616   21.9259 O   0  0  0  0  0  0  0  0  0  0  0  0
   11.3737   -5.1301   19.1111 F   0  0  0  0  0  0  0  0  0  0  0  0
    9.6292   -0.1921   24.8533 C   0  0  0  0  0  0  0  0  0  0  0  0
   10.9849   -4.2178   16.7379 N   0  0  0  0  0  0  0  0  0  0  0  0
   11.1699   -4.1431   20.7387 C   0  0  0  0  0  0  0  0  0  0  0  0
    8.9811   -6.7314   16.9583 C   0  0  0  0  0  0  0  0  0  0  0  0
   10.1140   -2.8219   25.1174 C   0  0  0  0  0  0  0  0  0  0  0  0
   10.7523   -4.3270   19.2943 C   0  0  0  0  0  0  0  0  0  0  0  0
   10.2571   -2.4208   24.1861 He  0  0  0  0  0  0  0  0  0  0  0  0
    9.4175   -1.6129   26.1122 He  0  0  0  0  0  0  0  0  0  0  0  0
  1  7  4  0
  1 10  4  0
  1 12  4  0
  1 19  4  0
  2  3  4  0
  2  6  2  0
  2  7  2  0
  2 22  4  0
  3 11  1  0
  3 18  4  0
  3 24  1  0
  4 15  4  0
  4 16  2  0
  4 20  1  0
  5  7  3  0
  5  8  4  0
  5  9  1  0
  5 10  1  0
  5 12  1  0
  5 16  2  0
  6 16  4  0
  6 22  4  0
  7  9  3  0
  7 12  2  0
  7 16  1  0
  7 17  1  0
  7 20  4  0
  8 12  1  0
  8 14  4  0
  8 15  3  0
  8 17  3  0
  8 18  3  0
  9 18  3  0
  9 19  4  0
 10 21  4  0
 11 13  3  0
 12 24  1  0
 13 16  1  0
 13 19  2  0
 13 20  3  0
 15 17  3  0
 15 18  3  0
 15 22  2  0
 16 22  1  0
 16 24  3  0
 17 19  4  0
 17 20  1  0
 17 21  4  0
 18 23  2  0
 20 21  3  0
 21 24  1  0
M  END
$$$$

 Created by Python create_sdf_string function

 26 30  0  0  0  0  0  0  0  0999 V2000
   10.6821   -3.3019   22.9280 C   0  0  0  0  0  0  0  0  0  0  0  0
    9.2204   -5.6372   16.7494 C   0  0  0  0  0  0  0  0  0  0  0  0
   10.1953   -4.9187   17.3912 C   0  0  0  0  0  0  0  0  0  0  0  0
    9.2279   -0.6525   25.8133 C   0  0  0  0  0  0  0  0  0  0  0  0
    6.5405   -9.3146   15.5265 C   0  0  0  0  0  0  0  0  0  0  0  0
    6.4813   -7.6831   17.6842 C   0  0  0  0  0  0  0  0  0  0  0  0
   11.3376   -3.2879   18.2014 N   0  0  0  0  0  0  0  0  0  0  0  0
   10.2760   -2.3956   23.9363 C   0  0  0  0  0  0  0  0  0  0  0  0
    5.5047   -9.3860   16.3346 C   0  0  0  0  0  0  0  0  0  0  0  0
   10.1372   -1.0383   23.6206 C   0  0  0  0  0  0  0  0  0  0  0  0
    9.3862   -1.9801   26.1170 N   0  0  0  0  0  0  0  0  0  0  0  0
   10.7778   -3.0404   21.5437 C   0  0  0  0  0  0  0  0  0  0  0  0
   10.2321   -6.3627   19.1518 N   0  0  0  0  0  0  0  0  0  0  0  0
   11.0286   -4.6386   23.0460 N   0  0  0  0  0  0  0  0  0  0  0  0
    7.5954   -8.4449   15.7712 C   0  0  0  0  0  0  0  0  0  0  0  0
    5.4075   -8.5909   17.4135 C   0  0  0  0  0  0  0  0  0  0  0  0
    9.5092   -7.3309   18.4083 C   0  0  0  0  0  0  0  0  0  0  0  0
    7.6192   -7.6323   16.8785 C   0  0  0  0  0  0  0  0  0  0  0  0
   11.2100   -5.1557   21.7239 O   0  0  0  0  0  0  0  0  0  0  0  0
   10.5348   -5.1973   18.7628 C   0  0  0  0  0  0  0  0  0  0  0  0
    9.5787   -0.1700   24.5813 C   0  0  0  0  0  0  0  0  0  0  0  0
   10.8834   -3.9206   17.0198 N   0  0  0  0  0  0  0  0  0  0  0  0
   11.0802   -4.0801   20.8589 C   0  0  0  0  0  0  0  0  0  0  0  0
    8.7572   -6.8513   17.3071 C   0  0  0  0  0  0  0  0  0  0  0  0
    9.9310   -2.8481   25.1843 C   0  0  0  0  0  0  0  0  0  0  0  0
   11.0541   -4.1307   19.3131 C   0  0  0  0  0  0  0  0  0  0  0  0
  1  8  1  0
  1 12  4  0
  1 14  4  0
  2  3  4  0
  2 24  4  0
  3 20  4  0
  3 22  4  0
  4 11  4  0
  4 21  4  0
  5  9  4  0
  5 15  4  0
  6 16  4  0
  6 18  4  0
  7 22  4  0
  7 26  4  0
  8 10  4  0
  8 25  4  0
  9 16  4  0
 10 21  4  0
 11 25  4  0
 12 23  4  0
 13 17  4  0
 13 20  4  0
 14 19  4  0
 15 18  4  0
 17 24  4  0
 18 24  1  0
 19 23  4  0
 20 26  4  0
 23 26  1  0
M  END
$$$$

 Created by Python create_sdf_string function

 26 56  0  0  0  0  0  0  0  0999 V2000
   10.4774   -3.1041   22.9703 C   0  0  0  0  0  0  0  0  0  0  0  0
    9.1299   -5.6103   16.2509 C   0  0  0  0  0  0  0  0  0  0  0  0
   10.2008   -5.0936   17.2977 C   0  0  0  0  0  0  0  0  0  0  0  0
    8.9608   -0.7376   25.8387 C   0  0  0  0  0  0  0  0  0  0  0  0
    6.2458   -9.0879   14.9245 C   0  0  0  0  0  0  0  0  0  0  0  0
    6.5909   -7.0323   17.8362 C   0  0  0  0  0  0  0  0  0  0  0  0
   11.4784   -3.5198   18.1603 N   0  0  0  0  0  0  0  0  0  0  0  0
   10.3788   -2.0226   24.0287 C   0  0  0  0  0  0  0  0  0  0  0  0
    6.2279   -9.5917   15.9802 C   0  0  0  0  0  0  0  0  0  0  0  0
   10.3945   -1.3333   23.6685 C   0  0  0  0  0  0  0  0  0  0  0  0
    9.6299   -2.0143   25.9569 N   0  0  0  0  0  0  0  0  0  0  0  0
   10.7439   -3.0675   21.4538 C   0  0  0  0  0  0  0  0  0  0  0  0
    9.6934   -6.3860   19.5918 N   0  0  0  0  0  0  0  0  0  0  0  0
    7.6420   -8.2489   15.8556 C   0  0  0  0  0  0  0  0  0  0  0  0
    5.5641   -8.1776   17.5184 C   0  0  0  0  0  0  0  0  0  0  0  0
   10.0605   -7.4780   18.0196 C   0  0  0  0  0  0  0  0  0  0  0  0
    6.8242   -7.0935   17.4043 C   0  0  0  0  0  0  0  0  0  0  0  0
   10.3753   -5.2049   18.7130 C   0  0  0  0  0  0  0  0  0  0  0  0
   10.4528   -3.7151   16.5062 N   0  0  0  0  0  0  0  0  0  0  0  0
   11.3159   -3.9582   20.8410 C   0  0  0  0  0  0  0  0  0  0  0  0
    8.5536   -7.1405   17.2039 N   0  0  0  0  0  0  0  0  0  0  0  0
   10.0055   -2.7667   25.0594 C   0  0  0  0  0  0  0  0  0  0  0  0
   11.0012   -3.8109   19.1176 C   0  0  0  0  0  0  0  0  0  0  0  0
   11.2197   -4.4279   22.8799 He  0  0  0  0  0  0  0  0  0  0  0  0
   11.2611   -5.3002   21.8889 He  0  0  0  0  0  0  0  0  0  0  0  0
    9.8019    0.0530   24.5029 He  0  0  0  0  0  0  0  0  0  0  0  0
  1 10  1  0
  1 12  4  0
  1 16  3  0
  2  3  4  0
  2  6  2  0
  2  7  2  0
  2  8  2  0
  2 10  3  0
  2 21  4  0
  3  7  1  0
  3 17  4  0
  3 18  4  0
  3 23  2  0
  4  5  4  0
  4 11  4  0
  4 19  4  0
  5  9  4  0
  5 10  2  0
  5 14  4  0
  5 17  1  0
  5 20  3  0
  6  8  3  0
  6 12  1  0
  6 15  3  0
  6 17  4  0
  6 23  3  0
  7 10  2  0
  7 17  4  0
  7 18  3  0
  7 19  3  0
  8 10  4  0
  9 15  4  0
 10 14  3  0
 10 19  4  0
 10 23  3  0
 11 14  2  0
 11 19  3  0
 11 22  4  0
 12 19  3  0
 12 20  4  0
 13 15  1  0
 13 16  4  0
 13 18  4  0
 13 21  3  0
 14 16  1  0
 14 17  4  0
 14 22  3  0
 15 16  1  0
 15 22  1  0
 16 20  2  0
 16 21  4  0
 17 21  1  0
 18 19  2  0
 18 23  4  0
 19 20  2  0
 20 23  1  0
M  END
$$$$

 Created by Python create_sdf_string function

 26 30  0  0  0  0  0  0  0  0999 V2000
   10.7191   -3.2056   22.8136 C   0  0  0  0  0  0  0  0  0  0  0  0
    9.1663   -5.6459   16.6547 C   0  0  0  0  0  0  0  0  0  0  0  0
   10.0508   -4.8777   17.3841 C   0  0  0  0  0  0  0  0  0  0  0  0
    9.2122   -0.6794   25.7857 C   0  0  0  0  0  0  0  0  0  0  0  0
    6.5522   -9.1328   15.4798 C   0  0  0  0  0  0  0  0  0  0  0  0
    6.4819   -7.5491   17.7250 C   0  0  0  0  0  0  0  0  0  0  0  0
   11.0724   -3.1610   18.3994 N   0  0  0  0  0  0  0  0  0  0  0  0
   10.3062   -2.3269   23.8690 C   0  0  0  0  0  0  0  0  0  0  0  0
    5.4499   -9.1827   16.3333 C   0  0  0  0  0  0  0  0  0  0  0  0
   10.1746   -0.9694   23.6004 C   0  0  0  0  0  0  0  0  0  0  0  0
    9.3814   -1.9941   26.0539 N   0  0  0  0  0  0  0  0  0  0  0  0
   10.7792   -2.9245   21.4572 C   0  0  0  0  0  0  0  0  0  0  0  0
   10.1549   -6.5302   19.1352 N   0  0  0  0  0  0  0  0  0  0  0  0
   11.0871   -4.5393   22.9531 N   0  0  0  0  0  0  0  0  0  0  0  0
    7.6105   -8.2753   15.7606 C   0  0  0  0  0  0  0  0  0  0  0  0
    5.4018   -8.3496   17.4067 C   0  0  0  0  0  0  0  0  0  0  0  0
    9.3793   -7.3110   18.4219 C   0  0  0  0  0  0  0  0  0  0  0  0
    7.6259   -7.5059   16.8926 C   0  0  0  0  0  0  0  0  0  0  0  0
   11.3165   -5.0999   21.6034 N   0  0  0  0  0  0  0  0  0  0  0  0
   10.3815   -5.2602   18.6686 C   0  0  0  0  0  0  0  0  0  0  0  0
    9.6044   -0.1375   24.5980 N   0  0  0  0  0  0  0  0  0  0  0  0
   10.6287   -3.6593   17.1387 N   0  0  0  0  0  0  0  0  0  0  0  0
   11.0280   -3.9800   20.7084 C   0  0  0  0  0  0  0  0  0  0  0  0
    8.7256   -6.8149   17.2685 C   0  0  0  0  0  0  0  0  0  0  0  0
    9.9451   -2.8254   25.1215 C   0  0  0  0  0  0  0  0  0  0  0  0
   10.8857   -4.1480   19.2945 C   0  0  0  0  0  0  0  0  0  0  0  0
  1  8  1  0
  1 12  4  0
  1 14  4  0
  2  3  4  0
  2 24  4  0
  3 20  4  0
  3 22  4  0
  4 11  4  0
  4 21  4  0
  5  9  4  0
  5 15  4  0
  6 16  4  0
  6 18  4  0
  7 22  4  0
  7 26  4  0
  8 10  4  0
  8 25  4  0
  9 16  4  0
 10 21  4  0
 11 25  4  0
 12 23  4  0
 13 17  4  0
 13 20  4  0
 14 19  4  0
 15 18  4  0
 17 24  4  0
 18 24  1  0
 19 23  4  0
 20 26  4  0
 23 26  1  0
M  END
$$$$

 Created by Python create_sdf_string function

 26 62  0  0  0  0  0  0  0  0999 V2000
   10.7257   -2.9457   22.8798 C   0  0  0  0  0  0  0  0  0  0  0  0
    9.3283   -5.7558   15.7227 C   0  0  0  0  0  0  0  0  0  0  0  0
   10.1589   -4.6638   17.0990 C   0  0  0  0  0  0  0  0  0  0  0  0
    9.1609   -0.2870   26.0594 C   0  0  0  0  0  0  0  0  0  0  0  0
    6.8467   -8.8032   16.1495 Cl  0  0  0  0  0  0  0  0  0  0  0  0
    6.4846   -7.9880   18.4665 N   0  0  0  0  0  0  0  0  0  0  0  0
   10.7978   -2.5443   18.7998 N   0  0  0  0  0  0  0  0  0  0  0  0
   10.5571   -2.1813   24.0411 C   0  0  0  0  0  0  0  0  0  0  0  0
   10.2375   -1.1271   23.6364 C   0  0  0  0  0  0  0  0  0  0  0  0
    9.4130   -2.4153   26.0408 N   0  0  0  0  0  0  0  0  0  0  0  0
   11.1092   -2.8968   21.2516 C   0  0  0  0  0  0  0  0  0  0  0  0
   10.3932   -6.6675   19.4724 N   0  0  0  0  0  0  0  0  0  0  0  0
   10.9379   -4.3631   22.8263 N   0  0  0  0  0  0  0  0  0  0  0  0
    5.1241   -8.9707   17.1159 C   0  0  0  0  0  0  0  0  0  0  0  0
   10.0663   -7.4924   17.9803 C   0  0  0  0  0  0  0  0  0  0  0  0
    7.7273   -7.4370   16.5355 C   0  0  0  0  0  0  0  0  0  0  0  0
   11.6642   -5.2194   21.7747 N   0  0  0  0  0  0  0  0  0  0  0  0
   10.5797   -5.5297   18.6146 C   0  0  0  0  0  0  0  0  0  0  0  0
    9.2845   -0.3230   24.9870 N   0  0  0  0  0  0  0  0  0  0  0  0
   10.4931   -3.9663   16.8919 C   0  0  0  0  0  0  0  0  0  0  0  0
   10.8485   -3.7128   20.6624 C   0  0  0  0  0  0  0  0  0  0  0  0
    8.9301   -6.9075   17.4278 C   0  0  0  0  0  0  0  0  0  0  0  0
    9.9245   -2.7203   25.1584 C   0  0  0  0  0  0  0  0  0  0  0  0
   10.6404   -3.8811   19.7281 C   0  0  0  0  0  0  0  0  0  0  0  0
    5.1181   -8.7488   15.5909 He  0  0  0  0  0  0  0  0  0  0  0  0
    7.6411   -8.5532   15.3408 He  0  0  0  0  0  0  0  0  0  0  0  0
  1  8  1  0
  1 11  4  0
  1 13  4  0
  1 18  4  0
  1 19  1  0
  2  3  4  0
  2 21  2  0
  2 22  1  0
  2 23  2  0
  3  4  2  0
  3  6  1  0
  3  9  2  0
  3 18  4  0
  3 19  1  0
  3 23  2  0
  4  7  3  0
  4 10  4  0
  4 12  1  0
  4 14  3  0
  4 15  3  0
  4 17  3  0
  4 19  4  0
  5 19  4  0
  5 22  3  0
  6 15  3  0
  6 16  4  0
  6 18  1  0
  7 14  4  0
  7 17  4  0
  7 19  3  0
  7 20  4  0
  8  9  4  0
  8 14  1  0
  8 23  2  0
  9 12  4  0
  9 16  1  0
  9 19  4  0
 10 16  4  0
 11 18  4  0
 11 19  2  0
 11 21  4  0
 11 23  2  0
 12 14  4  0
 12 15  4  0
 12 16  1  0
 12 17  2  0
 12 19  2  0
 12 22  4  0
 13 17  4  0
 13 18  2  0
 16 20  1  0
 16 22  2  0
 16 23  1  0
 17 21  4  0
 17 24  1  0
 18 22  4  0
 18 24  2  0
 19 22  2  0
 20 21  4  0
 20 22  4  0
 20 23  3  0
 21 24  1  0
M  END
$$$$

 Created by Python create_sdf_string function

 26 30  0  0  0  0  0  0  0  0999 V2000
   10.7349   -3.1187   22.8289 C   0  0  0  0  0  0  0  0  0  0  0  0
    9.2035   -5.7350   16.6605 C   0  0  0  0  0  0  0  0  0  0  0  0
    9.9935   -4.8838   17.4517 C   0  0  0  0  0  0  0  0  0  0  0  0
    9.0990   -0.7922   25.8875 C   0  0  0  0  0  0  0  0  0  0  0  0
    6.4450   -8.9136   15.3335 C   0  0  0  0  0  0  0  0  0  0  0  0
    6.6033   -7.8176   17.8067 C   0  0  0  0  0  0  0  0  0  0  0  0
   10.8564   -3.0350   18.5281 N   0  0  0  0  0  0  0  0  0  0  0  0
   10.2587   -2.3134   23.9557 C   0  0  0  0  0  0  0  0  0  0  0  0
    5.4277   -8.9765   16.1043 C   0  0  0  0  0  0  0  0  0  0  0  0
   10.0644   -0.9799   23.7447 C   0  0  0  0  0  0  0  0  0  0  0  0
    9.3508   -2.1118   26.1478 N   0  0  0  0  0  0  0  0  0  0  0  0
   10.8171   -2.8425   21.5182 C   0  0  0  0  0  0  0  0  0  0  0  0
   10.3190   -6.5860   19.1322 N   0  0  0  0  0  0  0  0  0  0  0  0
   11.0812   -4.3747   22.9640 N   0  0  0  0  0  0  0  0  0  0  0  0
    7.6141   -8.3038   15.7011 C   0  0  0  0  0  0  0  0  0  0  0  0
    5.4465   -8.4357   17.3338 C   0  0  0  0  0  0  0  0  0  0  0  0
    9.5746   -7.4194   18.3825 C   0  0  0  0  0  0  0  0  0  0  0  0
    7.7055   -7.7103   16.9166 C   0  0  0  0  0  0  0  0  0  0  0  0
   11.1859   -4.9819   21.6726 N   0  0  0  0  0  0  0  0  0  0  0  0
   10.4109   -5.2705   18.7057 C   0  0  0  0  0  0  0  0  0  0  0  0
    9.4896   -0.1972   24.7492 N   0  0  0  0  0  0  0  0  0  0  0  0
   10.4244   -3.5598   17.2858 N   0  0  0  0  0  0  0  0  0  0  0  0
   10.9838   -3.9673   20.7840 C   0  0  0  0  0  0  0  0  0  0  0  0
    8.8496   -6.9791   17.2897 C   0  0  0  0  0  0  0  0  0  0  0  0
    9.9498   -2.8755   25.1634 C   0  0  0  0  0  0  0  0  0  0  0  0
   10.8214   -4.1426   19.3789 C   0  0  0  0  0  0  0  0  0  0  0  0
  1  8  1  0
  1 12  4  0
  1 14  4  0
  2  3  4  0
  2 24  4  0
  3 20  4  0
  3 22  4  0
  4 11  4  0
  4 21  4  0
  5  9  4  0
  5 15  4  0
  6 16  4  0
  6 18  4  0
  7 22  4  0
  7 26  4  0
  8 10  4  0
  8 25  4  0
  9 16  4  0
 10 21  4  0
 11 25  4  0
 12 23  4  0
 13 17  4  0
 13 20  4  0
 14 19  4  0
 15 18  4  0
 17 24  4  0
 18 24  1  0
 19 23  4  0
 20 26  4  0
 23 26  1  0
M  END
$$$$

 Created by Python create_sdf_string function

 26 40  0  0  0  0  0  0  0  0999 V2000
   10.7479   -2.9576   22.7262 C   0  0  0  0  0  0  0  0  0  0  0  0
   10.0118   -5.0941   17.5269 C   0  0  0  0  0  0  0  0  0  0  0  0
    9.1143   -0.4655   25.9877 C   0  0  0  0  0  0  0  0  0  0  0  0
    6.3254   -8.4905   14.9326 C   0  0  0  0  0  0  0  0  0  0  0  0
    6.8439   -8.3578   17.6859 C   0  0  0  0  0  0  0  0  0  0  0  0
   11.5175   -3.0263   18.6199 N   0  0  0  0  0  0  0  0  0  0  0  0
   10.3198   -2.4289   24.0431 C   0  0  0  0  0  0  0  0  0  0  0  0
    9.7951   -0.9481   23.6799 C   0  0  0  0  0  0  0  0  0  0  0  0
    9.3901   -1.8994   26.3464 N   0  0  0  0  0  0  0  0  0  0  0  0
   10.8164   -2.9407   21.4058 C   0  0  0  0  0  0  0  0  0  0  0  0
   10.8142   -7.0646   18.5136 N   0  0  0  0  0  0  0  0  0  0  0  0
   11.1480   -4.4597   23.0501 N   0  0  0  0  0  0  0  0  0  0  0  0
    7.7851   -8.6649   15.2589 C   0  0  0  0  0  0  0  0  0  0  0  0
    4.9853   -8.6975   18.2911 Cl  0  0  0  0  0  0  0  0  0  0  0  0
    9.7512   -6.9004   18.5968 C   0  0  0  0  0  0  0  0  0  0  0  0
   11.3732   -4.8818   21.8306 N   0  0  0  0  0  0  0  0  0  0  0  0
   10.2127   -5.3244   17.9053 C   0  0  0  0  0  0  0  0  0  0  0  0
    9.5066    0.1290   24.5963 C   0  0  0  0  0  0  0  0  0  0  0  0
   10.5265   -4.1066   17.6898 N   0  0  0  0  0  0  0  0  0  0  0  0
    8.8538   -7.0031   17.2067 C   0  0  0  0  0  0  0  0  0  0  0  0
   10.1285   -2.7943   25.0396 C   0  0  0  0  0  0  0  0  0  0  0  0
   10.6072   -4.9865   18.7421 C   0  0  0  0  0  0  0  0  0  0  0  0
    9.1205   -5.7680   16.3192 He  0  0  0  0  0  0  0  0  0  0  0  0
    5.7240   -8.4163   15.7203 He  0  0  0  0  0  0  0  0  0  0  0  0
    7.4299   -7.8681   17.1879 He  0  0  0  0  0  0  0  0  0  0  0  0
   10.8013   -3.9086   20.8458 He  0  0  0  0  0  0  0  0  0  0  0  0
  1  3  4  0
  1  7  1  0
  1 10  4  0
  1 12  4  0
  1 13  1  0
  1 15  1  0
  1 17  3  0
  2  5  3  0
  2 13  1  0
  2 17  2  0
  2 19  4  0
  2 21  1  0
  3  9  4  0
  3 18  4  0
  3 20  3  0
  4 13  4  0
  4 17  2  0
  5 14  4  0
  5 22  1  0
  6  8  4  0
  6 22  4  0
  7 17  1  0
  7 18  3  0
  7 21  4  0
  8 18  4  0
  9 19  3  0
  9 21  4  0
 10 17  1  0
 11 15  4  0
 11 17  3  0
 12 16  4  0
 12 18  3  0
 14 17  2  0
 14 21  3  0
 15 19  3  0
 15 20  4  0
 17 19  2  0
 17 21  1  0
 17 22  4  0
 21 22  3  0
M  END
$$$$

 Created by Python create_sdf_string function

 26 30  0  0  0  0  0  0  0  0999 V2000
   10.6808   -3.1276   22.8577 C   0  0  0  0  0  0  0  0  0  0  0  0
    9.1539   -5.7317   16.7751 C   0  0  0  0  0  0  0  0  0  0  0  0
   10.0575   -4.9199   17.4950 C   0  0  0  0  0  0  0  0  0  0  0  0
    9.1846   -0.6228   25.9618 C   0  0  0  0  0  0  0  0  0  0  0  0
    6.3410   -8.6997   15.2811 C   0  0  0  0  0  0  0  0  0  0  0  0
    6.6981   -8.0569   17.8259 C   0  0  0  0  0  0  0  0  0  0  0  0
   10.9669   -3.2328   18.5635 N   0  0  0  0  0  0  0  0  0  0  0  0
   10.2156   -2.2448   23.9003 C   0  0  0  0  0  0  0  0  0  0  0  0
    5.3307   -8.8398   16.1272 C   0  0  0  0  0  0  0  0  0  0  0  0
    9.9142   -0.9088   23.6477 C   0  0  0  0  0  0  0  0  0  0  0  0
    9.4930   -1.9359   26.1975 N   0  0  0  0  0  0  0  0  0  0  0  0
   10.7736   -2.9099   21.4704 C   0  0  0  0  0  0  0  0  0  0  0  0
   10.4664   -6.6468   19.1233 N   0  0  0  0  0  0  0  0  0  0  0  0
   11.0707   -4.3914   23.0162 N   0  0  0  0  0  0  0  0  0  0  0  0
    7.5551   -8.1483   15.6362 C   0  0  0  0  0  0  0  0  0  0  0  0
    5.4942   -8.5340   17.4470 C   0  0  0  0  0  0  0  0  0  0  0  0
    9.6938   -7.5341   18.3634 C   0  0  0  0  0  0  0  0  0  0  0  0
    7.7319   -7.7210   16.9199 C   0  0  0  0  0  0  0  0  0  0  0  0
   11.2372   -5.0207   21.7517 N   0  0  0  0  0  0  0  0  0  0  0  0
   10.4719   -5.3589   18.7017 C   0  0  0  0  0  0  0  0  0  0  0  0
    9.3927   -0.0725   24.6771 C   0  0  0  0  0  0  0  0  0  0  0  0
   10.4417   -3.7133   17.2882 N   0  0  0  0  0  0  0  0  0  0  0  0
   10.9957   -4.0322   20.8075 C   0  0  0  0  0  0  0  0  0  0  0  0
    8.8507   -7.0242   17.3145 C   0  0  0  0  0  0  0  0  0  0  0  0
   10.0143   -2.7184   25.1916 C   0  0  0  0  0  0  0  0  0  0  0  0
   10.8902   -4.2597   19.4627 C   0  0  0  0  0  0  0  0  0  0  0  0
  1  8  1  0
  1 12  4  0
  1 14  4  0
  2  3  4  0
  2 24  4  0
  3 20  4  0
  3 22  4  0
  4 11  4  0
  4 21  4  0
  5  9  4  0
  5 15  4  0
  6 16  4  0
  6 18  4  0
  7 22  4  0
  7 26  4  0
  8 10  4  0
  8 25  4  0
  9 16  4  0
 10 21  4  0
 11 25  4  0
 12 23  4  0
 13 17  4  0
 13 20  4  0
 14 19  4  0
 15 18  4  0
 17 24  4  0
 18 24  1  0
 19 23  4  0
 20 26  4  0
 23 26  1  0
M  END
$$$$

 Created by Python create_sdf_string function

 26 32  0  0  0  0  0  0  0  0999 V2000
   10.7134   -2.9682   22.9938 C   0  0  0  0  0  0  0  0  0  0  0  0
    9.3379   -5.2921   16.6545 C   0  0  0  0  0  0  0  0  0  0  0  0
    9.8869   -4.9018   17.3182 C   0  0  0  0  0  0  0  0  0  0  0  0
    9.3336   -0.4921   25.7347 C   0  0  0  0  0  0  0  0  0  0  0  0
    6.0502   -9.3647   15.8603 C   0  0  0  0  0  0  0  0  0  0  0  0
    6.6420   -7.8616   17.7820 P   0  0  0  0  0  0  0  0  0  0  0  0
   11.2283   -3.0095   19.2758 N   0  0  0  0  0  0  0  0  0  0  0  0
   10.2168   -1.7972   24.1176 C   0  0  0  0  0  0  0  0  0  0  0  0
    5.5322   -8.9204   16.4317 C   0  0  0  0  0  0  0  0  0  0  0  0
    9.8246   -1.1442   23.4686 C   0  0  0  0  0  0  0  0  0  0  0  0
    9.6391   -1.9441   26.1504 N   0  0  0  0  0  0  0  0  0  0  0  0
   10.7118   -6.9076   18.8407 F   0  0  0  0  0  0  0  0  0  0  0  0
   11.0420   -4.5395   23.2657 N   0  0  0  0  0  0  0  0  0  0  0  0
    5.6182   -8.4139   17.7464 C   0  0  0  0  0  0  0  0  0  0  0  0
   11.0137   -4.6505   21.6838 N   0  0  0  0  0  0  0  0  0  0  0  0
    9.4455    0.0235   24.5147 C   0  0  0  0  0  0  0  0  0  0  0  0
   10.9503   -3.8932   20.9604 C   0  0  0  0  0  0  0  0  0  0  0  0
    8.8245   -6.8683   17.6473 C   0  0  0  0  0  0  0  0  0  0  0  0
   10.1842   -2.9036   24.9765 C   0  0  0  0  0  0  0  0  0  0  0  0
   10.9792   -2.9073   21.4938 He  0  0  0  0  0  0  0  0  0  0  0  0
    8.0596   -8.0936   15.5294 He  0  0  0  0  0  0  0  0  0  0  0  0
    9.9110   -7.3396   18.3939 He  0  0  0  0  0  0  0  0  0  0  0  0
    7.5159   -7.3521   16.9577 He  0  0  0  0  0  0  0  0  0  0  0  0
   10.7130   -5.1882   19.1850 He  0  0  0  0  0  0  0  0  0  0  0  0
   10.2802   -3.5878   16.8407 He  0  0  0  0  0  0  0  0  0  0  0  0
   11.0001   -4.4506   18.5011 He  0  0  0  0  0  0  0  0  0  0  0  0
  1  2  3  0
  1  3  4  0
  1  8  1  0
  1 12  3  0
  1 13  2  0
  2  3  4  0
  2 10  1  0
  2 12  3  0
  2 18  4  0
  3 13  2  0
  4  5  1  0
  4  6  2  0
  4  9  3  0
  4 11  4  0
  4 15  4  0
  4 16  4  0
  5  7  2  0
  5  9  2  0
  6  8  3  0
  6 17  1  0
  8 10  4  0
  8 14  4  0
  8 19  4  0
  9 14  4  0
  9 17  1  0
 10 12  2  0
 10 16  4  0
 11 18  4  0
 11 19  4  0
 12 16  2  0
 13 15  4  0
 15 17  4  0
M  END
$$$$

 Created by Python create_sdf_string function

 26 30  0  0  0  0  0  0  0  0999 V2000
   10.6914   -3.0795   22.8759 C   0  0  0  0  0  0  0  0  0  0  0  0
    9.1304   -5.5966   16.8751 C   0  0  0  0  0  0  0  0  0  0  0  0
   10.0352   -4.8146   17.5383 C   0  0  0  0  0  0  0  0  0  0  0  0
    9.2325   -0.5689   25.8627 C   0  0  0  0  0  0  0  0  0  0  0  0
    6.4676   -9.0022   15.5883 C   0  0  0  0  0  0  0  0  0  0  0  0
    6.6442   -7.6143   17.9256 C   0  0  0  0  0  0  0  0  0  0  0  0
   10.9235   -3.0431   18.5971 N   0  0  0  0  0  0  0  0  0  0  0  0
   10.2403   -2.1997   23.9346 C   0  0  0  0  0  0  0  0  0  0  0  0
    5.4504   -9.0458   16.4820 C   0  0  0  0  0  0  0  0  0  0  0  0
    9.9552   -0.9029   23.5915 C   0  0  0  0  0  0  0  0  0  0  0  0
    9.5629   -1.8392   26.1924 N   0  0  0  0  0  0  0  0  0  0  0  0
   10.8488   -2.8126   21.5693 N   0  0  0  0  0  0  0  0  0  0  0  0
   10.5575   -6.5373   19.0238 C   0  0  0  0  0  0  0  0  0  0  0  0
   10.9435   -4.3431   23.0253 N   0  0  0  0  0  0  0  0  0  0  0  0
    7.6151   -8.2989   15.8422 C   0  0  0  0  0  0  0  0  0  0  0  0
    5.5579   -8.3553   17.6483 C   0  0  0  0  0  0  0  0  0  0  0  0
    9.7242   -7.4200   18.3452 C   0  0  0  0  0  0  0  0  0  0  0  0
    7.7598   -7.5616   17.0330 C   0  0  0  0  0  0  0  0  0  0  0  0
   11.1338   -4.9531   21.7279 N   0  0  0  0  0  0  0  0  0  0  0  0
   10.5631   -5.2940   18.7595 C   0  0  0  0  0  0  0  0  0  0  0  0
    9.4019   -0.0698   24.5836 C   0  0  0  0  0  0  0  0  0  0  0  0
   10.4289   -3.5095   17.3961 N   0  0  0  0  0  0  0  0  0  0  0  0
   11.0016   -3.9224   20.8818 C   0  0  0  0  0  0  0  0  0  0  0  0
    8.8492   -6.8937   17.3645 C   0  0  0  0  0  0  0  0  0  0  0  0
   10.0726   -2.6760   25.2102 C   0  0  0  0  0  0  0  0  0  0  0  0
   10.9051   -4.1157   19.4401 C   0  0  0  0  0  0  0  0  0  0  0  0
  1  8  1  0
  1 12  4  0
  1 14  4  0
  2  3  4  0
  2 24  4  0
  3 20  4  0
  3 22  4  0
  4 11  4  0
  4 21  4  0
  5  9  4  0
  5 15  4  0
  6 16  4  0
  6 18  4  0
  7 22  4  0
  7 26  4  0
  8 10  4  0
  8 25  4  0
  9 16  4  0
 10 21  4  0
 11 25  4  0
 12 23  4  0
 13 17  4  0
 13 20  4  0
 14 19  4  0
 15 18  4  0
 17 24  4  0
 18 24  1  0
 19 23  4  0
 20 26  4  0
 23 26  1  0
M  END
$$$$

 Created by Python create_sdf_string function

 26 50  0  0  0  0  0  0  0  0999 V2000
   10.8352   -2.5871   22.8899 C   0  0  0  0  0  0  0  0  0  0  0  0
    8.8352   -5.4854   17.1346 C   0  0  0  0  0  0  0  0  0  0  0  0
   10.1587   -4.9410   17.5742 C   0  0  0  0  0  0  0  0  0  0  0  0
    9.2556   -0.5086   25.8930 C   0  0  0  0  0  0  0  0  0  0  0  0
    5.9923   -8.4671   15.8803 C   0  0  0  0  0  0  0  0  0  0  0  0
    6.6663   -7.6277   18.3909 C   0  0  0  0  0  0  0  0  0  0  0  0
   10.3912   -2.9454   18.2709 N   0  0  0  0  0  0  0  0  0  0  0  0
   10.3425   -2.2279   23.9986 C   0  0  0  0  0  0  0  0  0  0  0  0
    5.5259   -8.9834   16.9428 C   0  0  0  0  0  0  0  0  0  0  0  0
   10.0264   -0.9856   23.6838 C   0  0  0  0  0  0  0  0  0  0  0  0
    9.5692   -1.8123   26.3730 N   0  0  0  0  0  0  0  0  0  0  0  0
   10.7263   -3.2411   21.6281 N   0  0  0  0  0  0  0  0  0  0  0  0
   10.6103   -6.1505   18.7733 C   0  0  0  0  0  0  0  0  0  0  0  0
   10.7297   -4.2689   23.1790 N   0  0  0  0  0  0  0  0  0  0  0  0
    5.1462   -8.7461   17.4291 C   0  0  0  0  0  0  0  0  0  0  0  0
    9.8119   -7.6816   18.0992 O   0  0  0  0  0  0  0  0  0  0  0  0
    8.1770   -7.2996   17.3036 C   0  0  0  0  0  0  0  0  0  0  0  0
   10.9925   -4.7256   21.9979 N   0  0  0  0  0  0  0  0  0  0  0  0
    9.2485   -0.1377   24.6276 C   0  0  0  0  0  0  0  0  0  0  0  0
   10.5815   -3.6570   17.2747 Se  0  0  0  0  0  0  0  0  0  0  0  0
   11.1686   -4.0248   21.0814 Cl  0  0  0  0  0  0  0  0  0  0  0  0
   10.1286   -2.4318   25.1946 C   0  0  0  0  0  0  0  0  0  0  0  0
   10.5985   -4.0699   19.8137 C   0  0  0  0  0  0  0  0  0  0  0  0
    7.9854   -7.9180   16.2227 He  0  0  0  0  0  0  0  0  0  0  0  0
   10.7847   -6.0068   18.5152 He  0  0  0  0  0  0  0  0  0  0  0  0
    8.5553   -6.9900   17.5072 He  0  0  0  0  0  0  0  0  0  0  0  0
  1  8  1  0
  1 10  3  0
  1 12  4  0
  1 14  4  0
  1 15  4  0
  2  7  1  0
  2  9  1  0
  2 13  4  0
  3  5  1  0
  3 10  1  0
  3 20  1  0
  3 22  2  0
  4 11  4  0
  4 13  1  0
  4 16  2  0
  4 19  4  0
  5  7  2  0
  5  9  4  0
  5 13  2  0
  6 15  4  0
  6 17  4  0
  6 18  4  0
  6 19  1  0
  6 21  4  0
  7  9  2  0
  7 16  1  0
  8  9  2  0
  8 10  4  0
  8 22  4  0
  9 10  3  0
  9 15  4  0
  9 17  4  0
  9 23  4  0
 10 15  1  0
 10 19  4  0
 11 22  4  0
 12 21  4  0
 12 23  4  0
 13 15  3  0
 13 16  4  0
 14 18  4  0
 15 21  2  0
 16 20  1  0
 17 22  3  0
 18 22  4  0
 18 23  3  0
 19 21  2  0
 20 23  2  0
 21 23  1  0
 22 23  4  0
M  END
$$$$

 Created by Python create_sdf_string function

 26 30  0  0  0  0  0  0  0  0999 V2000
   10.6413   -3.0303   22.9765 C   0  0  0  0  0  0  0  0  0  0  0  0
    9.0626   -5.5676   16.9694 C   0  0  0  0  0  0  0  0  0  0  0  0
    9.9368   -4.8494   17.6656 C   0  0  0  0  0  0  0  0  0  0  0  0
    9.1847   -0.5149   25.9446 C   0  0  0  0  0  0  0  0  0  0  0  0
    6.3168   -8.8342   15.6799 C   0  0  0  0  0  0  0  0  0  0  0  0
    6.5624   -7.7028   18.0742 C   0  0  0  0  0  0  0  0  0  0  0  0
   10.9035   -2.9981   18.6505 N   0  0  0  0  0  0  0  0  0  0  0  0
   10.2369   -2.1371   24.0152 C   0  0  0  0  0  0  0  0  0  0  0  0
    5.2803   -8.9305   16.5835 C   0  0  0  0  0  0  0  0  0  0  0  0
    9.8932   -0.8371   23.6895 C   0  0  0  0  0  0  0  0  0  0  0  0
    9.6010   -1.7606   26.2932 N   0  0  0  0  0  0  0  0  0  0  0  0
   10.7304   -2.8087   21.6128 N   0  0  0  0  0  0  0  0  0  0  0  0
   10.5956   -6.5800   19.0744 C   0  0  0  0  0  0  0  0  0  0  0  0
   10.9311   -4.2942   23.1292 N   0  0  0  0  0  0  0  0  0  0  0  0
    7.4494   -8.1605   15.9145 C   0  0  0  0  0  0  0  0  0  0  0  0
    5.4816   -8.3750   17.7971 C   0  0  0  0  0  0  0  0  0  0  0  0
    9.7421   -7.4243   18.3623 C   0  0  0  0  0  0  0  0  0  0  0  0
    7.6411   -7.5273   17.1722 C   0  0  0  0  0  0  0  0  0  0  0  0
   11.0442   -4.9502   21.8156 N   0  0  0  0  0  0  0  0  0  0  0  0
   10.5240   -5.2376   18.8611 C   0  0  0  0  0  0  0  0  0  0  0  0
    9.3253   -0.0299   24.6666 C   0  0  0  0  0  0  0  0  0  0  0  0
   10.4177   -3.5840   17.3773 N   0  0  0  0  0  0  0  0  0  0  0  0
   10.9197   -3.9288   20.9864 C   0  0  0  0  0  0  0  0  0  0  0  0
    8.7906   -6.8689   17.4911 C   0  0  0  0  0  0  0  0  0  0  0  0
   10.1398   -2.5657   25.3214 C   0  0  0  0  0  0  0  0  0  0  0  0
   10.8841   -4.1225   19.5589 C   0  0  0  0  0  0  0  0  0  0  0  0
  1  8  1  0
  1 12  4  0
  1 14  4  0
  2  3  4  0
  2 24  4  0
  3 20  4  0
  3 22  4  0
  4 11  4  0
  4 21  4  0
  5  9  4  0
  5 15  4  0
  6 16  4  0
  6 18  4  0
  7 22  4  0
  7 26  4  0
  8 10  4  0
  8 25  4  0
  9 16  4  0
 10 21  4  0
 11 25  4  0
 12 23  4  0
 13 17  4  0
 13 20  4  0
 14 19  4  0
 15 18  4  0
 17 24  4  0
 18 24  1  0
 19 23  4  0
 20 26  4  0
 23 26  1  0
M  END
$$$$

 Created by Python create_sdf_string function

 26 58  0  0  0  0  0  0  0  0999 V2000
   10.7587   -3.0750   23.1126 C   0  0  0  0  0  0  0  0  0  0  0  0
    9.5313   -5.6668   17.0443 O   0  0  0  0  0  0  0  0  0  0  0  0
    9.9353   -4.6326   17.6823 C   0  0  0  0  0  0  0  0  0  0  0  0
    9.0317   -0.5844   25.8761 C   0  0  0  0  0  0  0  0  0  0  0  0
    6.4424   -9.0949   15.5432 I   0  0  0  0  0  0  0  0  0  0  0  0
    6.8298   -7.8979   18.0169 C   0  0  0  0  0  0  0  0  0  0  0  0
   10.5043   -2.3364   18.3357 N   0  0  0  0  0  0  0  0  0  0  0  0
   10.2640   -2.1917   23.6997 C   0  0  0  0  0  0  0  0  0  0  0  0
    5.5457   -8.9197   16.4510 C   0  0  0  0  0  0  0  0  0  0  0  0
    9.7536   -0.8723   23.6791 C   0  0  0  0  0  0  0  0  0  0  0  0
    9.4255   -1.9320   26.3702 N   0  0  0  0  0  0  0  0  0  0  0  0
   10.7600   -2.5776   21.4456 N   0  0  0  0  0  0  0  0  0  0  0  0
   10.0709   -6.8251   18.4754 C   0  0  0  0  0  0  0  0  0  0  0  0
   10.9961   -4.1833   23.0245 N   0  0  0  0  0  0  0  0  0  0  0  0
    7.3498   -8.0627   16.2387 C   0  0  0  0  0  0  0  0  0  0  0  0
    5.4545   -8.8163   18.0021 C   0  0  0  0  0  0  0  0  0  0  0  0
    9.7253   -7.4993   17.8514 C   0  0  0  0  0  0  0  0  0  0  0  0
    8.1331   -7.3872   16.8922 C   0  0  0  0  0  0  0  0  0  0  0  0
   11.0686   -5.1470   21.7223 N   0  0  0  0  0  0  0  0  0  0  0  0
   10.9594   -5.4066   18.9896 C   0  0  0  0  0  0  0  0  0  0  0  0
    9.4391   -0.4222   24.4011 C   0  0  0  0  0  0  0  0  0  0  0  0
   10.9979   -4.0881   21.0193 C   0  0  0  0  0  0  0  0  0  0  0  0
    8.6838   -6.7431   17.5703 C   0  0  0  0  0  0  0  0  0  0  0  0
   10.4639   -2.5068   25.1858 C   0  0  0  0  0  0  0  0  0  0  0  0
   10.3227   -4.1717   17.8032 He  0  0  0  0  0  0  0  0  0  0  0  0
   11.0406   -4.3155   19.4532 He  0  0  0  0  0  0  0  0  0  0  0  0
  1  2  1  0
  1  7  4  0
  1  8  1  0
  1  9  1  0
  1 16  2  0
  2  3  1  0
  2  8  1  0
  2  9  1  0
  2 16  3  0
  2 19  4  0
  2 23  4  0
  3  5  1  0
  3 12  1  0
  4  9  1  0
  4 11  4  0
  4 12  2  0
  4 19  4  0
  4 20  4  0
  4 21  4  0
  4 24  1  0
  5  9  2  0
  5 10  1  0
  5 11  2  0
  5 15  4  0
  5 17  1  0
  5 21  1  0
  6 11  2  0
  6 15  1  0
  6 16  4  0
  6 18  4  0
  7 18  3  0
  7 21  1  0
  8 10  4  0
  8 11  3  0
  8 24  4  0
  9 11  1  0
  9 16  4  0
 10 13  4  0
 10 18  2  0
 10 21  4  0
 10 24  4  0
 11 16  2  0
 11 17  2  0
 11 20  4  0
 11 22  2  0
 11 24  4  0
 12 22  4  0
 13 20  4  0
 14 19  4  0
 15 18  4  0
 15 21  2  0
 16 23  1  0
 17 21  2  0
 17 23  4  0
 18 21  2  0
 18 23  1  0
 19 22  4  0
 20 22  3  0
M  END
$$$$

 Created by Python create_sdf_string function

 26 30  0  0  0  0  0  0  0  0999 V2000
   10.6856   -3.0895   22.8925 C   0  0  0  0  0  0  0  0  0  0  0  0
    9.0752   -5.6429   16.9450 C   0  0  0  0  0  0  0  0  0  0  0  0
    9.9500   -4.8008   17.6320 C   0  0  0  0  0  0  0  0  0  0  0  0
    9.0787   -0.6560   25.8877 C   0  0  0  0  0  0  0  0  0  0  0  0
    6.3935   -8.9230   15.5829 N   0  0  0  0  0  0  0  0  0  0  0  0
    6.7067   -7.8531   17.9603 C   0  0  0  0  0  0  0  0  0  0  0  0
   10.8245   -3.0304   18.7242 N   0  0  0  0  0  0  0  0  0  0  0  0
   10.2491   -2.2107   23.9656 C   0  0  0  0  0  0  0  0  0  0  0  0
    5.4624   -9.1468   16.5550 C   0  0  0  0  0  0  0  0  0  0  0  0
    9.8820   -0.9318   23.6392 C   0  0  0  0  0  0  0  0  0  0  0  0
    9.5669   -1.8810   26.2167 N   0  0  0  0  0  0  0  0  0  0  0  0
   10.7578   -2.8299   21.6060 N   0  0  0  0  0  0  0  0  0  0  0  0
   10.6479   -6.5747   19.0157 C   0  0  0  0  0  0  0  0  0  0  0  0
   10.9910   -4.3662   23.0604 N   0  0  0  0  0  0  0  0  0  0  0  0
    7.4777   -8.1784   15.8600 C   0  0  0  0  0  0  0  0  0  0  0  0
    5.6099   -8.6014   17.7969 C   0  0  0  0  0  0  0  0  0  0  0  0
    9.8400   -7.4506   18.2741 C   0  0  0  0  0  0  0  0  0  0  0  0
    7.7113   -7.6026   17.0763 C   0  0  0  0  0  0  0  0  0  0  0  0
   11.1578   -5.0030   21.7662 N   0  0  0  0  0  0  0  0  0  0  0  0
   10.5057   -5.2601   18.8123 C   0  0  0  0  0  0  0  0  0  0  0  0
    9.2388   -0.1524   24.6179 C   0  0  0  0  0  0  0  0  0  0  0  0
   10.2664   -3.5530   17.5062 N   0  0  0  0  0  0  0  0  0  0  0  0
   10.9360   -3.9630   20.9221 C   0  0  0  0  0  0  0  0  0  0  0  0
    8.8696   -6.9364   17.4029 C   0  0  0  0  0  0  0  0  0  0  0  0
   10.1408   -2.6653   25.2326 C   0  0  0  0  0  0  0  0  0  0  0  0
   10.8050   -4.1054   19.5309 C   0  0  0  0  0  0  0  0  0  0  0  0
  1  8  1  0
  1 12  4  0
  1 14  4  0
  2  3  4  0
  2 24  4  0
  3 20  4  0
  3 22  4  0
  4 11  4  0
  4 21  4  0
  5  9  4  0
  5 15  4  0
  6 16  4  0
  6 18  4  0
  7 22  4  0
  7 26  4  0
  8 10  4  0
  8 25  4  0
  9 16  4  0
 10 21  4  0
 11 25  4  0
 12 23  4  0
 13 17  4  0
 13 20  4  0
 14 19  4  0
 15 18  4  0
 17 24  4  0
 18 24  1  0
 19 23  4  0
 20 26  4  0
 23 26  1  0
M  END
$$$$

 Created by Python create_sdf_string function

 26 40  0  0  0  0  0  0  0  0999 V2000
   10.6406   -3.0713   22.8147 O   0  0  0  0  0  0  0  0  0  0  0  0
    9.0935   -5.5396   17.3147 C   0  0  0  0  0  0  0  0  0  0  0  0
    9.9516   -4.6802   17.6632 C   0  0  0  0  0  0  0  0  0  0  0  0
    9.2952   -0.7520   25.6984 C   0  0  0  0  0  0  0  0  0  0  0  0
    6.2471   -8.9700   16.2872 O   0  0  0  0  0  0  0  0  0  0  0  0
   10.7702   -3.1247   18.5466 N   0  0  0  0  0  0  0  0  0  0  0  0
   10.2414   -2.3424   24.2680 C   0  0  0  0  0  0  0  0  0  0  0  0
    5.6331   -9.1587   16.4525 C   0  0  0  0  0  0  0  0  0  0  0  0
    9.7313   -0.8007   23.3731 C   0  0  0  0  0  0  0  0  0  0  0  0
    9.6772   -2.0817   25.8748 N   0  0  0  0  0  0  0  0  0  0  0  0
   10.5726   -2.6802   21.5390 N   0  0  0  0  0  0  0  0  0  0  0  0
   11.0867   -4.4229   23.1017 N   0  0  0  0  0  0  0  0  0  0  0  0
    5.6402   -8.4516   17.7813 C   0  0  0  0  0  0  0  0  0  0  0  0
    9.8351   -7.3715   18.1266 C   0  0  0  0  0  0  0  0  0  0  0  0
    7.1834   -7.4549   16.7911 Br  0  0  0  0  0  0  0  0  0  0  0  0
   11.2153   -5.1980   21.9412 N   0  0  0  0  0  0  0  0  0  0  0  0
   10.6567   -5.0588   18.5934 C   0  0  0  0  0  0  0  0  0  0  0  0
    9.3686   -0.1926   24.6003 P   0  0  0  0  0  0  0  0  0  0  0  0
   11.0858   -3.8980   21.0871 C   0  0  0  0  0  0  0  0  0  0  0  0
    8.8492   -6.9657   17.6132 C   0  0  0  0  0  0  0  0  0  0  0  0
   10.3615   -2.7401   25.1872 C   0  0  0  0  0  0  0  0  0  0  0  0
   10.6226   -4.2114   19.2097 C   0  0  0  0  0  0  0  0  0  0  0  0
    6.5333   -7.6735   18.3486 He  0  0  0  0  0  0  0  0  0  0  0  0
   10.3996   -6.7012   19.2114 He  0  0  0  0  0  0  0  0  0  0  0  0
    7.2540   -8.1509   15.5232 He  0  0  0  0  0  0  0  0  0  0  0  0
   10.3347   -4.0601   17.5193 He  0  0  0  0  0  0  0  0  0  0  0  0
  1  7  1  0
  1 11  4  0
  1 12  4  0
  1 21  2  0
  2  3  4  0
  2 10  1  0
  2 20  4  0
  3  6  3  0
  3 15  2  0
  3 17  4  0
  4  9  4  0
  4 10  4  0
  4 13  3  0
  4 18  4  0
  5  8  4  0
  5 11  2  0
  6 18  1  0
  6 22  4  0
  7  9  1  0
  7 13  3  0
  7 21  4  0
  8 13  4  0
  8 18  2  0
  8 20  4  0
  9 18  4  0
 10 21  4  0
 11 19  4  0
 12 16  4  0
 12 20  3  0
 13 17  1  0
 13 22  1  0
 14 16  2  0
 15 19  4  0
 15 20  3  0
 16 19  4  0
 16 20  2  0
 17 19  4  0
 18 21  4  0
 18 22  3  0
 19 22  1  0
M  END
$$$$

 Created by Python create_sdf_string function

 26 30  0  0  0  0  0  0  0  0999 V2000
   10.6473   -3.1407   22.9013 C   0  0  0  0  0  0  0  0  0  0  0  0
    9.0338   -5.6211   16.9630 C   0  0  0  0  0  0  0  0  0  0  0  0
    9.9076   -4.8427   17.6680 C   0  0  0  0  0  0  0  0  0  0  0  0
    9.1942   -0.6967   25.8749 C   0  0  0  0  0  0  0  0  0  0  0  0
    6.3017   -8.9804   15.7360 N   0  0  0  0  0  0  0  0  0  0  0  0
    6.5217   -7.6969   18.0304 C   0  0  0  0  0  0  0  0  0  0  0  0
   10.8648   -3.0616   18.6827 N   0  0  0  0  0  0  0  0  0  0  0  0
   10.2292   -2.2796   23.9470 C   0  0  0  0  0  0  0  0  0  0  0  0
    5.3449   -9.1613   16.6303 C   0  0  0  0  0  0  0  0  0  0  0  0
    9.8688   -0.9756   23.6126 C   0  0  0  0  0  0  0  0  0  0  0  0
    9.6240   -1.9180   26.2196 N   0  0  0  0  0  0  0  0  0  0  0  0
   10.6782   -2.8420   21.5928 N   0  0  0  0  0  0  0  0  0  0  0  0
   10.4576   -6.6201   19.1577 C   0  0  0  0  0  0  0  0  0  0  0  0
   11.0144   -4.4035   23.0411 N   0  0  0  0  0  0  0  0  0  0  0  0
    7.3726   -8.2552   15.9647 C   0  0  0  0  0  0  0  0  0  0  0  0
    5.4705   -8.4737   17.8058 C   0  0  0  0  0  0  0  0  0  0  0  0
    9.6131   -7.4568   18.4418 C   0  0  0  0  0  0  0  0  0  0  0  0
    7.5766   -7.5812   17.1599 C   0  0  0  0  0  0  0  0  0  0  0  0
   11.1879   -5.0173   21.7261 N   0  0  0  0  0  0  0  0  0  0  0  0
   10.4194   -5.2661   18.8333 C   0  0  0  0  0  0  0  0  0  0  0  0
    9.3059   -0.1805   24.6168 N   0  0  0  0  0  0  0  0  0  0  0  0
   10.2826   -3.5404   17.5051 N   0  0  0  0  0  0  0  0  0  0  0  0
   10.9096   -3.9611   20.8755 C   0  0  0  0  0  0  0  0  0  0  0  0
    8.7157   -6.9354   17.4450 C   0  0  0  0  0  0  0  0  0  0  0  0
   10.1436   -2.7589   25.2430 C   0  0  0  0  0  0  0  0  0  0  0  0
   10.8044   -4.1216   19.5398 C   0  0  0  0  0  0  0  0  0  0  0  0
  1  8  1  0
  1 12  4  0
  1 14  4  0
  2  3  4  0
  2 24  4  0
  3 20  4  0
  3 22  4  0
  4 11  4  0
  4 21  4  0
  5  9  4  0
  5 15  4  0
  6 16  4  0
  6 18  4  0
  7 22  4  0
  7 26  4  0
  8 10  4  0
  8 25  4  0
  9 16  4  0
 10 21  4  0
 11 25  4  0
 12 23  4  0
 13 17  4  0
 13 20  4  0
 14 19  4  0
 15 18  4  0
 17 24  4  0
 18 24  1  0
 19 23  4  0
 20 26  4  0
 23 26  1  0
M  END
$$$$

 Created by Python create_sdf_string function

 26 49  0  0  0  0  0  0  0  0999 V2000
   10.4829   -3.3938   22.9052 C   0  0  0  0  0  0  0  0  0  0  0  0
    9.7808   -4.6458   17.4967 C   0  0  0  0  0  0  0  0  0  0  0  0
    9.4613   -0.8820   26.0030 C   0  0  0  0  0  0  0  0  0  0  0  0
    6.6339   -8.8877   15.4618 N   0  0  0  0  0  0  0  0  0  0  0  0
    6.4021   -6.9878   17.4468 N   0  0  0  0  0  0  0  0  0  0  0  0
   10.5727   -3.3217   18.7223 N   0  0  0  0  0  0  0  0  0  0  0  0
   10.2091   -2.1478   23.9130 C   0  0  0  0  0  0  0  0  0  0  0  0
    9.7493   -1.2330   23.6755 C   0  0  0  0  0  0  0  0  0  0  0  0
    9.5770   -2.1197   26.3342 N   0  0  0  0  0  0  0  0  0  0  0  0
   10.9151   -2.7741   21.6186 N   0  0  0  0  0  0  0  0  0  0  0  0
   10.9548   -6.5179   19.3213 C   0  0  0  0  0  0  0  0  0  0  0  0
   10.6125   -4.3008   23.0778 N   0  0  0  0  0  0  0  0  0  0  0  0
    7.5249   -7.9746   16.2138 C   0  0  0  0  0  0  0  0  0  0  0  0
    5.7434   -8.7330   17.2418 C   0  0  0  0  0  0  0  0  0  0  0  0
    9.1707   -7.9476   19.0064 O   0  0  0  0  0  0  0  0  0  0  0  0
    7.8049   -8.0985   17.3507 C   0  0  0  0  0  0  0  0  0  0  0  0
   11.2525   -5.0204   21.8336 N   0  0  0  0  0  0  0  0  0  0  0  0
   10.5700   -5.6173   18.6861 C   0  0  0  0  0  0  0  0  0  0  0  0
    9.1968   -0.2513   24.6096 N   0  0  0  0  0  0  0  0  0  0  0  0
   10.5607   -3.6464   17.5532 N   0  0  0  0  0  0  0  0  0  0  0  0
   10.8054   -3.9782   20.8270 C   0  0  0  0  0  0  0  0  0  0  0  0
    8.4621   -7.1731   17.2547 C   0  0  0  0  0  0  0  0  0  0  0  0
   10.3203   -2.9600   25.1201 C   0  0  0  0  0  0  0  0  0  0  0  0
   11.0109   -3.5725   19.6131 C   0  0  0  0  0  0  0  0  0  0  0  0
    8.6989   -5.4689   17.1328 He  0  0  0  0  0  0  0  0  0  0  0  0
    5.6194   -8.7773   16.2406 He  0  0  0  0  0  0  0  0  0  0  0  0
  1  7  1  0
  1 10  3  0
  1 12  4  0
  1 16  3  0
  2  9  3  0
  2 17  2  0
  2 18  4  0
  2 20  4  0
  3  4  3  0
  3 19  4  0
  4  5  1  0
  4  9  1  0
  4 10  1  0
  4 13  4  0
  4 22  1  0
  5 12  2  0
  5 14  4  0
  5 16  4  0
  6  9  4  0
  6 20  4  0
  6 22  4  0
  6 24  4  0
  7  8  4  0
  7 11  1  0
  8 16  1  0
  8 19  4  0
  8 24  1  0
  9 12  3  0
  9 23  4  0
 10 11  1  0
 10 12  1  0
 10 19  3  0
 11 15  4  0
 11 18  4  0
 12 17  4  0
 13 16  4  0
 13 18  1  0
 14 15  3  0
 14 18  2  0
 14 21  3  0
 15 22  4  0
 15 23  4  0
 16 20  2  0
 16 22  1  0
 16 24  2  0
 17 21  4  0
 18 24  4  0
 20 23  3  0
 22 23  1  0
M  END
$$$$

 Created by Python create_sdf_string function

 26 30  0  0  0  0  0  0  0  0999 V2000
   10.5839   -3.1871   22.9046 C   0  0  0  0  0  0  0  0  0  0  0  0
    9.0402   -5.6738   16.9887 C   0  0  0  0  0  0  0  0  0  0  0  0
    9.8633   -4.8432   17.7297 C   0  0  0  0  0  0  0  0  0  0  0  0
    9.2302   -0.8061   26.0026 C   0  0  0  0  0  0  0  0  0  0  0  0
    6.6020   -8.9880   15.4705 N   0  0  0  0  0  0  0  0  0  0  0  0
    6.4128   -7.6076   17.7930 N   0  0  0  0  0  0  0  0  0  0  0  0
   10.8657   -3.0858   18.6501 N   0  0  0  0  0  0  0  0  0  0  0  0
   10.1667   -2.3674   23.9863 C   0  0  0  0  0  0  0  0  0  0  0  0
    5.4626   -8.9570   16.1151 C   0  0  0  0  0  0  0  0  0  0  0  0
    9.7993   -1.0895   23.7109 C   0  0  0  0  0  0  0  0  0  0  0  0
    9.6747   -2.0622   26.2960 N   0  0  0  0  0  0  0  0  0  0  0  0
   10.6678   -2.8606   21.6209 N   0  0  0  0  0  0  0  0  0  0  0  0
   10.4204   -6.5821   19.2683 C   0  0  0  0  0  0  0  0  0  0  0  0
   10.9174   -4.4798   23.0210 N   0  0  0  0  0  0  0  0  0  0  0  0
    7.6596   -8.3219   15.8860 C   0  0  0  0  0  0  0  0  0  0  0  0
    5.3449   -8.2313   17.2757 C   0  0  0  0  0  0  0  0  0  0  0  0
    9.5497   -7.4588   18.5848 C   0  0  0  0  0  0  0  0  0  0  0  0
    7.6314   -7.5752   17.1174 C   0  0  0  0  0  0  0  0  0  0  0  0
   11.1539   -5.0459   21.7283 N   0  0  0  0  0  0  0  0  0  0  0  0
   10.3722   -5.2594   18.8968 C   0  0  0  0  0  0  0  0  0  0  0  0
    9.2886   -0.2754   24.7444 N   0  0  0  0  0  0  0  0  0  0  0  0
   10.2644   -3.5588   17.5139 N   0  0  0  0  0  0  0  0  0  0  0  0
   10.9167   -3.9327   20.8948 C   0  0  0  0  0  0  0  0  0  0  0  0
    8.7257   -6.9274   17.5363 C   0  0  0  0  0  0  0  0  0  0  0  0
   10.1130   -2.8656   25.2454 C   0  0  0  0  0  0  0  0  0  0  0  0
   10.8073   -4.1122   19.5808 C   0  0  0  0  0  0  0  0  0  0  0  0
  1  8  1  0
  1 12  4  0
  1 14  4  0
  2  3  4  0
  2 24  4  0
  3 20  4  0
  3 22  4  0
  4 11  4  0
  4 21  4  0
  5  9  4  0
  5 15  4  0
  6 16  4  0
  6 18  4  0
  7 22  4  0
  7 26  4  0
  8 10  4  0
  8 25  4  0
  9 16  4  0
 10 21  4  0
 11 25  4  0
 12 23  4  0
 13 17  4  0
 13 20  4  0
 14 19  4  0
 15 18  4  0
 17 24  4  0
 18 24  1  0
 19 23  4  0
 20 26  4  0
 23 26  1  0
M  END
$$$$

 Created by Python create_sdf_string function

 26 48  0  0  0  0  0  0  0  0999 V2000
   10.3733   -3.2698   22.8350 C   0  0  0  0  0  0  0  0  0  0  0  0
    9.0645   -5.9103   17.0711 C   0  0  0  0  0  0  0  0  0  0  0  0
    9.4057   -0.3545   25.9334 C   0  0  0  0  0  0  0  0  0  0  0  0
    6.7502   -8.5731   15.4595 N   0  0  0  0  0  0  0  0  0  0  0  0
    6.6074   -7.4770   17.6765 N   0  0  0  0  0  0  0  0  0  0  0  0
   10.6364   -3.4893   18.4885 N   0  0  0  0  0  0  0  0  0  0  0  0
    4.8568   -9.1851   16.2764 C   0  0  0  0  0  0  0  0  0  0  0  0
    9.6671   -2.2491   26.4375 N   0  0  0  0  0  0  0  0  0  0  0  0
   10.7525   -2.8962   21.5710 N   0  0  0  0  0  0  0  0  0  0  0  0
   10.3801   -6.1543   18.8977 C   0  0  0  0  0  0  0  0  0  0  0  0
   10.9866   -4.5894   23.1048 N   0  0  0  0  0  0  0  0  0  0  0  0
    8.1088   -8.1060   15.9540 C   0  0  0  0  0  0  0  0  0  0  0  0
    4.9654   -7.6529   16.8493 C   0  0  0  0  0  0  0  0  0  0  0  0
    9.6480   -7.3681   18.8990 C   0  0  0  0  0  0  0  0  0  0  0  0
    7.4416   -7.8238   17.0910 C   0  0  0  0  0  0  0  0  0  0  0  0
   11.0222   -5.1775   21.7230 N   0  0  0  0  0  0  0  0  0  0  0  0
   10.1278   -4.9711   19.0105 C   0  0  0  0  0  0  0  0  0  0  0  0
    9.3154   -0.4364   25.2572 N   0  0  0  0  0  0  0  0  0  0  0  0
   10.4181   -3.5517   17.4365 N   0  0  0  0  0  0  0  0  0  0  0  0
   10.8797   -3.8793   21.0056 C   0  0  0  0  0  0  0  0  0  0  0  0
    8.6627   -6.7355   17.5150 C   0  0  0  0  0  0  0  0  0  0  0  0
   10.0787   -2.5970   25.2200 C   0  0  0  0  0  0  0  0  0  0  0  0
   10.9669   -4.3378   19.9855 C   0  0  0  0  0  0  0  0  0  0  0  0
    9.8810   -4.6476   17.9519 He  0  0  0  0  0  0  0  0  0  0  0  0
   10.3814   -2.4306   23.9011 He  0  0  0  0  0  0  0  0  0  0  0  0
    9.6361   -0.9642   23.8397 He  0  0  0  0  0  0  0  0  0  0  0  0
  1  9  4  0
  1 11  4  0
  1 13  3  0
  1 21  1  0
  2 11  1  0
  2 16  4  0
  2 21  4  0
  3  8  4  0
  3 18  4  0
  4  7  4  0
  4 11  2  0
  4 12  4  0
  5 12  1  0
  5 13  4  0
  5 15  4  0
  5 16  4  0
  6 11  1  0
  6 12  3  0
  6 16  4  0
  6 19  4  0
  6 23  4  0
  7  9  3  0
  7 11  2  0
  7 13  4  0
  7 19  4  0
  7 23  3  0
  8 22  4  0
  9 15  2  0
  9 20  4  0
 10 14  4  0
 10 17  4  0
 10 19  3  0
 10 22  3  0
 11 22  4  0
 12 15  4  0
 12 18  1  0
 13 15  2  0
 14 15  3  0
 14 20  1  0
 14 21  1  0
 15 17  3  0
 15 21  1  0
 16 20  4  0
 16 23  3  0
 17 19  3  0
 17 20  1  0
 17 23  4  0
 20 23  3  0
M  END
$$$$

 Created by Python create_sdf_string function

 26 30  0  0  0  0  0  0  0  0999 V2000
   10.5538   -3.1745   23.0104 C   0  0  0  0  0  0  0  0  0  0  0  0
    8.9993   -5.6073   17.0645 C   0  0  0  0  0  0  0  0  0  0  0  0
    9.8811   -4.8414   17.7460 C   0  0  0  0  0  0  0  0  0  0  0  0
    9.3178   -0.7583   26.1272 C   0  0  0  0  0  0  0  0  0  0  0  0
    6.5279   -8.9601   15.4227 N   0  0  0  0  0  0  0  0  0  0  0  0
    6.3409   -7.3924   17.6240 N   0  0  0  0  0  0  0  0  0  0  0  0
   10.8197   -3.0736   18.7184 N   0  0  0  0  0  0  0  0  0  0  0  0
   10.1394   -2.3244   24.1005 C   0  0  0  0  0  0  0  0  0  0  0  0
    5.3420   -8.7376   15.9759 C   0  0  0  0  0  0  0  0  0  0  0  0
    9.7669   -1.0497   23.8384 C   0  0  0  0  0  0  0  0  0  0  0  0
    9.7188   -2.0215   26.4342 N   0  0  0  0  0  0  0  0  0  0  0  0
   10.6180   -2.8534   21.6834 N   0  0  0  0  0  0  0  0  0  0  0  0
   10.3029   -6.5362   19.3329 C   0  0  0  0  0  0  0  0  0  0  0  0
   10.8852   -4.4361   23.1409 N   0  0  0  0  0  0  0  0  0  0  0  0
    7.6269   -8.3437   15.9032 C   0  0  0  0  0  0  0  0  0  0  0  0
    5.2288   -7.9819   17.1274 C   0  0  0  0  0  0  0  0  0  0  0  0
    9.4727   -7.4343   18.5891 C   0  0  0  0  0  0  0  0  0  0  0  0
    7.5885   -7.5091   17.0251 C   0  0  0  0  0  0  0  0  0  0  0  0
   11.1010   -5.0208   21.8233 N   0  0  0  0  0  0  0  0  0  0  0  0
   10.3550   -5.2639   18.9383 C   0  0  0  0  0  0  0  0  0  0  0  0
    9.3349   -0.2511   24.8730 N   0  0  0  0  0  0  0  0  0  0  0  0
   10.3043   -3.5574   17.5188 N   0  0  0  0  0  0  0  0  0  0  0  0
   10.8450   -3.9473   20.9716 C   0  0  0  0  0  0  0  0  0  0  0  0
    8.6542   -6.8701   17.5089 C   0  0  0  0  0  0  0  0  0  0  0  0
   10.1162   -2.8414   25.3773 C   0  0  0  0  0  0  0  0  0  0  0  0
   10.7465   -4.0749   19.6126 C   0  0  0  0  0  0  0  0  0  0  0  0
  1  8  1  0
  1 12  4  0
  1 14  4  0
  2  3  4  0
  2 24  4  0
  3 20  4  0
  3 22  4  0
  4 11  4  0
  4 21  4  0
  5  9  4  0
  5 15  4  0
  6 16  4  0
  6 18  4  0
  7 22  4  0
  7 26  4  0
  8 10  4  0
  8 25  4  0
  9 16  4  0
 10 21  4  0
 11 25  4  0
 12 23  4  0
 13 17  4  0
 13 20  4  0
 14 19  4  0
 15 18  4  0
 17 24  4  0
 18 24  1  0
 19 23  4  0
 20 26  4  0
 23 26  1  0
M  END
$$$$

 Created by Python create_sdf_string function

 26 37  0  0  0  0  0  0  0  0999 V2000
   10.5227   -2.9829   23.0869 C   0  0  0  0  0  0  0  0  0  0  0  0
    8.8194   -5.6191   16.8880 C   0  0  0  0  0  0  0  0  0  0  0  0
    9.7021   -4.9155   17.7157 C   0  0  0  0  0  0  0  0  0  0  0  0
    6.3033   -8.5848   15.2425 N   0  0  0  0  0  0  0  0  0  0  0  0
    6.7676   -7.3222   17.7277 N   0  0  0  0  0  0  0  0  0  0  0  0
   10.5890   -3.4443   18.3355 N   0  0  0  0  0  0  0  0  0  0  0  0
   10.0384   -2.2361   24.4580 C   0  0  0  0  0  0  0  0  0  0  0  0
    9.7605   -1.0307   23.8519 C   0  0  0  0  0  0  0  0  0  0  0  0
   10.5102   -2.8828   21.4468 N   0  0  0  0  0  0  0  0  0  0  0  0
   10.1074   -6.1752   19.5903 C   0  0  0  0  0  0  0  0  0  0  0  0
   10.8717   -4.4077   23.0301 N   0  0  0  0  0  0  0  0  0  0  0  0
    7.7988   -8.1927   15.6650 C   0  0  0  0  0  0  0  0  0  0  0  0
    4.8091   -8.0700   17.3114 C   0  0  0  0  0  0  0  0  0  0  0  0
   11.3391   -4.8992   21.7523 N   0  0  0  0  0  0  0  0  0  0  0  0
   10.6973   -5.0791   19.3119 C   0  0  0  0  0  0  0  0  0  0  0  0
    9.2762    0.0309   25.1607 N   0  0  0  0  0  0  0  0  0  0  0  0
   10.0281   -3.3774   17.3997 N   0  0  0  0  0  0  0  0  0  0  0  0
   11.0107   -3.8941   21.0460 C   0  0  0  0  0  0  0  0  0  0  0  0
    8.7323   -6.9055   17.4374 C   0  0  0  0  0  0  0  0  0  0  0  0
   11.4082   -3.8924   19.7238 C   0  0  0  0  0  0  0  0  0  0  0  0
    9.4178   -0.8113   26.0438 He  0  0  0  0  0  0  0  0  0  0  0  0
    5.3264   -8.5880   15.7216 He  0  0  0  0  0  0  0  0  0  0  0  0
    9.9701   -2.0471   26.3611 He  0  0  0  0  0  0  0  0  0  0  0  0
    9.9415   -7.5498   18.5420 He  0  0  0  0  0  0  0  0  0  0  0  0
    7.5999   -6.9556   17.0238 He  0  0  0  0  0  0  0  0  0  0  0  0
   10.1156   -2.7798   25.5363 He  0  0  0  0  0  0  0  0  0  0  0  0
  1  6  1  0
  1  7  1  0
  1  9  4  0
  1 11  4  0
  1 14  2  0
  1 16  4  0
  2  3  4  0
  2  6  2  0
  2 19  4  0
  3 10  1  0
  3 15  4  0
  3 17  4  0
  4 12  4  0
  4 16  4  0
  4 19  4  0
  5 13  4  0
  5 20  1  0
  6  7  3  0
  6 10  1  0
  6 13  3  0
  6 20  4  0
  7  8  4  0
  7  9  4  0
  7 15  4  0
  8 10  3  0
  8 16  3  0
  9 18  4  0
  9 20  1  0
 10 15  4  0
 11 14  4  0
 12 15  2  0
 14 18  4  0
 15 17  2  0
 15 18  1  0
 15 19  2  0
 15 20  4  0
 18 20  2  0
M  END
$$$$

 Created by Python create_sdf_string function

 26 30  0  0  0  0  0  0  0  0999 V2000
   10.5576   -3.1086   23.0539 C   0  0  0  0  0  0  0  0  0  0  0  0
    9.0324   -5.5361   17.0381 C   0  0  0  0  0  0  0  0  0  0  0  0
    9.8727   -4.7697   17.7316 C   0  0  0  0  0  0  0  0  0  0  0  0
    9.4030   -0.7362   26.2489 C   0  0  0  0  0  0  0  0  0  0  0  0
    6.3725   -8.6352   15.2607 N   0  0  0  0  0  0  0  0  0  0  0  0
    6.3926   -7.4458   17.6967 N   0  0  0  0  0  0  0  0  0  0  0  0
   10.8422   -2.9820   18.6939 N   0  0  0  0  0  0  0  0  0  0  0  0
   10.1473   -2.2771   24.1446 C   0  0  0  0  0  0  0  0  0  0  0  0
    5.2582   -8.5613   15.9499 C   0  0  0  0  0  0  0  0  0  0  0  0
    9.7265   -0.9997   23.9108 C   0  0  0  0  0  0  0  0  0  0  0  0
    9.7857   -2.0163   26.4843 C   0  0  0  0  0  0  0  0  0  0  0  0
   10.5997   -2.7758   21.7166 N   0  0  0  0  0  0  0  0  0  0  0  0
   10.3491   -6.4674   19.2961 C   0  0  0  0  0  0  0  0  0  0  0  0
   10.9581   -4.3726   23.1287 N   0  0  0  0  0  0  0  0  0  0  0  0
    7.5338   -8.1257   15.7300 C   0  0  0  0  0  0  0  0  0  0  0  0
    5.2386   -7.9524   17.1891 C   0  0  0  0  0  0  0  0  0  0  0  0
    9.5256   -7.3544   18.5602 C   0  0  0  0  0  0  0  0  0  0  0  0
    7.5845   -7.4665   16.9940 C   0  0  0  0  0  0  0  0  0  0  0  0
   11.2414   -4.9138   21.8250 N   0  0  0  0  0  0  0  0  0  0  0  0
   10.3676   -5.1662   18.9501 C   0  0  0  0  0  0  0  0  0  0  0  0
    9.3265   -0.1993   24.9938 N   0  0  0  0  0  0  0  0  0  0  0  0
   10.2664   -3.4704   17.5154 N   0  0  0  0  0  0  0  0  0  0  0  0
   10.9118   -3.8577   21.0025 C   0  0  0  0  0  0  0  0  0  0  0  0
    8.6769   -6.8296   17.4638 C   0  0  0  0  0  0  0  0  0  0  0  0
   10.1727   -2.8227   25.4130 N   0  0  0  0  0  0  0  0  0  0  0  0
   10.7817   -3.9945   19.6360 C   0  0  0  0  0  0  0  0  0  0  0  0
  1  8  1  0
  1 12  4  0
  1 14  4  0
  2  3  4  0
  2 24  4  0
  3 20  4  0
  3 22  4  0
  4 11  4  0
  4 21  4  0
  5  9  4  0
  5 15  4  0
  6 16  4  0
  6 18  4  0
  7 22  4  0
  7 26  4  0
  8 10  4  0
  8 25  4  0
  9 16  4  0
 10 21  4  0
 11 25  4  0
 12 23  4  0
 13 17  4  0
 13 20  4  0
 14 19  4  0
 15 18  4  0
 17 24  4  0
 18 24  1  0
 19 23  4  0
 20 26  4  0
 23 26  1  0
M  END
$$$$

 Created by Python create_sdf_string function

 26 36  0  0  0  0  0  0  0  0999 V2000
   10.6269   -2.9303   23.0413 C   0  0  0  0  0  0  0  0  0  0  0  0
    8.9643   -5.4759   17.1134 C   0  0  0  0  0  0  0  0  0  0  0  0
   10.0812   -4.8783   17.6809 C   0  0  0  0  0  0  0  0  0  0  0  0
    6.5358   -8.6695   15.3050 N   0  0  0  0  0  0  0  0  0  0  0  0
    6.5781   -7.4099   17.6993 N   0  0  0  0  0  0  0  0  0  0  0  0
   10.4062   -3.5190   18.8596 F   0  0  0  0  0  0  0  0  0  0  0  0
   10.2352   -2.2072   24.0397 C   0  0  0  0  0  0  0  0  0  0  0  0
    9.8757   -1.0630   23.7612 C   0  0  0  0  0  0  0  0  0  0  0  0
    9.9651   -2.0771   26.5560 C   0  0  0  0  0  0  0  0  0  0  0  0
   10.9137   -4.4508   23.1038 N   0  0  0  0  0  0  0  0  0  0  0  0
    7.9094   -7.9582   15.9393 C   0  0  0  0  0  0  0  0  0  0  0  0
    5.3869   -7.8693   17.3545 C   0  0  0  0  0  0  0  0  0  0  0  0
    9.4494   -7.1277   18.7203 C   0  0  0  0  0  0  0  0  0  0  0  0
    7.7629   -7.4233   17.0076 C   0  0  0  0  0  0  0  0  0  0  0  0
   11.2990   -4.9284   21.7924 N   0  0  0  0  0  0  0  0  0  0  0  0
   10.3476   -4.3244   19.1428 O   0  0  0  0  0  0  0  0  0  0  0  0
    9.3711   -0.5359   24.8970 N   0  0  0  0  0  0  0  0  0  0  0  0
   10.2204   -3.9793   17.1173 N   0  0  0  0  0  0  0  0  0  0  0  0
   10.9162   -3.6466   20.9805 O   0  0  0  0  0  0  0  0  0  0  0  0
    8.6318   -6.6195   17.3955 C   0  0  0  0  0  0  0  0  0  0  0  0
   10.2857   -2.9237   25.2683 N   0  0  0  0  0  0  0  0  0  0  0  0
   10.7021   -3.8438   19.7234 C   0  0  0  0  0  0  0  0  0  0  0  0
    9.0993   -0.9276   26.0866 He  0  0  0  0  0  0  0  0  0  0  0  0
    5.1025   -8.5828   15.7010 He  0  0  0  0  0  0  0  0  0  0  0  0
   10.7594   -2.3695   21.4922 He  0  0  0  0  0  0  0  0  0  0  0  0
   10.1878   -6.4091   18.9422 He  0  0  0  0  0  0  0  0  0  0  0  0
  1  6  4  0
  1  7  1  0
  1 10  2  0
  2  3  3  0
  2 11  4  0
  2 14  2  0
  2 20  4  0
  3 13  2  0
  3 14  3  0
  3 16  4  0
  3 18  4  0
  4  7  2  0
  4 10  3  0
  4 11  4  0
  4 17  3  0
  4 21  2  0
  4 22  4  0
  5  7  1  0
  5 12  4  0
  6 12  4  0
  6 18  4  0
  6 20  4  0
  6 22  4  0
  7  8  4  0
  8 17  1  0
  9 21  4  0
 10 15  4  0
 10 17  1  0
 11 17  3  0
 12 22  2  0
 14 20  1  0
 15 18  1  0
 15 19  4  0
 16 22  4  0
 19 20  4  0
 19 22  2  0
M  END
$$$$

 Created by Python create_sdf_string function

 26 30  0  0  0  0  0  0  0  0999 V2000
   10.6528   -3.0687   22.9851 C   0  0  0  0  0  0  0  0  0  0  0  0
    9.0927   -5.5354   16.9192 C   0  0  0  0  0  0  0  0  0  0  0  0
    9.8891   -4.7426   17.6918 C   0  0  0  0  0  0  0  0  0  0  0  0
    9.2412   -0.8616   26.1774 C   0  0  0  0  0  0  0  0  0  0  0  0
    6.4663   -8.6714   15.3066 N   0  0  0  0  0  0  0  0  0  0  0  0
    6.3946   -7.4111   17.7082 N   0  0  0  0  0  0  0  0  0  0  0  0
   10.8399   -2.9595   18.6497 C   0  0  0  0  0  0  0  0  0  0  0  0
   10.2411   -2.2755   24.0959 C   0  0  0  0  0  0  0  0  0  0  0  0
    5.3357   -8.5936   15.9381 C   0  0  0  0  0  0  0  0  0  0  0  0
    9.7741   -0.9846   23.8674 C   0  0  0  0  0  0  0  0  0  0  0  0
    9.7991   -2.0995   26.4160 C   0  0  0  0  0  0  0  0  0  0  0  0
   10.7071   -2.6839   21.6522 N   0  0  0  0  0  0  0  0  0  0  0  0
   10.1997   -6.3600   19.3281 C   0  0  0  0  0  0  0  0  0  0  0  0
   10.9919   -4.3430   23.0060 N   0  0  0  0  0  0  0  0  0  0  0  0
    7.5878   -8.1381   15.7727 C   0  0  0  0  0  0  0  0  0  0  0  0
    5.2681   -7.9752   17.1632 C   0  0  0  0  0  0  0  0  0  0  0  0
    9.4403   -7.2696   18.5701 C   0  0  0  0  0  0  0  0  0  0  0  0
    7.6158   -7.4103   17.0099 C   0  0  0  0  0  0  0  0  0  0  0  0
   11.1457   -4.8488   21.6662 N   0  0  0  0  0  0  0  0  0  0  0  0
   10.2993   -5.1202   18.9262 C   0  0  0  0  0  0  0  0  0  0  0  0
    9.2349   -0.3254   24.9562 N   0  0  0  0  0  0  0  0  0  0  0  0
   10.2981   -3.4576   17.4778 N   0  0  0  0  0  0  0  0  0  0  0  0
   10.8923   -3.7837   20.8756 C   0  0  0  0  0  0  0  0  0  0  0  0
    8.6865   -6.7694   17.4403 C   0  0  0  0  0  0  0  0  0  0  0  0
   10.2950   -2.8389   25.3509 N   0  0  0  0  0  0  0  0  0  0  0  0
   10.7525   -3.9621   19.5862 C   0  0  0  0  0  0  0  0  0  0  0  0
  1  8  1  0
  1 12  4  0
  1 14  4  0
  2  3  4  0
  2 24  4  0
  3 20  4  0
  3 22  4  0
  4 11  4  0
  4 21  4  0
  5  9  4  0
  5 15  4  0
  6 16  4  0
  6 18  4  0
  7 22  4  0
  7 26  4  0
  8 10  4  0
  8 25  4  0
  9 16  4  0
 10 21  4  0
 11 25  4  0
 12 23  4  0
 13 17  4  0
 13 20  4  0
 14 19  4  0
 15 18  4  0
 17 24  4  0
 18 24  1  0
 19 23  4  0
 20 26  4  0
 23 26  1  0
M  END
$$$$

 Created by Python create_sdf_string function

 26 50  0  0  0  0  0  0  0  0999 V2000
   10.8008   -3.0707   23.1222 C   0  0  0  0  0  0  0  0  0  0  0  0
    9.2106   -5.2888   16.9507 C   0  0  0  0  0  0  0  0  0  0  0  0
    9.8449   -4.8755   17.6622 C   0  0  0  0  0  0  0  0  0  0  0  0
    9.2435   -0.5802   26.0601 C   0  0  0  0  0  0  0  0  0  0  0  0
    6.6001   -8.9193   14.9784 N   0  0  0  0  0  0  0  0  0  0  0  0
    6.4085   -7.3116   17.7217 S   0  0  0  0  0  0  0  0  0  0  0  0
   10.7643   -3.0644   19.1560 C   0  0  0  0  0  0  0  0  0  0  0  0
   10.4421   -2.4351   24.2064 C   0  0  0  0  0  0  0  0  0  0  0  0
    5.1732   -8.7440   15.9029 C   0  0  0  0  0  0  0  0  0  0  0  0
    9.7827   -1.0073   23.6437 C   0  0  0  0  0  0  0  0  0  0  0  0
    9.8955   -2.2024   26.2623 Br  0  0  0  0  0  0  0  0  0  0  0  0
   11.0613   -4.1685   23.1623 N   0  0  0  0  0  0  0  0  0  0  0  0
    7.6868   -7.8756   15.6318 C   0  0  0  0  0  0  0  0  0  0  0  0
    5.5192   -7.7874   16.6640 C   0  0  0  0  0  0  0  0  0  0  0  0
    9.6221   -7.0196   18.7561 N   0  0  0  0  0  0  0  0  0  0  0  0
    7.3234   -7.1695   17.0306 C   0  0  0  0  0  0  0  0  0  0  0  0
   11.2167   -5.0105   21.7550 N   0  0  0  0  0  0  0  0  0  0  0  0
   10.4545   -5.4732   18.9891 C   0  0  0  0  0  0  0  0  0  0  0  0
    9.3989   -0.3514   25.0858 N   0  0  0  0  0  0  0  0  0  0  0  0
    9.9904   -3.7592   17.6858 N   0  0  0  0  0  0  0  0  0  0  0  0
   10.7046   -3.7872   21.0567 C   0  0  0  0  0  0  0  0  0  0  0  0
    8.8951   -6.9658   17.3291 C   0  0  0  0  0  0  0  0  0  0  0  0
   10.3392   -2.6575   25.4605 Br  0  0  0  0  0  0  0  0  0  0  0  0
   10.9947   -3.9663   19.6960 C   0  0  0  0  0  0  0  0  0  0  0  0
   10.8180   -2.7318   21.5539 He  0  0  0  0  0  0  0  0  0  0  0  0
   10.4845   -6.6546   18.7042 He  0  0  0  0  0  0  0  0  0  0  0  0
  1  8  1  0
  1 12  4  0
  1 14  4  0
  1 20  1  0
  2  3  4  0
  2  4  4  0
  2  5  4  0
  2 22  4  0
  3 18  4  0
  3 20  4  0
  4  6  4  0
  4 11  4  0
  4 13  2  0
  4 15  4  0
  4 16  4  0
  4 19  4  0
  4 23  1  0
  5  9  4  0
  5 10  1  0
  5 13  4  0
  5 16  2  0
  6  8  3  0
  6 12  3  0
  6 13  2  0
  6 14  4  0
  6 16  4  0
  6 17  4  0
  7  9  4  0
  7 12  1  0
  7 19  2  0
  7 20  4  0
  7 24  4  0
  8 10  4  0
  8 23  4  0
  9 14  4  0
  9 18  2  0
 10 19  3  0
 10 22  2  0
 11 23  4  0
 12 14  1  0
 12 17  3  0
 13 15  4  0
 13 16  4  0
 15 22  2  0
 16 22  1  0
 17 21  4  0
 18 19  2  0
 18 24  4  0
 20 22  4  0
 21 24  1  0
M  END
$$$$

 Created by Python create_sdf_string function

 26 30  0  0  0  0  0  0  0  0999 V2000
   10.7034   -3.1088   23.0468 C   0  0  0  0  0  0  0  0  0  0  0  0
    9.0570   -5.4882   16.9847 C   0  0  0  0  0  0  0  0  0  0  0  0
    9.8975   -4.7703   17.7743 C   0  0  0  0  0  0  0  0  0  0  0  0
    9.2802   -0.7713   26.1676 C   0  0  0  0  0  0  0  0  0  0  0  0
    6.5225   -8.7186   15.1816 N   0  0  0  0  0  0  0  0  0  0  0  0
    6.3717   -7.3483   17.5228 C   0  0  0  0  0  0  0  0  0  0  0  0
   10.7651   -3.0158   18.8041 C   0  0  0  0  0  0  0  0  0  0  0  0
   10.2850   -2.2667   24.1272 C   0  0  0  0  0  0  0  0  0  0  0  0
    5.3650   -8.6513   15.8063 C   0  0  0  0  0  0  0  0  0  0  0  0
    9.8381   -0.9859   23.8685 C   0  0  0  0  0  0  0  0  0  0  0  0
    9.7849   -2.0085   26.4303 N   0  0  0  0  0  0  0  0  0  0  0  0
   10.7508   -2.8032   21.7329 N   0  0  0  0  0  0  0  0  0  0  0  0
   10.3394   -6.6060   19.1828 C   0  0  0  0  0  0  0  0  0  0  0  0
   11.0517   -4.3727   23.1465 N   0  0  0  0  0  0  0  0  0  0  0  0
    7.6176   -8.1201   15.6674 C   0  0  0  0  0  0  0  0  0  0  0  0
    5.2595   -7.9680   17.0025 C   0  0  0  0  0  0  0  0  0  0  0  0
    9.5353   -7.3691   18.3773 C   0  0  0  0  0  0  0  0  0  0  0  0
    7.6156   -7.3928   16.8623 C   0  0  0  0  0  0  0  0  0  0  0  0
   11.1892   -4.9653   21.8523 N   0  0  0  0  0  0  0  0  0  0  0  0
   10.3963   -5.2692   18.9674 C   0  0  0  0  0  0  0  0  0  0  0  0
    9.2857   -0.2358   24.8979 N   0  0  0  0  0  0  0  0  0  0  0  0
   10.2378   -3.4810   17.5955 N   0  0  0  0  0  0  0  0  0  0  0  0
   10.9550   -3.9363   21.0295 C   0  0  0  0  0  0  0  0  0  0  0  0
    8.6839   -6.7970   17.3546 C   0  0  0  0  0  0  0  0  0  0  0  0
   10.2910   -2.7919   25.4096 C   0  0  0  0  0  0  0  0  0  0  0  0
   10.7788   -4.0935   19.7062 C   0  0  0  0  0  0  0  0  0  0  0  0
  1  8  1  0
  1 12  4  0
  1 14  4  0
  2  3  4  0
  2 24  4  0
  3 20  4  0
  3 22  4  0
  4 11  4  0
  4 21  4  0
  5  9  4  0
  5 15  4  0
  6 16  4  0
  6 18  4  0
  7 22  4  0
  7 26  4  0
  8 10  4  0
  8 25  4  0
  9 16  4  0
 10 21  4  0
 11 25  4  0
 12 23  4  0
 13 17  4  0
 13 20  4  0
 14 19  4  0
 15 18  4  0
 17 24  4  0
 18 24  1  0
 19 23  4  0
 20 26  4  0
 23 26  1  0
M  END
$$$$

 Created by Python create_sdf_string function

 26 37  0  0  0  0  0  0  0  0999 V2000
   10.7485   -3.0269   22.8672 C   0  0  0  0  0  0  0  0  0  0  0  0
    8.8428   -5.4359   17.0094 P   0  0  0  0  0  0  0  0  0  0  0  0
    9.9823   -4.7134   17.8065 C   0  0  0  0  0  0  0  0  0  0  0  0
    9.1591   -0.5031   26.1695 C   0  0  0  0  0  0  0  0  0  0  0  0
    6.6857   -8.8575   15.5325 N   0  0  0  0  0  0  0  0  0  0  0  0
    6.3938   -7.2444   17.1670 C   0  0  0  0  0  0  0  0  0  0  0  0
   10.6868   -3.1797   19.0253 C   0  0  0  0  0  0  0  0  0  0  0  0
   10.2747   -2.1577   24.2224 C   0  0  0  0  0  0  0  0  0  0  0  0
   10.0523   -0.8653   23.8314 C   0  0  0  0  0  0  0  0  0  0  0  0
    9.8743   -2.0514   26.5424 N   0  0  0  0  0  0  0  0  0  0  0  0
   10.9130   -2.7999   21.6736 N   0  0  0  0  0  0  0  0  0  0  0  0
   10.8860   -4.3030   23.1227 N   0  0  0  0  0  0  0  0  0  0  0  0
    7.6566   -7.6985   15.6018 C   0  0  0  0  0  0  0  0  0  0  0  0
    5.2292   -7.8153   16.5402 C   0  0  0  0  0  0  0  0  0  0  0  0
    9.4634   -7.4992   18.2832 C   0  0  0  0  0  0  0  0  0  0  0  0
    7.4449   -7.4811   16.9332 C   0  0  0  0  0  0  0  0  0  0  0  0
   11.1134   -5.0775   21.9558 N   0  0  0  0  0  0  0  0  0  0  0  0
   10.1313   -5.2174   19.3323 S   0  0  0  0  0  0  0  0  0  0  0  0
    9.3680   -0.3974   24.8215 N   0  0  0  0  0  0  0  0  0  0  0  0
   10.0123   -3.6756   17.2703 N   0  0  0  0  0  0  0  0  0  0  0  0
   11.1352   -3.8912   20.9361 C   0  0  0  0  0  0  0  0  0  0  0  0
    8.6604   -6.5318   17.1865 C   0  0  0  0  0  0  0  0  0  0  0  0
   10.3688   -2.8547   25.4659 C   0  0  0  0  0  0  0  0  0  0  0  0
    5.2534   -8.7321   16.0894 He  0  0  0  0  0  0  0  0  0  0  0  0
   10.2249   -6.4118   19.3591 He  0  0  0  0  0  0  0  0  0  0  0  0
   11.2208   -3.8812   19.5536 He  0  0  0  0  0  0  0  0  0  0  0  0
  1  8  1  0
  1 11  4  0
  2  3  4  0
  2 17  2  0
  2 18  3  0
  2 22  4  0
  3  5  2  0
  3 18  4  0
  4  5  4  0
  4 10  4  0
  4 19  2  0
  4 23  4  0
  5 12  2  0
  5 13  4  0
  6 14  4  0
  6 16  4  0
  6 22  4  0
  7 20  4  0
  7 21  2  0
  8  9  4  0
  8 23  4  0
  9 19  4  0
  9 20  1  0
 10 11  4  0
 11 13  4  0
 11 21  4  0
 12 14  3  0
 12 17  4  0
 13 16  4  0
 13 20  2  0
 13 21  3  0
 15 22  4  0
 15 23  4  0
 16 21  3  0
 16 22  1  0
 17 21  4  0
 17 23  4  0
M  END
$$$$

 Created by Python create_sdf_string function

 26 30  0  0  0  0  0  0  0  0999 V2000
   10.7040   -3.0623   23.0602 C   0  0  0  0  0  0  0  0  0  0  0  0
    8.9973   -5.4114   17.0081 C   0  0  0  0  0  0  0  0  0  0  0  0
    9.8300   -4.7161   17.7965 C   0  0  0  0  0  0  0  0  0  0  0  0
    9.2779   -0.7139   26.1611 C   0  0  0  0  0  0  0  0  0  0  0  0
    6.5787   -8.8815   15.2630 N   0  0  0  0  0  0  0  0  0  0  0  0
    6.2767   -7.1671   17.2975 C   0  0  0  0  0  0  0  0  0  0  0  0
   10.8433   -3.0265   18.8066 C   0  0  0  0  0  0  0  0  0  0  0  0
   10.3017   -2.2279   24.1275 C   0  0  0  0  0  0  0  0  0  0  0  0
    5.4021   -8.7380   15.7844 C   0  0  0  0  0  0  0  0  0  0  0  0
    9.8898   -0.9583   23.8573 C   0  0  0  0  0  0  0  0  0  0  0  0
    9.7422   -1.9566   26.4804 N   0  0  0  0  0  0  0  0  0  0  0  0
   10.8350   -2.7646   21.7522 N   0  0  0  0  0  0  0  0  0  0  0  0
   10.2403   -6.5416   19.2762 C   0  0  0  0  0  0  0  0  0  0  0  0
   10.9430   -4.3658   23.1767 N   0  0  0  0  0  0  0  0  0  0  0  0
    7.6448   -8.2240   15.7061 C   0  0  0  0  0  0  0  0  0  0  0  0
    5.1926   -7.8817   16.8129 C   0  0  0  0  0  0  0  0  0  0  0  0
    9.3865   -7.3166   18.4408 C   0  0  0  0  0  0  0  0  0  0  0  0
    7.5579   -7.3343   16.7953 C   0  0  0  0  0  0  0  0  0  0  0  0
   11.1399   -4.9689   21.8565 N   0  0  0  0  0  0  0  0  0  0  0  0
   10.3130   -5.2246   18.9961 C   0  0  0  0  0  0  0  0  0  0  0  0
    9.3533   -0.1684   24.9132 N   0  0  0  0  0  0  0  0  0  0  0  0
   10.2230   -3.4296   17.6353 N   0  0  0  0  0  0  0  0  0  0  0  0
   10.9312   -3.9034   21.0242 C   0  0  0  0  0  0  0  0  0  0  0  0
    8.6134   -6.7185   17.3548 C   0  0  0  0  0  0  0  0  0  0  0  0
   10.2707   -2.7144   25.4102 C   0  0  0  0  0  0  0  0  0  0  0  0
   10.7608   -4.0439   19.7006 C   0  0  0  0  0  0  0  0  0  0  0  0
  1  8  1  0
  1 12  4  0
  1 14  4  0
  2  3  4  0
  2 24  4  0
  3 20  4  0
  3 22  4  0
  4 11  4  0
  4 21  4  0
  5  9  4  0
  5 15  4  0
  6 16  4  0
  6 18  4  0
  7 22  4  0
  7 26  4  0
  8 10  4  0
  8 25  4  0
  9 16  4  0
 10 21  4  0
 11 25  4  0
 12 23  4  0
 13 17  4  0
 13 20  4  0
 14 19  4  0
 15 18  4  0
 17 24  4  0
 18 24  1  0
 19 23  4  0
 20 26  4  0
 23 26  1  0
M  END
$$$$

 Created by Python create_sdf_string function

 26 47  0  0  0  0  0  0  0  0999 V2000
    9.1304   -5.4788   16.9801 C   0  0  0  0  0  0  0  0  0  0  0  0
    9.9439   -4.7930   17.6046 C   0  0  0  0  0  0  0  0  0  0  0  0
    9.4739   -0.9439   26.2398 C   0  0  0  0  0  0  0  0  0  0  0  0
    6.6834   -8.9516   15.3062 N   0  0  0  0  0  0  0  0  0  0  0  0
    6.3427   -7.2241   17.3454 C   0  0  0  0  0  0  0  0  0  0  0  0
   11.1764   -3.0250   19.0970 C   0  0  0  0  0  0  0  0  0  0  0  0
   10.3564   -2.2791   24.4139 C   0  0  0  0  0  0  0  0  0  0  0  0
    5.5215   -8.6098   15.6860 C   0  0  0  0  0  0  0  0  0  0  0  0
    9.6969   -1.0544   23.7290 C   0  0  0  0  0  0  0  0  0  0  0  0
    9.8451   -2.0758   26.3951 N   0  0  0  0  0  0  0  0  0  0  0  0
   10.8275   -2.7087   21.5990 C   0  0  0  0  0  0  0  0  0  0  0  0
   10.2717   -6.5695   19.1980 C   0  0  0  0  0  0  0  0  0  0  0  0
   10.7179   -4.3172   23.0471 N   0  0  0  0  0  0  0  0  0  0  0  0
    7.3788   -8.7366   15.3763 C   0  0  0  0  0  0  0  0  0  0  0  0
    5.4685   -7.4555   17.0105 C   0  0  0  0  0  0  0  0  0  0  0  0
    9.4775   -7.0332   18.3160 S   0  0  0  0  0  0  0  0  0  0  0  0
    7.4487   -7.3394   17.0658 C   0  0  0  0  0  0  0  0  0  0  0  0
   11.0654   -5.0050   22.0186 N   0  0  0  0  0  0  0  0  0  0  0  0
   10.2837   -4.8878   18.9381 C   0  0  0  0  0  0  0  0  0  0  0  0
    9.4952    0.1461   24.9706 N   0  0  0  0  0  0  0  0  0  0  0  0
   10.2456   -3.1630   17.5977 N   0  0  0  0  0  0  0  0  0  0  0  0
   11.0197   -4.0958   21.2909 C   0  0  0  0  0  0  0  0  0  0  0  0
    8.5360   -6.5075   17.1864 C   0  0  0  0  0  0  0  0  0  0  0  0
   10.1382   -2.6794   25.3050 C   0  0  0  0  0  0  0  0  0  0  0  0
   11.2250   -4.1000   19.6529 C   0  0  0  0  0  0  0  0  0  0  0  0
   10.8436   -3.0805   23.1038 He  0  0  0  0  0  0  0  0  0  0  0  0
  1 23  3  0
  2  5  4  0
  2 16  3  0
  2 19  4  0
  2 21  4  0
  3 10  4  0
  3 11  2  0
  3 20  4  0
  4  6  3  0
  4  8  4  0
  4 14  4  0
  4 16  2  0
  5  9  3  0
  5 15  4  0
  5 17  4  0
  5 21  1  0
  6  9  1  0
  6 20  3  0
  6 21  4  0
  6 25  4  0
  7  9  4  0
  8 15  4  0
  8 22  2  0
  8 25  1  0
  9 16  1  0
  9 20  4  0
  9 23  2  0
 10 15  1  0
 10 18  2  0
 10 19  4  0
 10 24  4  0
 11 22  4  0
 12 15  3  0
 12 16  4  0
 12 19  4  0
 13 16  2  0
 13 18  4  0
 14 17  4  0
 15 17  2  0
 15 21  2  0
 16 22  1  0
 16 23  4  0
 17 23  1  0
 18 21  1  0
 18 22  4  0
 19 25  4  0
 20 23  1  0
M  END
$$$$

 Created by Python create_sdf_string function

 26 30  0  0  0  0  0  0  0  0999 V2000
   10.6306   -3.1049   23.1214 C   0  0  0  0  0  0  0  0  0  0  0  0
    9.0936   -5.3770   16.9303 C   0  0  0  0  0  0  0  0  0  0  0  0
    9.9545   -4.6419   17.7573 C   0  0  0  0  0  0  0  0  0  0  0  0
    9.3836   -0.6922   26.2561 C   0  0  0  0  0  0  0  0  0  0  0  0
    6.5745   -8.9062   15.2954 N   0  0  0  0  0  0  0  0  0  0  0  0
    6.3651   -7.1389   17.3292 C   0  0  0  0  0  0  0  0  0  0  0  0
   10.9915   -2.9758   18.8431 C   0  0  0  0  0  0  0  0  0  0  0  0
   10.2213   -2.2772   24.1807 C   0  0  0  0  0  0  0  0  0  0  0  0
    5.3805   -8.6468   15.7705 C   0  0  0  0  0  0  0  0  0  0  0  0
    9.8724   -0.9492   23.9313 C   0  0  0  0  0  0  0  0  0  0  0  0
    9.7415   -1.9759   26.5255 N   0  0  0  0  0  0  0  0  0  0  0  0
   10.8576   -2.7811   21.8034 C   0  0  0  0  0  0  0  0  0  0  0  0
   10.2380   -6.4786   19.2373 C   0  0  0  0  0  0  0  0  0  0  0  0
   10.8591   -4.4171   23.2271 N   0  0  0  0  0  0  0  0  0  0  0  0
    7.6733   -8.2991   15.7704 C   0  0  0  0  0  0  0  0  0  0  0  0
    5.2107   -7.7706   16.8250 C   0  0  0  0  0  0  0  0  0  0  0  0
    9.4233   -7.2743   18.3898 C   0  0  0  0  0  0  0  0  0  0  0  0
    7.6259   -7.3453   16.7938 C   0  0  0  0  0  0  0  0  0  0  0  0
   11.0636   -4.9729   21.9617 N   0  0  0  0  0  0  0  0  0  0  0  0
   10.3589   -5.1601   18.9697 C   0  0  0  0  0  0  0  0  0  0  0  0
    9.3987   -0.1458   25.0072 N   0  0  0  0  0  0  0  0  0  0  0  0
   10.4244   -3.3684   17.6080 N   0  0  0  0  0  0  0  0  0  0  0  0
   10.9676   -3.9197   21.0945 C   0  0  0  0  0  0  0  0  0  0  0  0
    8.6867   -6.7007   17.2981 C   0  0  0  0  0  0  0  0  0  0  0  0
   10.1688   -2.7815   25.4780 C   0  0  0  0  0  0  0  0  0  0  0  0
   10.8403   -4.0364   19.7196 C   0  0  0  0  0  0  0  0  0  0  0  0
  1  8  1  0
  1 12  4  0
  1 14  4  0
  2  3  4  0
  2 24  4  0
  3 20  4  0
  3 22  4  0
  4 11  4  0
  4 21  4  0
  5  9  4  0
  5 15  4  0
  6 16  4  0
  6 18  4  0
  7 22  4  0
  7 26  4  0
  8 10  4  0
  8 25  4  0
  9 16  4  0
 10 21  4  0
 11 25  4  0
 12 23  4  0
 13 17  4  0
 13 20  4  0
 14 19  4  0
 15 18  4  0
 17 24  4  0
 18 24  1  0
 19 23  4  0
 20 26  4  0
 23 26  1  0
M  END
$$$$

 Created by Python create_sdf_string function

 26 42  0  0  0  0  0  0  0  0999 V2000
   10.6922   -3.0324   23.3144 C   0  0  0  0  0  0  0  0  0  0  0  0
    8.7048   -5.1919   17.3769 C   0  0  0  0  0  0  0  0  0  0  0  0
   10.0159   -4.7379   17.8046 N   0  0  0  0  0  0  0  0  0  0  0  0
    9.3869   -0.6613   25.9996 C   0  0  0  0  0  0  0  0  0  0  0  0
    6.8741   -9.0126   15.5811 I   0  0  0  0  0  0  0  0  0  0  0  0
    6.2640   -7.1777   17.1087 C   0  0  0  0  0  0  0  0  0  0  0  0
   10.2579   -2.2664   24.0911 N   0  0  0  0  0  0  0  0  0  0  0  0
    5.5780   -8.6931   15.5608 C   0  0  0  0  0  0  0  0  0  0  0  0
    9.6949   -0.9036   23.9129 C   0  0  0  0  0  0  0  0  0  0  0  0
    9.8088   -1.9142   26.3249 N   0  0  0  0  0  0  0  0  0  0  0  0
   10.7807   -2.6792   21.9268 C   0  0  0  0  0  0  0  0  0  0  0  0
   10.1575   -6.4509   19.3772 C   0  0  0  0  0  0  0  0  0  0  0  0
   10.7626   -4.4476   23.1984 S   0  0  0  0  0  0  0  0  0  0  0  0
    7.6714   -8.3068   15.7411 C   0  0  0  0  0  0  0  0  0  0  0  0
    5.2616   -7.7795   16.8168 C   0  0  0  0  0  0  0  0  0  0  0  0
    9.5316   -7.0178   18.3385 C   0  0  0  0  0  0  0  0  0  0  0  0
    7.6191   -7.5625   16.8920 C   0  0  0  0  0  0  0  0  0  0  0  0
   11.0544   -4.9612   21.9092 N   0  0  0  0  0  0  0  0  0  0  0  0
   10.1870   -5.0649   19.1786 C   0  0  0  0  0  0  0  0  0  0  0  0
    9.2195   -0.0888   24.8176 N   0  0  0  0  0  0  0  0  0  0  0  0
   10.4078   -3.1079   17.7331 N   0  0  0  0  0  0  0  0  0  0  0  0
   11.0686   -4.0678   21.1373 C   0  0  0  0  0  0  0  0  0  0  0  0
    8.8897   -6.8064   17.3876 C   0  0  0  0  0  0  0  0  0  0  0  0
   10.2478   -2.8942   25.5485 C   0  0  0  0  0  0  0  0  0  0  0  0
   10.8837   -4.1701   19.5802 C   0  0  0  0  0  0  0  0  0  0  0  0
   11.1878   -2.8939   18.9402 He  0  0  0  0  0  0  0  0  0  0  0  0
  1 11  4  0
  1 12  4  0
  1 13  1  0
  2  3  2  0
  2 13  1  0
  2 23  4  0
  3 16  1  0
  3 21  1  0
  4 10  3  0
  4 20  4  0
  5  8  4  0
  5 14  4  0
  5 19  4  0
  6 15  4  0
  6 17  4  0
  6 20  1  0
  7  9  4  0
  7 11  4  0
  7 24  4  0
  8 15  4  0
  9 20  4  0
  9 25  3  0
 10 21  4  0
 10 24  4  0
 11 12  3  0
 11 15  2  0
 11 22  4  0
 12 13  2  0
 12 16  4  0
 12 17  3  0
 12 19  4  0
 12 20  1  0
 12 25  2  0
 13 18  4  0
 14 17  4  0
 16 23  3  0
 17 18  2  0
 17 23  1  0
 18 22  4  0
 19 20  4  0
 19 25  4  0
 22 25  1  0
M  END
$$$$

 Created by Python create_sdf_string function

 26 30  0  0  0  0  0  0  0  0999 V2000
   10.6228   -3.0954   23.1858 C   0  0  0  0  0  0  0  0  0  0  0  0
    8.9926   -5.3220   17.1250 C   0  0  0  0  0  0  0  0  0  0  0  0
    9.8533   -4.5925   17.8920 C   0  0  0  0  0  0  0  0  0  0  0  0
    9.3075   -0.6428   26.1441 C   0  0  0  0  0  0  0  0  0  0  0  0
    6.7874   -9.0148   15.3397 N   0  0  0  0  0  0  0  0  0  0  0  0
    6.3427   -7.1290   17.2111 C   0  0  0  0  0  0  0  0  0  0  0  0
   11.0190   -2.9647   18.9094 C   0  0  0  0  0  0  0  0  0  0  0  0
   10.1969   -2.2336   24.1899 C   0  0  0  0  0  0  0  0  0  0  0  0
    5.5479   -8.7688   15.7268 C   0  0  0  0  0  0  0  0  0  0  0  0
    9.7493   -0.9444   23.8708 C   0  0  0  0  0  0  0  0  0  0  0  0
    9.7462   -1.8483   26.4701 N   0  0  0  0  0  0  0  0  0  0  0  0
   10.8318   -2.7534   21.8936 C   0  0  0  0  0  0  0  0  0  0  0  0
   10.2556   -6.4611   19.3109 C   0  0  0  0  0  0  0  0  0  0  0  0
   10.8685   -4.4700   23.3119 O   0  0  0  0  0  0  0  0  0  0  0  0
    7.8499   -8.3715   15.8904 C   0  0  0  0  0  0  0  0  0  0  0  0
    5.2840   -7.8226   16.6670 C   0  0  0  0  0  0  0  0  0  0  0  0
    9.4440   -7.2504   18.4801 C   0  0  0  0  0  0  0  0  0  0  0  0
    7.6514   -7.3608   16.8669 C   0  0  0  0  0  0  0  0  0  0  0  0
   11.0553   -4.9826   21.9868 N   0  0  0  0  0  0  0  0  0  0  0  0
   10.3307   -5.1150   19.0786 C   0  0  0  0  0  0  0  0  0  0  0  0
    9.2799   -0.1576   24.8895 N   0  0  0  0  0  0  0  0  0  0  0  0
   10.3694   -3.3269   17.7159 N   0  0  0  0  0  0  0  0  0  0  0  0
   10.9372   -3.8863   21.1659 C   0  0  0  0  0  0  0  0  0  0  0  0
    8.6629   -6.6731   17.4436 C   0  0  0  0  0  0  0  0  0  0  0  0
   10.1994   -2.6959   25.4974 C   0  0  0  0  0  0  0  0  0  0  0  0
   10.8368   -4.0156   19.8000 C   0  0  0  0  0  0  0  0  0  0  0  0
  1  8  1  0
  1 12  4  0
  1 14  4  0
  2  3  4  0
  2 24  4  0
  3 20  4  0
  3 22  4  0
  4 11  4  0
  4 21  4  0
  5  9  4  0
  5 15  4  0
  6 16  4  0
  6 18  4  0
  7 22  4  0
  7 26  4  0
  8 10  4  0
  8 25  4  0
  9 16  4  0
 10 21  4  0
 11 25  4  0
 12 23  4  0
 13 17  4  0
 13 20  4  0
 14 19  4  0
 15 18  4  0
 17 24  4  0
 18 24  1  0
 19 23  4  0
 20 26  4  0
 23 26  1  0
M  END
$$$$

 Created by Python create_sdf_string function

 26 42  0  0  0  0  0  0  0  0999 V2000
   10.6085   -3.0440   23.1213 C   0  0  0  0  0  0  0  0  0  0  0  0
    9.2012   -5.4810   17.2103 C   0  0  0  0  0  0  0  0  0  0  0  0
    9.9990   -4.4952   17.8136 C   0  0  0  0  0  0  0  0  0  0  0  0
    9.3835   -0.5250   26.0356 C   0  0  0  0  0  0  0  0  0  0  0  0
    6.7902   -8.9275   15.3796 N   0  0  0  0  0  0  0  0  0  0  0  0
    6.1391   -7.1571   17.1626 C   0  0  0  0  0  0  0  0  0  0  0  0
   11.0609   -2.8893   18.8772 P   0  0  0  0  0  0  0  0  0  0  0  0
   10.3294   -2.1243   24.2950 C   0  0  0  0  0  0  0  0  0  0  0  0
    5.5098   -8.7980   16.0543 C   0  0  0  0  0  0  0  0  0  0  0  0
    9.6887   -1.0362   23.8350 C   0  0  0  0  0  0  0  0  0  0  0  0
    9.8709   -1.9615   26.5170 N   0  0  0  0  0  0  0  0  0  0  0  0
   10.7740   -2.6627   22.0985 C   0  0  0  0  0  0  0  0  0  0  0  0
    9.9352   -6.6686   19.0115 C   0  0  0  0  0  0  0  0  0  0  0  0
   10.8615   -4.3646   23.4207 O   0  0  0  0  0  0  0  0  0  0  0  0
    8.0157   -8.3912   15.8074 C   0  0  0  0  0  0  0  0  0  0  0  0
    5.3491   -7.7694   16.7774 C   0  0  0  0  0  0  0  0  0  0  0  0
    9.3890   -6.8826   18.8471 C   0  0  0  0  0  0  0  0  0  0  0  0
    8.1408   -7.3600   16.7336 C   0  0  0  0  0  0  0  0  0  0  0  0
   10.9780   -4.9221   22.1222 N   0  0  0  0  0  0  0  0  0  0  0  0
    9.0807   -0.2040   25.0418 N   0  0  0  0  0  0  0  0  0  0  0  0
   10.2940   -2.9375   17.4029 N   0  0  0  0  0  0  0  0  0  0  0  0
   10.8750   -3.6245   21.0573 C   0  0  0  0  0  0  0  0  0  0  0  0
    8.6666   -6.6824   17.2998 C   0  0  0  0  0  0  0  0  0  0  0  0
   10.1925   -2.6178   25.5621 C   0  0  0  0  0  0  0  0  0  0  0  0
   10.5441   -5.2148   19.1780 He  0  0  0  0  0  0  0  0  0  0  0  0
   10.8480   -4.2409   19.9977 He  0  0  0  0  0  0  0  0  0  0  0  0
  1  6  2  0
  1  8  1  0
  1 14  4  0
  1 15  2  0
  1 16  1  0
  1 17  3  0
  1 22  4  0
  2  3  4  0
  2 16  4  0
  2 23  4  0
  3  9  2  0
  3 21  4  0
  4 11  4  0
  4 20  4  0
  4 21  4  0
  5 15  4  0
  6 14  2  0
  6 15  1  0
  6 16  4  0
  6 17  1  0
  6 18  4  0
  6 21  4  0
  7 20  3  0
  7 21  4  0
  8 10  4  0
  8 24  4  0
  9 10  3  0
  9 16  4  0
 10 11  2  0
 10 20  4  0
 11 21  2  0
 11 24  4  0
 12 22  4  0
 12 23  4  0
 13 17  4  0
 14 16  1  0
 14 19  4  0
 14 20  1  0
 15 18  4  0
 17 23  4  0
 18 23  1  0
 19 22  4  0
M  END
$$$$

 Created by Python create_sdf_string function

 26 30  0  0  0  0  0  0  0  0999 V2000
   10.5873   -3.0281   23.2463 C   0  0  0  0  0  0  0  0  0  0  0  0
    9.1346   -5.3653   17.0278 C   0  0  0  0  0  0  0  0  0  0  0  0
    9.9671   -4.5943   17.8421 C   0  0  0  0  0  0  0  0  0  0  0  0
    9.2569   -0.5708   26.2770 C   0  0  0  0  0  0  0  0  0  0  0  0
    6.8203   -9.0536   15.4149 N   0  0  0  0  0  0  0  0  0  0  0  0
    6.3829   -7.1236   17.2248 C   0  0  0  0  0  0  0  0  0  0  0  0
   10.9654   -2.8920   18.9431 C   0  0  0  0  0  0  0  0  0  0  0  0
   10.1675   -2.1891   24.2801 C   0  0  0  0  0  0  0  0  0  0  0  0
    5.5962   -8.8464   15.8028 C   0  0  0  0  0  0  0  0  0  0  0  0
    9.6639   -0.9086   23.9662 C   0  0  0  0  0  0  0  0  0  0  0  0
    9.7875   -1.7663   26.6191 N   0  0  0  0  0  0  0  0  0  0  0  0
   10.7524   -2.7125   21.9096 C   0  0  0  0  0  0  0  0  0  0  0  0
   10.1853   -6.3718   19.3787 C   0  0  0  0  0  0  0  0  0  0  0  0
   10.8452   -4.3236   23.3781 O   0  0  0  0  0  0  0  0  0  0  0  0
    7.8464   -8.3156   15.8766 C   0  0  0  0  0  0  0  0  0  0  0  0
    5.3218   -7.8675   16.7326 C   0  0  0  0  0  0  0  0  0  0  0  0
    9.4284   -7.1777   18.5394 C   0  0  0  0  0  0  0  0  0  0  0  0
    7.6852   -7.3159   16.8437 C   0  0  0  0  0  0  0  0  0  0  0  0
   11.0119   -4.8830   22.0713 N   0  0  0  0  0  0  0  0  0  0  0  0
   10.3288   -5.0897   19.0882 C   0  0  0  0  0  0  0  0  0  0  0  0
    9.1866   -0.1117   25.0083 N   0  0  0  0  0  0  0  0  0  0  0  0
   10.4502   -3.3205   17.7032 N   0  0  0  0  0  0  0  0  0  0  0  0
   10.9018   -3.8469   21.2018 C   0  0  0  0  0  0  0  0  0  0  0  0
    8.7183   -6.6642   17.4066 C   0  0  0  0  0  0  0  0  0  0  0  0
   10.2443   -2.6133   25.6165 C   0  0  0  0  0  0  0  0  0  0  0  0
   10.8140   -3.9681   19.8293 C   0  0  0  0  0  0  0  0  0  0  0  0
  1  8  1  0
  1 12  4  0
  1 14  4  0
  2  3  4  0
  2 24  4  0
  3 20  4  0
  3 22  4  0
  4 11  4  0
  4 21  4  0
  5  9  4  0
  5 15  4  0
  6 16  4  0
  6 18  4  0
  7 22  4  0
  7 26  4  0
  8 10  4  0
  8 25  4  0
  9 16  4  0
 10 21  4  0
 11 25  4  0
 12 23  4  0
 13 17  4  0
 13 20  4  0
 14 19  4  0
 15 18  4  0
 17 24  4  0
 18 24  1  0
 19 23  4  0
 20 26  4  0
 23 26  1  0
M  END
$$$$

 Created by Python create_sdf_string function

 26 50  0  0  0  0  0  0  0  0999 V2000
   10.5737   -3.0002   23.2376 C   0  0  0  0  0  0  0  0  0  0  0  0
    9.2499   -5.3961   16.9752 C   0  0  0  0  0  0  0  0  0  0  0  0
    9.8479   -4.4467   17.9168 C   0  0  0  0  0  0  0  0  0  0  0  0
    9.1721   -0.5990   26.3931 C   0  0  0  0  0  0  0  0  0  0  0  0
    7.0089   -9.0698   15.4409 N   0  0  0  0  0  0  0  0  0  0  0  0
    5.8929   -7.0399   17.1089 O   0  0  0  0  0  0  0  0  0  0  0  0
   10.8084   -3.1124   18.8739 C   0  0  0  0  0  0  0  0  0  0  0  0
   10.1618   -2.4263   24.3638 C   0  0  0  0  0  0  0  0  0  0  0  0
    5.3686   -8.7937   16.1726 C   0  0  0  0  0  0  0  0  0  0  0  0
    9.7103   -0.6179   23.8614 C   0  0  0  0  0  0  0  0  0  0  0  0
    9.7728   -1.5404   26.7448 O   0  0  0  0  0  0  0  0  0  0  0  0
   10.6780   -2.7453   22.0141 C   0  0  0  0  0  0  0  0  0  0  0  0
   10.3573   -6.5553   19.4377 C   0  0  0  0  0  0  0  0  0  0  0  0
   10.7291   -4.3418   23.1564 O   0  0  0  0  0  0  0  0  0  0  0  0
    7.6747   -8.2828   15.9111 C   0  0  0  0  0  0  0  0  0  0  0  0
    5.1790   -8.0659   16.5194 C   0  0  0  0  0  0  0  0  0  0  0  0
    9.4769   -7.0612   18.3292 C   0  0  0  0  0  0  0  0  0  0  0  0
    8.0207   -7.2292   16.8643 C   0  0  0  0  0  0  0  0  0  0  0  0
   10.9643   -4.9009   22.0301 N   0  0  0  0  0  0  0  0  0  0  0  0
   10.4318   -5.0736   19.1516 C   0  0  0  0  0  0  0  0  0  0  0  0
    9.1838   -0.0340   25.0334 N   0  0  0  0  0  0  0  0  0  0  0  0
   10.5915   -3.1690   17.8354 N   0  0  0  0  0  0  0  0  0  0  0  0
   11.0707   -4.0209   21.4275 C   0  0  0  0  0  0  0  0  0  0  0  0
    8.5615   -6.7275   17.4615 C   0  0  0  0  0  0  0  0  0  0  0  0
   10.2860   -2.4658   25.6575 C   0  0  0  0  0  0  0  0  0  0  0  0
   10.9484   -4.1086   19.8947 F   0  0  0  0  0  0  0  0  0  0  0  0
  1  4  4  0
  1  7  4  0
  1  8  4  0
  1  9  4  0
  1 12  4  0
  2  3  4  0
  2  7  4  0
  2 15  4  0
  2 24  4  0
  3  7  2  0
  3 11  3  0
  3 20  4  0
  3 22  4  0
  4  9  2  0
  4 11  4  0
  4 21  4  0
  5 12  3  0
  5 15  4  0
  5 19  1  0
  6 13  4  0
  6 14  4  0
  6 16  4  0
  6 18  4  0
  7 22  4  0
  7 26  4  0
  8 10  4  0
  8 25  4  0
  9 16  4  0
  9 19  3  0
  9 21  3  0
 10 15  4  0
 10 21  4  0
 10 26  4  0
 11 14  4  0
 11 15  4  0
 11 22  2  0
 11 25  4  0
 12 23  4  0
 12 24  4  0
 13 17  4  0
 13 20  4  0
 14 19  4  0
 14 24  3  0
 15 18  4  0
 15 26  2  0
 17 24  3  0
 18 24  1  0
 19 23  4  0
 20 26  4  0
 23 26  1  0
M  END
$$$$

 Created by Python create_sdf_string function

 26 30  0  0  0  0  0  0  0  0999 V2000
   10.5616   -3.0432   23.2825 C   0  0  0  0  0  0  0  0  0  0  0  0
    9.0876   -5.3324   17.0787 C   0  0  0  0  0  0  0  0  0  0  0  0
    9.9639   -4.6097   17.8905 C   0  0  0  0  0  0  0  0  0  0  0  0
    9.2206   -0.4699   26.3310 C   0  0  0  0  0  0  0  0  0  0  0  0
    6.8143   -9.1283   15.4962 N   0  0  0  0  0  0  0  0  0  0  0  0
    6.3268   -7.1048   17.1252 C   0  0  0  0  0  0  0  0  0  0  0  0
   10.9443   -2.9559   19.0081 C   0  0  0  0  0  0  0  0  0  0  0  0
   10.1661   -2.1444   24.3124 C   0  0  0  0  0  0  0  0  0  0  0  0
    5.5828   -8.9193   15.8591 C   0  0  0  0  0  0  0  0  0  0  0  0
    9.6699   -0.8663   24.0004 C   0  0  0  0  0  0  0  0  0  0  0  0
    9.7544   -1.6996   26.6534 C   0  0  0  0  0  0  0  0  0  0  0  0
   10.7314   -2.7531   21.9668 C   0  0  0  0  0  0  0  0  0  0  0  0
   10.2298   -6.4751   19.3724 C   0  0  0  0  0  0  0  0  0  0  0  0
   10.7682   -4.3563   23.4199 O   0  0  0  0  0  0  0  0  0  0  0  0
    7.8100   -8.3758   15.9309 C   0  0  0  0  0  0  0  0  0  0  0  0
    5.2783   -7.8777   16.6937 C   0  0  0  0  0  0  0  0  0  0  0  0
    9.4168   -7.2261   18.4833 C   0  0  0  0  0  0  0  0  0  0  0  0
    7.6407   -7.3358   16.8163 C   0  0  0  0  0  0  0  0  0  0  0  0
   10.9915   -4.9176   22.1370 N   0  0  0  0  0  0  0  0  0  0  0  0
   10.3601   -5.1533   19.1096 C   0  0  0  0  0  0  0  0  0  0  0  0
    9.1642   -0.0329   25.0176 N   0  0  0  0  0  0  0  0  0  0  0  0
   10.4233   -3.3185   17.7923 N   0  0  0  0  0  0  0  0  0  0  0  0
   10.8505   -3.8948   21.2612 C   0  0  0  0  0  0  0  0  0  0  0  0
    8.6834   -6.6588   17.4052 C   0  0  0  0  0  0  0  0  0  0  0  0
   10.2218   -2.5361   25.6390 C   0  0  0  0  0  0  0  0  0  0  0  0
   10.7757   -4.0272   19.8918 C   0  0  0  0  0  0  0  0  0  0  0  0
  1  8  1  0
  1 12  4  0
  1 14  4  0
  2  3  4  0
  2 24  4  0
  3 20  4  0
  3 22  4  0
  4 11  4  0
  4 21  4  0
  5  9  4  0
  5 15  4  0
  6 16  4  0
  6 18  4  0
  7 22  4  0
  7 26  4  0
  8 10  4  0
  8 25  4  0
  9 16  4  0
 10 21  4  0
 11 25  4  0
 12 23  4  0
 13 17  4  0
 13 20  4  0
 14 19  4  0
 15 18  4  0
 17 24  4  0
 18 24  1  0
 19 23  4  0
 20 26  4  0
 23 26  1  0
M  END
$$$$

 Created by Python create_sdf_string function

 26 37  0  0  0  0  0  0  0  0999 V2000
   10.5637   -3.1645   23.2509 C   0  0  0  0  0  0  0  0  0  0  0  0
    9.1309   -5.5764   17.2528 C   0  0  0  0  0  0  0  0  0  0  0  0
    9.9347   -4.7224   17.7928 C   0  0  0  0  0  0  0  0  0  0  0  0
    9.1578   -0.5008   26.3112 C   0  0  0  0  0  0  0  0  0  0  0  0
    6.0562   -6.9046   17.0453 C   0  0  0  0  0  0  0  0  0  0  0  0
   10.9789   -2.9106   18.7594 C   0  0  0  0  0  0  0  0  0  0  0  0
   10.2110   -2.2005   24.3467 C   0  0  0  0  0  0  0  0  0  0  0  0
    5.5389   -8.6909   15.8077 C   0  0  0  0  0  0  0  0  0  0  0  0
    9.7281   -0.7689   24.2292 C   0  0  0  0  0  0  0  0  0  0  0  0
    9.6346   -1.5480   26.7214 C   0  0  0  0  0  0  0  0  0  0  0  0
   10.6119   -2.5556   22.2013 C   0  0  0  0  0  0  0  0  0  0  0  0
   10.3663   -6.4754   19.5326 C   0  0  0  0  0  0  0  0  0  0  0  0
   10.6409   -4.3949   23.5138 O   0  0  0  0  0  0  0  0  0  0  0  0
    7.9317   -8.3393   15.9000 C   0  0  0  0  0  0  0  0  0  0  0  0
    5.5210   -8.0759   16.6603 C   0  0  0  0  0  0  0  0  0  0  0  0
    9.5139   -7.1673   18.0678 C   0  0  0  0  0  0  0  0  0  0  0  0
    7.5345   -7.4712   16.9200 C   0  0  0  0  0  0  0  0  0  0  0  0
   11.0762   -4.9518   22.1063 N   0  0  0  0  0  0  0  0  0  0  0  0
   10.0672   -4.7843   19.3594 C   0  0  0  0  0  0  0  0  0  0  0  0
    9.1695   -0.1350   24.8493 N   0  0  0  0  0  0  0  0  0  0  0  0
   10.9972   -3.9266   21.2497 C   0  0  0  0  0  0  0  0  0  0  0  0
    8.6535   -6.6221   17.3918 C   0  0  0  0  0  0  0  0  0  0  0  0
   10.1304   -2.5620   25.6016 C   0  0  0  0  0  0  0  0  0  0  0  0
    6.7919   -9.0242   15.6188 He  0  0  0  0  0  0  0  0  0  0  0  0
   10.3343   -3.1274   18.0653 He  0  0  0  0  0  0  0  0  0  0  0  0
   10.8440   -3.8905   20.1050 He  0  0  0  0  0  0  0  0  0  0  0  0
  1  7  1  0
  1  9  2  0
  1 11  4  0
  1 13  4  0
  1 23  2  0
  2  3  4  0
  2 13  3  0
  2 21  3  0
  2 22  4  0
  3  5  4  0
  3 19  4  0
  4 10  4  0
  4 20  4  0
  5 15  4  0
  5 17  4  0
  7  9  4  0
  7 22  1  0
  7 23  4  0
  8 15  4  0
  8 19  2  0
  9 20  4  0
 10 23  4  0
 11 13  1  0
 11 14  1  0
 11 20  3  0
 11 21  4  0
 12 16  4  0
 12 19  4  0
 13 15  4  0
 13 18  4  0
 14 17  4  0
 15 16  2  0
 16 22  4  0
 17 22  1  0
 18 21  4  0
 18 23  4  0
 19 21  3  0
M  END
$$$$

 Created by Python create_sdf_string function

 26 30  0  0  0  0  0  0  0  0999 V2000
   10.5177   -3.0153   23.3693 C   0  0  0  0  0  0  0  0  0  0  0  0
    9.0129   -5.3295   17.1425 C   0  0  0  0  0  0  0  0  0  0  0  0
    9.8691   -4.5935   17.9494 C   0  0  0  0  0  0  0  0  0  0  0  0
    9.1269   -0.4124   26.3225 C   0  0  0  0  0  0  0  0  0  0  0  0
    6.8334   -9.1057   15.4430 N   0  0  0  0  0  0  0  0  0  0  0  0
    6.3544   -7.0994   17.1799 C   0  0  0  0  0  0  0  0  0  0  0  0
   10.8888   -2.8838   19.0478 C   0  0  0  0  0  0  0  0  0  0  0  0
   10.1019   -2.1293   24.3913 C   0  0  0  0  0  0  0  0  0  0  0  0
    5.5750   -8.8568   15.7993 C   0  0  0  0  0  0  0  0  0  0  0  0
    9.6761   -0.8376   24.0546 C   0  0  0  0  0  0  0  0  0  0  0  0
    9.6071   -1.6745   26.7048 C   0  0  0  0  0  0  0  0  0  0  0  0
   10.6710   -2.7198   22.0363 C   0  0  0  0  0  0  0  0  0  0  0  0
   10.2351   -6.4316   19.3835 C   0  0  0  0  0  0  0  0  0  0  0  0
   10.7719   -4.3021   23.4801 O   0  0  0  0  0  0  0  0  0  0  0  0
    7.8817   -8.3957   15.9355 C   0  0  0  0  0  0  0  0  0  0  0  0
    5.3050   -7.8237   16.6483 C   0  0  0  0  0  0  0  0  0  0  0  0
    9.4626   -7.2134   18.5010 C   0  0  0  0  0  0  0  0  0  0  0  0
    7.6722   -7.3679   16.8537 C   0  0  0  0  0  0  0  0  0  0  0  0
   10.9824   -4.8498   22.1862 N   0  0  0  0  0  0  0  0  0  0  0  0
   10.3286   -5.0822   19.1579 C   0  0  0  0  0  0  0  0  0  0  0  0
    9.1841   -0.0013   25.0201 N   0  0  0  0  0  0  0  0  0  0  0  0
   10.3607   -3.2836   17.8276 N   0  0  0  0  0  0  0  0  0  0  0  0
   10.8169   -3.8426   21.3101 C   0  0  0  0  0  0  0  0  0  0  0  0
    8.6924   -6.6682   17.4308 C   0  0  0  0  0  0  0  0  0  0  0  0
   10.1018   -2.5476   25.7227 C   0  0  0  0  0  0  0  0  0  0  0  0
   10.7546   -3.9701   19.9359 C   0  0  0  0  0  0  0  0  0  0  0  0
  1  8  1  0
  1 12  4  0
  1 14  4  0
  2  3  4  0
  2 24  4  0
  3 20  4  0
  3 22  4  0
  4 11  4  0
  4 21  4  0
  5  9  4  0
  5 15  4  0
  6 16  4  0
  6 18  4  0
  7 22  4  0
  7 26  4  0
  8 10  4  0
  8 25  4  0
  9 16  4  0
 10 21  4  0
 11 25  4  0
 12 23  4  0
 13 17  4  0
 13 20  4  0
 14 19  4  0
 15 18  4  0
 17 24  4  0
 18 24  1  0
 19 23  4  0
 20 26  4  0
 23 26  1  0
M  END
$$$$

 Created by Python create_sdf_string function

 26 43  0  0  0  0  0  0  0  0999 V2000
   10.3511   -2.8215   23.3633 C   0  0  0  0  0  0  0  0  0  0  0  0
    9.0100   -5.2276   17.1442 C   0  0  0  0  0  0  0  0  0  0  0  0
    9.7494   -4.5669   18.1351 C   0  0  0  0  0  0  0  0  0  0  0  0
    9.1621   -0.3479   26.2261 C   0  0  0  0  0  0  0  0  0  0  0  0
    6.9319   -8.9029   15.6046 N   0  0  0  0  0  0  0  0  0  0  0  0
    6.3780   -7.2093   17.1840 C   0  0  0  0  0  0  0  0  0  0  0  0
   10.8801   -2.5348   18.8723 C   0  0  0  0  0  0  0  0  0  0  0  0
   10.1941   -1.8236   24.5380 C   0  0  0  0  0  0  0  0  0  0  0  0
    5.4484   -8.8071   16.0532 C   0  0  0  0  0  0  0  0  0  0  0  0
    9.5591   -0.9615   24.1969 F   0  0  0  0  0  0  0  0  0  0  0  0
    9.5780   -1.7877   26.7128 C   0  0  0  0  0  0  0  0  0  0  0  0
   10.5536   -2.5740   22.1323 C   0  0  0  0  0  0  0  0  0  0  0  0
   10.1551   -6.7550   19.3882 C   0  0  0  0  0  0  0  0  0  0  0  0
   10.6784   -4.1222   23.4953 O   0  0  0  0  0  0  0  0  0  0  0  0
    7.7548   -8.3773   15.9984 C   0  0  0  0  0  0  0  0  0  0  0  0
    5.1557   -8.0518   16.7011 C   0  0  0  0  0  0  0  0  0  0  0  0
    9.6001   -7.1962   18.5090 C   0  0  0  0  0  0  0  0  0  0  0  0
    7.5477   -7.5676   16.9882 F   0  0  0  0  0  0  0  0  0  0  0  0
   11.0345   -4.7853   22.1490 N   0  0  0  0  0  0  0  0  0  0  0  0
   10.2837   -5.3994   19.1482 C   0  0  0  0  0  0  0  0  0  0  0  0
    9.3041    0.1432   25.0921 N   0  0  0  0  0  0  0  0  0  0  0  0
   10.3903   -3.4417   17.9909 N   0  0  0  0  0  0  0  0  0  0  0  0
   10.9213   -3.8160   21.5746 C   0  0  0  0  0  0  0  0  0  0  0  0
    8.8596   -6.8010   17.3105 C   0  0  0  0  0  0  0  0  0  0  0  0
   10.0700   -2.4806   25.8488 C   0  0  0  0  0  0  0  0  0  0  0  0
   10.7045   -4.0047   19.6620 C   0  0  0  0  0  0  0  0  0  0  0  0
  1  6  3  0
  1  8  1  0
  1 12  4  0
  1 14  4  0
  2  3  4  0
  2  6  3  0
  2 24  4  0
  3 20  4  0
  3 22  4  0
  4 11  4  0
  4 21  4  0
  5  9  4  0
  5 15  4  0
  6 13  1  0
  6 15  1  0
  6 16  4  0
  6 18  4  0
  7 22  4  0
  7 26  4  0
  8 10  4  0
  8 25  4  0
  9 11  3  0
  9 16  4  0
 10 21  4  0
 11 18  1  0
 11 25  4  0
 12 22  1  0
 12 23  4  0
 13 17  4  0
 13 20  4  0
 14 19  4  0
 15 18  4  0
 15 20  1  0
 15 21  1  0
 16 18  3  0
 17 18  4  0
 17 21  2  0
 17 23  1  0
 17 24  4  0
 18 24  3  0
 19 23  4  0
 20 26  4  0
 23 26  1  0
M  END
$$$$

 Created by Python create_sdf_string function

 26 30  0  0  0  0  0  0  0  0999 V2000
   10.4508   -2.8954   23.3948 C   0  0  0  0  0  0  0  0  0  0  0  0
    9.0320   -5.3819   17.1725 C   0  0  0  0  0  0  0  0  0  0  0  0
    9.8568   -4.6340   17.9770 C   0  0  0  0  0  0  0  0  0  0  0  0
    9.1450   -0.3483   26.4137 C   0  0  0  0  0  0  0  0  0  0  0  0
    6.7686   -9.1251   15.5077 N   0  0  0  0  0  0  0  0  0  0  0  0
    6.3717   -7.1871   17.2947 C   0  0  0  0  0  0  0  0  0  0  0  0
   10.8309   -2.9272   19.0635 C   0  0  0  0  0  0  0  0  0  0  0  0
   10.0429   -2.0374   24.4285 C   0  0  0  0  0  0  0  0  0  0  0  0
    5.5465   -8.8787   15.8872 C   0  0  0  0  0  0  0  0  0  0  0  0
    9.6585   -0.7316   24.1357 C   0  0  0  0  0  0  0  0  0  0  0  0
    9.5885   -1.6123   26.7538 C   0  0  0  0  0  0  0  0  0  0  0  0
   10.5756   -2.6170   22.0577 C   0  0  0  0  0  0  0  0  0  0  0  0
   10.2632   -6.4630   19.4389 C   0  0  0  0  0  0  0  0  0  0  0  0
   10.7529   -4.1743   23.5259 O   0  0  0  0  0  0  0  0  0  0  0  0
    7.8145   -8.4201   15.9834 C   0  0  0  0  0  0  0  0  0  0  0  0
    5.2947   -7.9043   16.8060 C   0  0  0  0  0  0  0  0  0  0  0  0
    9.5088   -7.2863   18.5478 C   0  0  0  0  0  0  0  0  0  0  0  0
    7.6573   -7.4242   16.9146 C   0  0  0  0  0  0  0  0  0  0  0  0
   10.9584   -4.7444   22.2570 N   0  0  0  0  0  0  0  0  0  0  0  0
   10.2871   -5.1354   19.1993 C   0  0  0  0  0  0  0  0  0  0  0  0
    9.1808    0.0768   25.1191 N   0  0  0  0  0  0  0  0  0  0  0  0
   10.2636   -3.3538   17.8487 N   0  0  0  0  0  0  0  0  0  0  0  0
   10.7582   -3.7723   21.3644 C   0  0  0  0  0  0  0  0  0  0  0  0
    8.7033   -6.7261   17.4861 C   0  0  0  0  0  0  0  0  0  0  0  0
   10.0408   -2.4887   25.7594 C   0  0  0  0  0  0  0  0  0  0  0  0
   10.6869   -3.9709   19.9799 C   0  0  0  0  0  0  0  0  0  0  0  0
  1  8  1  0
  1 12  4  0
  1 14  4  0
  2  3  4  0
  2 24  4  0
  3 20  4  0
  3 22  4  0
  4 11  4  0
  4 21  4  0
  5  9  4  0
  5 15  4  0
  6 16  4  0
  6 18  4  0
  7 22  4  0
  7 26  4  0
  8 10  4  0
  8 25  4  0
  9 16  4  0
 10 21  4  0
 11 25  4  0
 12 23  4  0
 13 17  4  0
 13 20  4  0
 14 19  4  0
 15 18  4  0
 17 24  4  0
 18 24  1  0
 19 23  4  0
 20 26  4  0
 23 26  1  0
M  END
$$$$

 Created by Python create_sdf_string function

 26 35  0  0  0  0  0  0  0  0999 V2000
   10.4493   -2.9883   23.4511 C   0  0  0  0  0  0  0  0  0  0  0  0
    8.7475   -5.3392   17.2861 C   0  0  0  0  0  0  0  0  0  0  0  0
    9.8964   -4.5484   17.8284 C   0  0  0  0  0  0  0  0  0  0  0  0
    9.0774   -0.3115   26.5201 C   0  0  0  0  0  0  0  0  0  0  0  0
    6.7233   -9.3379   15.6889 N   0  0  0  0  0  0  0  0  0  0  0  0
    6.5263   -7.0085   17.2151 C   0  0  0  0  0  0  0  0  0  0  0  0
    9.9315   -2.0221   24.3713 C   0  0  0  0  0  0  0  0  0  0  0  0
    5.6222   -8.9511   15.7728 C   0  0  0  0  0  0  0  0  0  0  0  0
    9.7423   -0.7671   24.2389 C   0  0  0  0  0  0  0  0  0  0  0  0
    9.6125   -1.5318   26.6000 C   0  0  0  0  0  0  0  0  0  0  0  0
   10.3552   -2.5323   22.0159 C   0  0  0  0  0  0  0  0  0  0  0  0
   10.0968   -6.6610   19.3409 C   0  0  0  0  0  0  0  0  0  0  0  0
   10.8045   -4.3630   23.5685 O   0  0  0  0  0  0  0  0  0  0  0  0
    7.9221   -8.4013   16.0754 C   0  0  0  0  0  0  0  0  0  0  0  0
    5.3172   -7.9909   16.6816 C   0  0  0  0  0  0  0  0  0  0  0  0
    9.5887   -7.3559   18.5022 C   0  0  0  0  0  0  0  0  0  0  0  0
    7.6712   -7.5417   16.9996 C   0  0  0  0  0  0  0  0  0  0  0  0
   10.9386   -4.9828   22.2437 N   0  0  0  0  0  0  0  0  0  0  0  0
   10.3184   -3.1374   17.9696 N   0  0  0  0  0  0  0  0  0  0  0  0
   10.9198   -3.7497   21.4876 C   0  0  0  0  0  0  0  0  0  0  0  0
    8.7184   -6.8454   17.5584 C   0  0  0  0  0  0  0  0  0  0  0  0
   10.1348   -2.5311   25.8024 C   0  0  0  0  0  0  0  0  0  0  0  0
   10.5528   -3.7415   19.6433 C   0  0  0  0  0  0  0  0  0  0  0  0
   10.8752   -2.7261   18.9865 He  0  0  0  0  0  0  0  0  0  0  0  0
   10.2601   -5.4164   19.2003 He  0  0  0  0  0  0  0  0  0  0  0  0
    9.3548   -0.0019   25.0429 He  0  0  0  0  0  0  0  0  0  0  0  0
  1  2  3  0
  1  7  1  0
  1 11  4  0
  1 13  4  0
  2  3  4  0
  2 12  3  0
  2 21  3  0
  3 19  4  0
  4 10  4  0
  4 13  1  0
  4 20  3  0
  5  8  4  0
  5 14  4  0
  6 15  4  0
  6 22  3  0
  7  9  4  0
  7 20  4  0
  7 22  4  0
  8 14  3  0
  8 15  4  0
  8 20  1  0
  8 23  2  0
 10 22  4  0
 11 20  4  0
 12 16  4  0
 13 18  4  0
 14 15  2  0
 14 17  4  0
 15 18  3  0
 16 19  2  0
 16 21  4  0
 16 22  2  0
 17 21  1  0
 18 20  4  0
 20 23  1  0
M  END
$$$$

 Created by Python create_sdf_string function

 26 30  0  0  0  0  0  0  0  0999 V2000
   10.4320   -2.9687   23.3986 C   0  0  0  0  0  0  0  0  0  0  0  0
    8.9773   -5.4060   17.1886 C   0  0  0  0  0  0  0  0  0  0  0  0
    9.7838   -4.6124   17.9823 C   0  0  0  0  0  0  0  0  0  0  0  0
    9.1923   -0.3259   26.4299 C   0  0  0  0  0  0  0  0  0  0  0  0
    6.8712   -9.2383   15.5747 N   0  0  0  0  0  0  0  0  0  0  0  0
    6.3494   -7.1589   17.1832 C   0  0  0  0  0  0  0  0  0  0  0  0
   10.7908   -2.8965   19.0712 C   0  0  0  0  0  0  0  0  0  0  0  0
   10.0579   -2.0731   24.4460 C   0  0  0  0  0  0  0  0  0  0  0  0
    5.6283   -8.9690   15.8324 C   0  0  0  0  0  0  0  0  0  0  0  0
    9.6803   -0.7528   24.1222 C   0  0  0  0  0  0  0  0  0  0  0  0
    9.5828   -1.6207   26.7543 C   0  0  0  0  0  0  0  0  0  0  0  0
   10.4748   -2.6653   22.0617 C   0  0  0  0  0  0  0  0  0  0  0  0
   10.2713   -6.4218   19.4297 C   0  0  0  0  0  0  0  0  0  0  0  0
   10.7595   -4.2672   23.5051 O   0  0  0  0  0  0  0  0  0  0  0  0
    7.8895   -8.5516   16.1158 C   0  0  0  0  0  0  0  0  0  0  0  0
    5.3241   -7.9114   16.6385 C   0  0  0  0  0  0  0  0  0  0  0  0
    9.5162   -7.2909   18.5790 C   0  0  0  0  0  0  0  0  0  0  0  0
    7.6744   -7.4588   16.9503 C   0  0  0  0  0  0  0  0  0  0  0  0
   10.9483   -4.8071   22.2212 N   0  0  0  0  0  0  0  0  0  0  0  0
   10.2431   -5.1183   19.1946 C   0  0  0  0  0  0  0  0  0  0  0  0
    9.2401    0.0927   25.1174 N   0  0  0  0  0  0  0  0  0  0  0  0
   10.2437   -3.3238   17.8541 N   0  0  0  0  0  0  0  0  0  0  0  0
   10.7048   -3.8121   21.3416 C   0  0  0  0  0  0  0  0  0  0  0  0
    8.7111   -6.7459   17.5346 C   0  0  0  0  0  0  0  0  0  0  0  0
   10.0162   -2.5026   25.7662 C   0  0  0  0  0  0  0  0  0  0  0  0
   10.6547   -3.9718   19.9617 C   0  0  0  0  0  0  0  0  0  0  0  0
  1  8  1  0
  1 12  4  0
  1 14  4  0
  2  3  4  0
  2 24  4  0
  3 20  4  0
  3 22  4  0
  4 11  4  0
  4 21  4  0
  5  9  4  0
  5 15  4  0
  6 16  4  0
  6 18  4  0
  7 22  4  0
  7 26  4  0
  8 10  4  0
  8 25  4  0
  9 16  4  0
 10 21  4  0
 11 25  4  0
 12 23  4  0
 13 17  4  0
 13 20  4  0
 14 19  4  0
 15 18  4  0
 17 24  4  0
 18 24  1  0
 19 23  4  0
 20 26  4  0
 23 26  1  0
M  END
$$$$

 Created by Python create_sdf_string function

 26 37  0  0  0  0  0  0  0  0999 V2000
   10.3058   -3.1025   23.5101 C   0  0  0  0  0  0  0  0  0  0  0  0
    8.9197   -5.5586   17.4603 C   0  0  0  0  0  0  0  0  0  0  0  0
    9.8398   -4.4474   17.9933 C   0  0  0  0  0  0  0  0  0  0  0  0
    9.2206   -0.2266   26.5909 C   0  0  0  0  0  0  0  0  0  0  0  0
    6.6187   -9.2594   15.4720 N   0  0  0  0  0  0  0  0  0  0  0  0
    6.3000   -7.1942   17.0726 C   0  0  0  0  0  0  0  0  0  0  0  0
   10.8351   -2.7231   19.0410 C   0  0  0  0  0  0  0  0  0  0  0  0
    9.9519   -2.0320   24.5687 C   0  0  0  0  0  0  0  0  0  0  0  0
    5.4579   -9.1601   15.8408 C   0  0  0  0  0  0  0  0  0  0  0  0
    9.5782   -0.7009   24.2125 C   0  0  0  0  0  0  0  0  0  0  0  0
    9.4758   -1.5017   26.7278 C   0  0  0  0  0  0  0  0  0  0  0  0
   10.4730   -2.7227   22.0813 C   0  0  0  0  0  0  0  0  0  0  0  0
   10.3566   -6.5382   19.6960 F   0  0  0  0  0  0  0  0  0  0  0  0
   10.8464   -4.3703   23.4416 O   0  0  0  0  0  0  0  0  0  0  0  0
    7.6208   -8.5404   16.1748 C   0  0  0  0  0  0  0  0  0  0  0  0
    5.4582   -8.0361   16.7949 C   0  0  0  0  0  0  0  0  0  0  0  0
    9.3509   -7.0840   18.6589 C   0  0  0  0  0  0  0  0  0  0  0  0
    7.5949   -7.3780   16.9302 C   0  0  0  0  0  0  0  0  0  0  0  0
   10.8748   -4.8392   22.2823 N   0  0  0  0  0  0  0  0  0  0  0  0
   10.0052   -5.2328   19.2122 C   0  0  0  0  0  0  0  0  0  0  0  0
    9.1265    0.1063   25.1500 N   0  0  0  0  0  0  0  0  0  0  0  0
   10.8220   -3.8625   21.3005 C   0  0  0  0  0  0  0  0  0  0  0  0
    8.5895   -6.6864   17.5637 C   0  0  0  0  0  0  0  0  0  0  0  0
   10.0137   -2.4637   25.6277 C   0  0  0  0  0  0  0  0  0  0  0  0
   10.6073   -4.0779   20.0800 C   0  0  0  0  0  0  0  0  0  0  0  0
   10.1978   -3.3889   17.9309 He  0  0  0  0  0  0  0  0  0  0  0  0
  1  8  3  0
  1 12  4  0
  1 14  4  0
  1 20  4  0
  2  3  4  0
  2 23  4  0
  3 20  4  0
  4  6  2  0
  4 11  4  0
  4 14  2  0
  4 20  4  0
  4 21  4  0
  5  9  4  0
  5 15  1  0
  6 10  1  0
  6 16  4  0
  6 18  4  0
  7 12  2  0
  7 25  4  0
  8 10  4  0
  8 24  4  0
  9 11  2  0
  9 12  4  0
  9 16  4  0
 10 21  4  0
 11 24  4  0
 12 22  4  0
 13 17  4  0
 13 20  4  0
 13 22  4  0
 14 19  4  0
 17 23  4  0
 18 23  1  0
 20 25  4  0
 21 24  4  0
 22 25  1  0
 23 24  4  0
M  END
$$$$

 Created by Python create_sdf_string function

 26 30  0  0  0  0  0  0  0  0999 V2000
   10.3856   -2.9689   23.4403 C   0  0  0  0  0  0  0  0  0  0  0  0
    8.9324   -5.4266   17.2359 C   0  0  0  0  0  0  0  0  0  0  0  0
    9.7545   -4.6411   18.0191 C   0  0  0  0  0  0  0  0  0  0  0  0
    9.1600   -0.2725   26.4489 C   0  0  0  0  0  0  0  0  0  0  0  0
    6.7728   -9.2411   15.5924 N   0  0  0  0  0  0  0  0  0  0  0  0
    6.2481   -7.2156   17.2462 C   0  0  0  0  0  0  0  0  0  0  0  0
   10.7549   -2.9294   19.1195 C   0  0  0  0  0  0  0  0  0  0  0  0
    9.9769   -2.0697   24.4713 C   0  0  0  0  0  0  0  0  0  0  0  0
    5.5137   -9.0277   15.8878 C   0  0  0  0  0  0  0  0  0  0  0  0
    9.5791   -0.7617   24.1672 C   0  0  0  0  0  0  0  0  0  0  0  0
    9.5544   -1.5711   26.8019 C   0  0  0  0  0  0  0  0  0  0  0  0
   10.4491   -2.7154   22.1101 C   0  0  0  0  0  0  0  0  0  0  0  0
   10.1138   -6.4307   19.5447 C   0  0  0  0  0  0  0  0  0  0  0  0
   10.7253   -4.2636   23.5831 O   0  0  0  0  0  0  0  0  0  0  0  0
    7.7792   -8.5334   16.0932 C   0  0  0  0  0  0  0  0  0  0  0  0
    5.2188   -7.9795   16.7069 C   0  0  0  0  0  0  0  0  0  0  0  0
    9.3505   -7.2518   18.6570 C   0  0  0  0  0  0  0  0  0  0  0  0
    7.5751   -7.4703   16.9926 C   0  0  0  0  0  0  0  0  0  0  0  0
   10.9424   -4.8369   22.2992 N   0  0  0  0  0  0  0  0  0  0  0  0
   10.1796   -5.1338   19.2647 C   0  0  0  0  0  0  0  0  0  0  0  0
    9.1833    0.1144   25.1307 N   0  0  0  0  0  0  0  0  0  0  0  0
   10.2056   -3.3560   17.8799 N   0  0  0  0  0  0  0  0  0  0  0  0
   10.6850   -3.8523   21.4133 C   0  0  0  0  0  0  0  0  0  0  0  0
    8.6019   -6.7337   17.5826 C   0  0  0  0  0  0  0  0  0  0  0  0
    9.9458   -2.4787   25.7896 C   0  0  0  0  0  0  0  0  0  0  0  0
   10.6155   -3.9921   20.0316 C   0  0  0  0  0  0  0  0  0  0  0  0
  1  8  1  0
  1 12  4  0
  1 14  4  0
  2  3  4  0
  2 24  4  0
  3 20  4  0
  3 22  4  0
  4 11  4  0
  4 21  4  0
  5  9  4  0
  5 15  4  0
  6 16  4  0
  6 18  4  0
  7 22  4  0
  7 26  4  0
  8 10  4  0
  8 25  4  0
  9 16  4  0
 10 21  4  0
 11 25  4  0
 12 23  4  0
 13 17  4  0
 13 20  4  0
 14 19  4  0
 15 18  4  0
 17 24  4  0
 18 24  1  0
 19 23  4  0
 20 26  4  0
 23 26  1  0
M  END
$$$$

 Created by Python create_sdf_string function

 26 44  0  0  0  0  0  0  0  0999 V2000
   10.3788   -2.9956   23.4585 C   0  0  0  0  0  0  0  0  0  0  0  0
    8.8043   -5.4578   17.2742 C   0  0  0  0  0  0  0  0  0  0  0  0
    9.7856   -4.6371   18.2150 C   0  0  0  0  0  0  0  0  0  0  0  0
    9.0266   -0.0541   26.3383 C   0  0  0  0  0  0  0  0  0  0  0  0
    6.8930   -9.2683   15.5270 N   0  0  0  0  0  0  0  0  0  0  0  0
    6.3081   -7.2667   17.2473 C   0  0  0  0  0  0  0  0  0  0  0  0
   10.6849   -2.8445   19.1254 C   0  0  0  0  0  0  0  0  0  0  0  0
    9.9411   -1.9569   24.5189 C   0  0  0  0  0  0  0  0  0  0  0  0
    5.4322   -9.0717   15.9839 C   0  0  0  0  0  0  0  0  0  0  0  0
    9.5373   -0.6952   24.1617 C   0  0  0  0  0  0  0  0  0  0  0  0
    9.5410   -1.5493   26.8454 C   0  0  0  0  0  0  0  0  0  0  0  0
   10.3778   -2.8715   22.0827 C   0  0  0  0  0  0  0  0  0  0  0  0
    9.8805   -6.3876   19.4196 C   0  0  0  0  0  0  0  0  0  0  0  0
   10.7751   -4.2685   23.5779 O   0  0  0  0  0  0  0  0  0  0  0  0
    7.8642   -8.7005   15.9879 C   0  0  0  0  0  0  0  0  0  0  0  0
    5.0776   -8.1790   16.7775 C   0  0  0  0  0  0  0  0  0  0  0  0
    9.4188   -7.2399   18.6803 C   0  0  0  0  0  0  0  0  0  0  0  0
    7.6380   -7.4790   17.0506 C   0  0  0  0  0  0  0  0  0  0  0  0
   10.8734   -4.7411   22.1255 N   0  0  0  0  0  0  0  0  0  0  0  0
   10.3093   -5.1964   19.4042 C   0  0  0  0  0  0  0  0  0  0  0  0
    9.1867   -0.0792   25.3105 N   0  0  0  0  0  0  0  0  0  0  0  0
   10.4925   -3.3534   17.6675 N   0  0  0  0  0  0  0  0  0  0  0  0
   10.7306   -3.7342   21.3752 C   0  0  0  0  0  0  0  0  0  0  0  0
    8.6341   -6.6306   17.4948 C   0  0  0  0  0  0  0  0  0  0  0  0
    9.9448   -2.4348   25.7700 C   0  0  0  0  0  0  0  0  0  0  0  0
   10.7537   -3.9105   19.9460 C   0  0  0  0  0  0  0  0  0  0  0  0
  1  8  1  0
  1  9  2  0
  1 12  4  0
  1 14  4  0
  1 17  1  0
  2  3  4  0
  2 22  3  0
  2 24  4  0
  2 25  1  0
  3 20  4  0
  3 22  4  0
  4  8  4  0
  4 11  4  0
  4 21  4  0
  5 11  4  0
  6 13  2  0
  6 16  4  0
  6 18  4  0
  7 22  4  0
  7 26  4  0
  8 10  4  0
  8 20  2  0
  8 25  4  0
  9 14  3  0
  9 16  4  0
  9 22  4  0
 10 20  4  0
 10 21  4  0
 11 25  4  0
 12 16  3  0
 13 17  4  0
 13 20  4  0
 13 25  1  0
 14 16  1  0
 14 19  4  0
 14 21  4  0
 15 18  4  0
 18 24  1  0
 19 23  2  0
 20 26  4  0
 21 22  1  0
 21 23  2  0
 21 26  4  0
 23 26  1  0
M  END
$$$$

 Created by Python create_sdf_string function

 26 30  0  0  0  0  0  0  0  0999 V2000
   10.3574   -2.9409   23.4437 C   0  0  0  0  0  0  0  0  0  0  0  0
    8.9713   -5.4574   17.2081 C   0  0  0  0  0  0  0  0  0  0  0  0
    9.7901   -4.6725   18.0074 C   0  0  0  0  0  0  0  0  0  0  0  0
    9.1041   -0.2533   26.4161 C   0  0  0  0  0  0  0  0  0  0  0  0
    6.8090   -9.2828   15.5831 N   0  0  0  0  0  0  0  0  0  0  0  0
    6.2770   -7.2973   17.2947 C   0  0  0  0  0  0  0  0  0  0  0  0
   10.8114   -2.9539   19.0831 C   0  0  0  0  0  0  0  0  0  0  0  0
    9.9603   -2.0570   24.4678 C   0  0  0  0  0  0  0  0  0  0  0  0
    5.5600   -9.0840   15.9084 C   0  0  0  0  0  0  0  0  0  0  0  0
    9.5558   -0.7489   24.1555 C   0  0  0  0  0  0  0  0  0  0  0  0
    9.5104   -1.5352   26.7965 C   0  0  0  0  0  0  0  0  0  0  0  0
   10.4208   -2.6710   22.1014 C   0  0  0  0  0  0  0  0  0  0  0  0
   10.0964   -6.4441   19.5439 C   0  0  0  0  0  0  0  0  0  0  0  0
   10.7208   -4.2121   23.5822 O   0  0  0  0  0  0  0  0  0  0  0  0
    7.8252   -8.5429   16.0865 C   0  0  0  0  0  0  0  0  0  0  0  0
    5.2374   -8.0839   16.7777 C   0  0  0  0  0  0  0  0  0  0  0  0
    9.3376   -7.2736   18.6957 C   0  0  0  0  0  0  0  0  0  0  0  0
    7.5932   -7.5020   16.9888 C   0  0  0  0  0  0  0  0  0  0  0  0
   10.9416   -4.7721   22.2979 N   0  0  0  0  0  0  0  0  0  0  0  0
   10.1731   -5.1283   19.2707 C   0  0  0  0  0  0  0  0  0  0  0  0
    9.1323    0.1064   25.1067 N   0  0  0  0  0  0  0  0  0  0  0  0
   10.2744   -3.3829   17.8346 N   0  0  0  0  0  0  0  0  0  0  0  0
   10.6774   -3.7932   21.4058 C   0  0  0  0  0  0  0  0  0  0  0  0
    8.5985   -6.7669   17.5785 C   0  0  0  0  0  0  0  0  0  0  0  0
    9.9437   -2.4487   25.8125 C   0  0  0  0  0  0  0  0  0  0  0  0
   10.6086   -3.9604   20.0304 C   0  0  0  0  0  0  0  0  0  0  0  0
  1  8  1  0
  1 12  4  0
  1 14  4  0
  2  3  4  0
  2 24  4  0
  3 20  4  0
  3 22  4  0
  4 11  4  0
  4 21  4  0
  5  9  4  0
  5 15  4  0
  6 16  4  0
  6 18  4  0
  7 22  4  0
  7 26  4  0
  8 10  4  0
  8 25  4  0
  9 16  4  0
 10 21  4  0
 11 25  4  0
 12 23  4  0
 13 17  4  0
 13 20  4  0
 14 19  4  0
 15 18  4  0
 17 24  4  0
 18 24  1  0
 19 23  4  0
 20 26  4  0
 23 26  1  0
M  END
$$$$

 Created by Python create_sdf_string function

 26 33  0  0  0  0  0  0  0  0999 V2000
   10.4286   -2.8063   23.3199 C   0  0  0  0  0  0  0  0  0  0  0  0
    9.0784   -5.3644   17.0768 C   0  0  0  0  0  0  0  0  0  0  0  0
    9.7687   -4.6815   18.0077 C   0  0  0  0  0  0  0  0  0  0  0  0
    8.9935   -0.2017   26.5128 C   0  0  0  0  0  0  0  0  0  0  0  0
    6.5720   -9.1074   15.6126 N   0  0  0  0  0  0  0  0  0  0  0  0
    6.3108   -7.2712   17.4562 C   0  0  0  0  0  0  0  0  0  0  0  0
   10.9967   -3.0509   18.9419 P   0  0  0  0  0  0  0  0  0  0  0  0
    9.9952   -2.0496   24.5675 C   0  0  0  0  0  0  0  0  0  0  0  0
    5.4895   -8.9736   15.8376 C   0  0  0  0  0  0  0  0  0  0  0  0
    9.5575   -0.7669   24.1996 C   0  0  0  0  0  0  0  0  0  0  0  0
    9.6897   -1.5936   26.8591 C   0  0  0  0  0  0  0  0  0  0  0  0
   10.3876   -2.6696   21.8527 C   0  0  0  0  0  0  0  0  0  0  0  0
   10.1996   -6.2184   19.6923 C   0  0  0  0  0  0  0  0  0  0  0  0
   10.7774   -4.3032   23.5525 O   0  0  0  0  0  0  0  0  0  0  0  0
    7.6876   -8.5286   15.8450 C   0  0  0  0  0  0  0  0  0  0  0  0
    5.3609   -8.2654   16.8645 C   0  0  0  0  0  0  0  0  0  0  0  0
    9.4924   -7.0306   18.7811 C   0  0  0  0  0  0  0  0  0  0  0  0
    7.5632   -7.5723   17.0389 C   0  0  0  0  0  0  0  0  0  0  0  0
   11.0816   -4.7202   22.4555 N   0  0  0  0  0  0  0  0  0  0  0  0
   10.1975   -5.1917   19.2390 C   0  0  0  0  0  0  0  0  0  0  0  0
    9.2192    0.1888   24.9797 N   0  0  0  0  0  0  0  0  0  0  0  0
   10.3007   -3.5269   17.8323 N   0  0  0  0  0  0  0  0  0  0  0  0
   10.6187   -3.8438   21.4063 C   0  0  0  0  0  0  0  0  0  0  0  0
    8.5586   -6.7574   17.7994 C   0  0  0  0  0  0  0  0  0  0  0  0
    9.8714   -2.3932   25.9286 C   0  0  0  0  0  0  0  0  0  0  0  0
   10.4886   -4.0216   19.9023 C   0  0  0  0  0  0  0  0  0  0  0  0
  1  8  1  0
  1 12  4  0
  1 14  4  0
  1 25  2  0
  2  3  4  0
  2 24  4  0
  3 17  4  0
  3 20  4  0
  3 22  4  0
  4 11  4  0
  4 20  1  0
  4 21  4  0
  5  9  4  0
  6 16  4  0
  6 18  4  0
  7 22  4  0
  7 26  4  0
  8 10  4  0
  8 25  4  0
 10 21  4  0
 11 25  4  0
 12 23  4  0
 13 17  4  0
 13 20  4  0
 14 19  4  0
 15 18  4  0
 17 24  4  0
 18 24  1  0
 19 23  4  0
 20 23  3  0
 20 26  4  0
 23 25  4  0
 23 26  1  0
M  END
$$$$

 Created by Python create_sdf_string function

 26 30  0  0  0  0  0  0  0  0999 V2000
   10.3689   -2.8976   23.4000 C   0  0  0  0  0  0  0  0  0  0  0  0
    9.0166   -5.4658   17.1825 C   0  0  0  0  0  0  0  0  0  0  0  0
    9.8219   -4.6945   17.9733 C   0  0  0  0  0  0  0  0  0  0  0  0
    9.1171   -0.2387   26.4489 C   0  0  0  0  0  0  0  0  0  0  0  0
    6.7624   -9.0952   15.4899 N   0  0  0  0  0  0  0  0  0  0  0  0
    6.2977   -7.3781   17.4743 C   0  0  0  0  0  0  0  0  0  0  0  0
   10.8287   -2.9926   19.0145 C   0  0  0  0  0  0  0  0  0  0  0  0
    9.9707   -2.0179   24.4626 C   0  0  0  0  0  0  0  0  0  0  0  0
    5.5293   -8.9775   15.9180 C   0  0  0  0  0  0  0  0  0  0  0  0
    9.5695   -0.7145   24.1528 C   0  0  0  0  0  0  0  0  0  0  0  0
    9.5427   -1.5317   26.8130 C   0  0  0  0  0  0  0  0  0  0  0  0
   10.3993   -2.6656   22.0199 C   0  0  0  0  0  0  0  0  0  0  0  0
   10.0607   -6.4057   19.6169 C   0  0  0  0  0  0  0  0  0  0  0  0
   10.7847   -4.1381   23.5673 O   0  0  0  0  0  0  0  0  0  0  0  0
    7.7667   -8.4111   16.0049 C   0  0  0  0  0  0  0  0  0  0  0  0
    5.2617   -8.1108   16.9067 C   0  0  0  0  0  0  0  0  0  0  0  0
    9.3282   -7.2341   18.7608 C   0  0  0  0  0  0  0  0  0  0  0  0
    7.5948   -7.4985   17.0381 C   0  0  0  0  0  0  0  0  0  0  0  0
   10.9628   -4.7318   22.2966 N   0  0  0  0  0  0  0  0  0  0  0  0
   10.1704   -5.1196   19.2573 C   0  0  0  0  0  0  0  0  0  0  0  0
    9.1276    0.1599   25.1232 N   0  0  0  0  0  0  0  0  0  0  0  0
   10.3294   -3.4501   17.7866 N   0  0  0  0  0  0  0  0  0  0  0  0
   10.6948   -3.7951   21.3662 C   0  0  0  0  0  0  0  0  0  0  0  0
    8.6312   -6.7530   17.6233 C   0  0  0  0  0  0  0  0  0  0  0  0
    9.9682   -2.4190   25.8167 C   0  0  0  0  0  0  0  0  0  0  0  0
   10.6302   -3.9898   19.9859 C   0  0  0  0  0  0  0  0  0  0  0  0
  1  8  1  0
  1 12  4  0
  1 14  4  0
  2  3  4  0
  2 24  4  0
  3 20  4  0
  3 22  4  0
  4 11  4  0
  4 21  4  0
  5  9  4  0
  5 15  4  0
  6 16  4  0
  6 18  4  0
  7 22  4  0
  7 26  4  0
  8 10  4  0
  8 25  4  0
  9 16  4  0
 10 21  4  0
 11 25  4  0
 12 23  4  0
 13 17  4  0
 13 20  4  0
 14 19  4  0
 15 18  4  0
 17 24  4  0
 18 24  1  0
 19 23  4  0
 20 26  4  0
 23 26  1  0
M  END
$$$$

 Created by Python create_sdf_string function

 26 39  0  0  0  0  0  0  0  0999 V2000
   10.4458   -2.8769   23.4752 C   0  0  0  0  0  0  0  0  0  0  0  0
    8.9724   -5.5045   17.1759 C   0  0  0  0  0  0  0  0  0  0  0  0
    9.6820   -4.6715   18.0466 C   0  0  0  0  0  0  0  0  0  0  0  0
    9.0315   -0.3269   26.4719 C   0  0  0  0  0  0  0  0  0  0  0  0
    6.6567   -9.0169   15.4444 N   0  0  0  0  0  0  0  0  0  0  0  0
    6.4049   -7.5269   17.5283 C   0  0  0  0  0  0  0  0  0  0  0  0
   10.9300   -3.0276   18.9388 C   0  0  0  0  0  0  0  0  0  0  0  0
    9.8761   -2.0507   24.3522 C   0  0  0  0  0  0  0  0  0  0  0  0
    5.3354   -8.8477   16.1065 C   0  0  0  0  0  0  0  0  0  0  0  0
    9.5156   -0.6778   24.1768 C   0  0  0  0  0  0  0  0  0  0  0  0
    9.5358   -1.5587   26.6871 C   0  0  0  0  0  0  0  0  0  0  0  0
   10.4325   -2.5139   22.0497 C   0  0  0  0  0  0  0  0  0  0  0  0
   10.0168   -6.6643   19.5931 C   0  0  0  0  0  0  0  0  0  0  0  0
   10.7736   -4.0991   23.4081 O   0  0  0  0  0  0  0  0  0  0  0  0
    7.9095   -8.5098   15.8704 C   0  0  0  0  0  0  0  0  0  0  0  0
    5.4386   -8.1540   16.9724 C   0  0  0  0  0  0  0  0  0  0  0  0
    9.4457   -7.2727   18.5724 C   0  0  0  0  0  0  0  0  0  0  0  0
    7.5566   -7.4354   16.9929 C   0  0  0  0  0  0  0  0  0  0  0  0
   10.9376   -4.6860   22.3455 S   0  0  0  0  0  0  0  0  0  0  0  0
   10.1293   -5.0638   19.2103 C   0  0  0  0  0  0  0  0  0  0  0  0
    8.8955    0.1654   25.1612 N   0  0  0  0  0  0  0  0  0  0  0  0
   10.2591   -3.3685   17.8747 N   0  0  0  0  0  0  0  0  0  0  0  0
   10.7299   -3.9458   21.5488 C   0  0  0  0  0  0  0  0  0  0  0  0
    8.6700   -6.9209   17.6485 C   0  0  0  0  0  0  0  0  0  0  0  0
    9.9754   -2.4423   25.7623 C   0  0  0  0  0  0  0  0  0  0  0  0
   10.4810   -4.2095   19.8592 C   0  0  0  0  0  0  0  0  0  0  0  0
  1  3  4  0
  1  8  4  0
  1 12  4  0
  2  3  4  0
  2 24  4  0
  3  7  1  0
  3 20  4  0
  3 22  4  0
  4 11  4  0
  4 21  4  0
  5  9  4  0
  5 15  4  0
  6 12  2  0
  6 16  4  0
  6 18  4  0
  7 22  4  0
  7 23  1  0
  7 26  4  0
  8 10  4  0
  8 25  4  0
  9 16  4  0
  9 19  2  0
 10 21  4  0
 11 25  4  0
 12 23  4  0
 13 16  2  0
 13 17  4  0
 13 20  4  0
 14 19  4  0
 14 24  3  0
 15 18  4  0
 16 17  3  0
 16 24  2  0
 17 24  4  0
 17 25  3  0
 18 24  1  0
 19 23  4  0
 20 26  4  0
 23 26  1  0
M  END
$$$$

 Created by Python create_sdf_string function

 26 30  0  0  0  0  0  0  0  0999 V2000
   10.3767   -2.8564   23.4187 C   0  0  0  0  0  0  0  0  0  0  0  0
    8.9794   -5.5142   17.1890 C   0  0  0  0  0  0  0  0  0  0  0  0
    9.7659   -4.7454   17.9982 C   0  0  0  0  0  0  0  0  0  0  0  0
    9.0108   -0.3152   26.4411 C   0  0  0  0  0  0  0  0  0  0  0  0
    6.6945   -9.0508   15.4425 N   0  0  0  0  0  0  0  0  0  0  0  0
    6.3606   -7.4410   17.5687 C   0  0  0  0  0  0  0  0  0  0  0  0
   10.7490   -3.0455   19.0591 C   0  0  0  0  0  0  0  0  0  0  0  0
    9.9519   -1.9930   24.4376 C   0  0  0  0  0  0  0  0  0  0  0  0
    5.4989   -8.9297   15.9654 C   0  0  0  0  0  0  0  0  0  0  0  0
    9.4671   -0.7108   24.1362 C   0  0  0  0  0  0  0  0  0  0  0  0
    9.5054   -1.5829   26.7663 C   0  0  0  0  0  0  0  0  0  0  0  0
   10.4348   -2.6417   22.0849 C   0  0  0  0  0  0  0  0  0  0  0  0
   10.0792   -6.5143   19.5544 C   0  0  0  0  0  0  0  0  0  0  0  0
   10.7631   -4.1166   23.6126 O   0  0  0  0  0  0  0  0  0  0  0  0
    7.7513   -8.3980   15.9244 C   0  0  0  0  0  0  0  0  0  0  0  0
    5.3091   -8.1352   17.0346 C   0  0  0  0  0  0  0  0  0  0  0  0
    9.3832   -7.3622   18.6711 C   0  0  0  0  0  0  0  0  0  0  0  0
    7.6279   -7.5354   17.0321 C   0  0  0  0  0  0  0  0  0  0  0  0
   10.9559   -4.7579   22.3352 N   0  0  0  0  0  0  0  0  0  0  0  0
   10.1473   -5.2083   19.2616 C   0  0  0  0  0  0  0  0  0  0  0  0
    8.9881    0.1110   25.1354 N   0  0  0  0  0  0  0  0  0  0  0  0
   10.2302   -3.4780   17.8410 N   0  0  0  0  0  0  0  0  0  0  0  0
   10.6766   -3.8046   21.4091 C   0  0  0  0  0  0  0  0  0  0  0  0
    8.6490   -6.8316   17.5740 C   0  0  0  0  0  0  0  0  0  0  0  0
    9.9681   -2.4321   25.7573 C   0  0  0  0  0  0  0  0  0  0  0  0
   10.5859   -4.0588   20.0137 C   0  0  0  0  0  0  0  0  0  0  0  0
  1  8  1  0
  1 12  4  0
  1 14  4  0
  2  3  4  0
  2 24  4  0
  3 20  4  0
  3 22  4  0
  4 11  4  0
  4 21  4  0
  5  9  4  0
  5 15  4  0
  6 16  4  0
  6 18  4  0
  7 22  4  0
  7 26  4  0
  8 10  4  0
  8 25  4  0
  9 16  4  0
 10 21  4  0
 11 25  4  0
 12 23  4  0
 13 17  4  0
 13 20  4  0
 14 19  4  0
 15 18  4  0
 17 24  4  0
 18 24  1  0
 19 23  4  0
 20 26  4  0
 23 26  1  0
M  END
$$$$

 Created by Python create_sdf_string function

 26 35  0  0  0  0  0  0  0  0999 V2000
   10.3271   -2.9451   23.5127 C   0  0  0  0  0  0  0  0  0  0  0  0
    8.9281   -5.5545   17.2670 C   0  0  0  0  0  0  0  0  0  0  0  0
    9.6218   -4.8002   17.8253 C   0  0  0  0  0  0  0  0  0  0  0  0
    9.0745   -0.4226   26.5136 C   0  0  0  0  0  0  0  0  0  0  0  0
    6.6538   -9.0483   15.3550 N   0  0  0  0  0  0  0  0  0  0  0  0
    6.4213   -7.6068   17.6211 C   0  0  0  0  0  0  0  0  0  0  0  0
   10.6371   -3.1490   19.0243 C   0  0  0  0  0  0  0  0  0  0  0  0
   10.0915   -2.0580   24.5396 C   0  0  0  0  0  0  0  0  0  0  0  0
    5.5547   -8.9150   15.8847 C   0  0  0  0  0  0  0  0  0  0  0  0
    9.4049   -0.7418   24.1206 C   0  0  0  0  0  0  0  0  0  0  0  0
   10.4209   -2.7062   22.1428 C   0  0  0  0  0  0  0  0  0  0  0  0
   10.2929   -6.5446   19.5842 C   0  0  0  0  0  0  0  0  0  0  0  0
   10.6638   -4.1984   23.6209 O   0  0  0  0  0  0  0  0  0  0  0  0
    7.8304   -8.3919   15.9597 C   0  0  0  0  0  0  0  0  0  0  0  0
    5.3568   -8.2664   16.9931 C   0  0  0  0  0  0  0  0  0  0  0  0
    9.2571   -7.3451   18.6369 C   0  0  0  0  0  0  0  0  0  0  0  0
    7.6793   -7.6755   17.1677 C   0  0  0  0  0  0  0  0  0  0  0  0
   10.8407   -4.8792   22.3237 N   0  0  0  0  0  0  0  0  0  0  0  0
   10.1144   -5.1947   19.3267 C   0  0  0  0  0  0  0  0  0  0  0  0
    8.9991    0.0832   25.1894 N   0  0  0  0  0  0  0  0  0  0  0  0
   10.2394   -3.5121   17.8756 N   0  0  0  0  0  0  0  0  0  0  0  0
   10.4911   -3.7541   21.3686 C   0  0  0  0  0  0  0  0  0  0  0  0
    8.6113   -6.7763   17.6613 C   0  0  0  0  0  0  0  0  0  0  0  0
    9.8790   -2.5498   25.7003 C   0  0  0  0  0  0  0  0  0  0  0  0
   10.5880   -4.1105   19.9406 C   0  0  0  0  0  0  0  0  0  0  0  0
    9.5817   -1.4502   26.6822 He  0  0  0  0  0  0  0  0  0  0  0  0
  1 11  4  0
  1 13  4  0
  2  3  4  0
  3 19  4  0
  3 21  4  0
  4 20  4  0
  5  9  4  0
  5 14  4  0
  6  9  2  0
  6 15  4  0
  6 17  4  0
  6 22  3  0
  7 18  1  0
  7 21  4  0
  7 25  4  0
  8 10  4  0
  8 24  4  0
  9 15  4  0
  9 18  3  0
 10 20  4  0
 11 22  4  0
 12 16  4  0
 12 17  3  0
 12 19  4  0
 12 25  3  0
 13 18  4  0
 13 25  3  0
 14 17  4  0
 16 21  3  0
 16 23  2  0
 17 19  3  0
 17 23  1  0
 18 22  4  0
 19 25  4  0
 22 25  1  0
M  END
$$$$

 Created by Python create_sdf_string function

 26 30  0  0  0  0  0  0  0  0999 V2000
   10.3223   -2.9324   23.4464 C   0  0  0  0  0  0  0  0  0  0  0  0
    8.9355   -5.5742   17.2222 C   0  0  0  0  0  0  0  0  0  0  0  0
    9.7248   -4.8033   17.9996 C   0  0  0  0  0  0  0  0  0  0  0  0
    9.0641   -0.3360   26.4688 C   0  0  0  0  0  0  0  0  0  0  0  0
    6.7641   -9.0133   15.3975 N   0  0  0  0  0  0  0  0  0  0  0  0
    6.3413   -7.6059   17.6354 C   0  0  0  0  0  0  0  0  0  0  0  0
   10.6533   -3.0865   19.0775 C   0  0  0  0  0  0  0  0  0  0  0  0
    9.9210   -2.0556   24.4722 C   0  0  0  0  0  0  0  0  0  0  0  0
    5.5558   -8.9461   15.8906 C   0  0  0  0  0  0  0  0  0  0  0  0
    9.4831   -0.7671   24.1590 C   0  0  0  0  0  0  0  0  0  0  0  0
    9.5286   -1.5850   26.7883 C   0  0  0  0  0  0  0  0  0  0  0  0
   10.3832   -2.6841   22.1172 C   0  0  0  0  0  0  0  0  0  0  0  0
   10.1276   -6.5411   19.5781 C   0  0  0  0  0  0  0  0  0  0  0  0
   10.6664   -4.2166   23.6003 O   0  0  0  0  0  0  0  0  0  0  0  0
    7.7827   -8.3806   15.9551 C   0  0  0  0  0  0  0  0  0  0  0  0
    5.3249   -8.2668   17.0159 C   0  0  0  0  0  0  0  0  0  0  0  0
    9.3737   -7.3849   18.7309 C   0  0  0  0  0  0  0  0  0  0  0  0
    7.6037   -7.6067   17.0911 C   0  0  0  0  0  0  0  0  0  0  0  0
   10.7991   -4.7963   22.3153 N   0  0  0  0  0  0  0  0  0  0  0  0
   10.1473   -5.2518   19.2705 C   0  0  0  0  0  0  0  0  0  0  0  0
    9.0246    0.0671   25.1612 N   0  0  0  0  0  0  0  0  0  0  0  0
   10.1556   -3.5207   17.8468 N   0  0  0  0  0  0  0  0  0  0  0  0
   10.5869   -3.8461   21.4150 C   0  0  0  0  0  0  0  0  0  0  0  0
    8.6204   -6.8730   17.6434 C   0  0  0  0  0  0  0  0  0  0  0  0
    9.9660   -2.4521   25.8045 C   0  0  0  0  0  0  0  0  0  0  0  0
   10.5119   -4.0853   20.0233 C   0  0  0  0  0  0  0  0  0  0  0  0
  1  8  1  0
  1 12  4  0
  1 14  4  0
  2  3  4  0
  2 24  4  0
  3 20  4  0
  3 22  4  0
  4 11  4  0
  4 21  4  0
  5  9  4  0
  5 15  4  0
  6 16  4  0
  6 18  4  0
  7 22  4  0
  7 26  4  0
  8 10  4  0
  8 25  4  0
  9 16  4  0
 10 21  4  0
 11 25  4  0
 12 23  4  0
 13 17  4  0
 13 20  4  0
 14 19  4  0
 15 18  4  0
 17 24  4  0
 18 24  1  0
 19 23  4  0
 20 26  4  0
 23 26  1  0
M  END
$$$$

 Created by Python create_sdf_string function

 26 33  0  0  0  0  0  0  0  0999 V2000
   10.3453   -2.9870   23.3243 C   0  0  0  0  0  0  0  0  0  0  0  0
    8.7837   -5.6419   17.2080 C   0  0  0  0  0  0  0  0  0  0  0  0
    9.7543   -4.9225   17.9634 C   0  0  0  0  0  0  0  0  0  0  0  0
    9.0487   -0.3272   26.4189 C   0  0  0  0  0  0  0  0  0  0  0  0
    6.7515   -9.1523   15.4642 N   0  0  0  0  0  0  0  0  0  0  0  0
    6.4351   -7.6338   17.6403 C   0  0  0  0  0  0  0  0  0  0  0  0
   10.4932   -2.8919   19.1847 C   0  0  0  0  0  0  0  0  0  0  0  0
    9.9306   -2.1064   24.4271 C   0  0  0  0  0  0  0  0  0  0  0  0
    5.4914   -9.0241   15.8047 C   0  0  0  0  0  0  0  0  0  0  0  0
    9.4563   -0.6935   24.2507 C   0  0  0  0  0  0  0  0  0  0  0  0
    9.6065   -1.6267   26.8123 C   0  0  0  0  0  0  0  0  0  0  0  0
   10.4158   -2.7375   22.1541 C   0  0  0  0  0  0  0  0  0  0  0  0
    9.9748   -6.4939   19.3810 C   0  0  0  0  0  0  0  0  0  0  0  0
   10.6798   -4.2486   23.6095 O   0  0  0  0  0  0  0  0  0  0  0  0
    7.7139   -8.2425   15.8942 C   0  0  0  0  0  0  0  0  0  0  0  0
    5.5403   -8.5185   17.1177 C   0  0  0  0  0  0  0  0  0  0  0  0
    9.3060   -7.3446   18.8219 C   0  0  0  0  0  0  0  0  0  0  0  0
    7.6233   -7.6894   17.1425 C   0  0  0  0  0  0  0  0  0  0  0  0
   10.6919   -4.9051   22.2525 N   0  0  0  0  0  0  0  0  0  0  0  0
   10.3825   -5.2880   19.3578 C   0  0  0  0  0  0  0  0  0  0  0  0
    9.0054    0.0294   25.2234 N   0  0  0  0  0  0  0  0  0  0  0  0
   10.5482   -3.8963   21.3131 C   0  0  0  0  0  0  0  0  0  0  0  0
    9.9713   -2.4221   25.8558 C   0  0  0  0  0  0  0  0  0  0  0  0
   10.4097   -4.1181   20.0710 C   0  0  0  0  0  0  0  0  0  0  0  0
   10.1616   -3.6022   17.9423 He  0  0  0  0  0  0  0  0  0  0  0  0
    8.6453   -6.8171   17.4618 He  0  0  0  0  0  0  0  0  0  0  0  0
  1  8  1  0
  1 12  4  0
  1 14  4  0
  2  3  4  0
  2 10  4  0
  3 20  4  0
  4  9  3  0
  4 11  4  0
  4 21  4  0
  5  9  4  0
  5 11  1  0
  5 15  4  0
  6 15  1  0
  6 16  4  0
  6 18  4  0
  7 13  2  0
  7 24  4  0
  8 10  4  0
  8 23  4  0
  9 16  4  0
  9 21  3  0
 10 21  4  0
 11 23  4  0
 12 22  4  0
 13 17  4  0
 13 20  4  0
 14 19  4  0
 15 18  4  0
 17 23  3  0
 18 21  3  0
 19 22  4  0
 20 24  4  0
 22 24  1  0
M  END
$$$$

 Created by Python create_sdf_string function

 26 30  0  0  0  0  0  0  0  0999 V2000
   10.3107   -2.9536   23.4316 C   0  0  0  0  0  0  0  0  0  0  0  0
    8.9680   -5.6100   17.1884 C   0  0  0  0  0  0  0  0  0  0  0  0
    9.7077   -4.8087   17.9969 C   0  0  0  0  0  0  0  0  0  0  0  0
    9.0663   -0.3439   26.4746 C   0  0  0  0  0  0  0  0  0  0  0  0
    6.7455   -9.0314   15.3650 N   0  0  0  0  0  0  0  0  0  0  0  0
    6.3725   -7.7318   17.6618 C   0  0  0  0  0  0  0  0  0  0  0  0
   10.5546   -3.0166   19.1179 C   0  0  0  0  0  0  0  0  0  0  0  0
    9.9373   -2.0687   24.4739 C   0  0  0  0  0  0  0  0  0  0  0  0
    5.5742   -9.0904   15.9401 C   0  0  0  0  0  0  0  0  0  0  0  0
    9.4695   -0.7866   24.1843 C   0  0  0  0  0  0  0  0  0  0  0  0
    9.5618   -1.6038   26.8115 C   0  0  0  0  0  0  0  0  0  0  0  0
   10.3730   -2.7214   22.0815 C   0  0  0  0  0  0  0  0  0  0  0  0
   10.0945   -6.5405   19.5330 C   0  0  0  0  0  0  0  0  0  0  0  0
   10.6299   -4.2398   23.5904 O   0  0  0  0  0  0  0  0  0  0  0  0
    7.7420   -8.3305   15.9016 C   0  0  0  0  0  0  0  0  0  0  0  0
    5.3803   -8.4375   17.0766 C   0  0  0  0  0  0  0  0  0  0  0  0
    9.3383   -7.3882   18.7183 C   0  0  0  0  0  0  0  0  0  0  0  0
    7.6033   -7.6284   17.0697 C   0  0  0  0  0  0  0  0  0  0  0  0
   10.7523   -4.8396   22.3060 N   0  0  0  0  0  0  0  0  0  0  0  0
   10.1084   -5.2399   19.2874 C   0  0  0  0  0  0  0  0  0  0  0  0
    9.0286    0.0450   25.1693 N   0  0  0  0  0  0  0  0  0  0  0  0
   10.1087   -3.5209   17.8646 N   0  0  0  0  0  0  0  0  0  0  0  0
   10.5482   -3.8682   21.4049 C   0  0  0  0  0  0  0  0  0  0  0  0
    8.5996   -6.8945   17.6208 C   0  0  0  0  0  0  0  0  0  0  0  0
    9.9906   -2.4676   25.8035 C   0  0  0  0  0  0  0  0  0  0  0  0
   10.4683   -4.0642   20.0512 C   0  0  0  0  0  0  0  0  0  0  0  0
  1  8  1  0
  1 12  4  0
  1 14  4  0
  2  3  4  0
  2 24  4  0
  3 20  4  0
  3 22  4  0
  4 11  4  0
  4 21  4  0
  5  9  4  0
  5 15  4  0
  6 16  4  0
  6 18  4  0
  7 22  4  0
  7 26  4  0
  8 10  4  0
  8 25  4  0
  9 16  4  0
 10 21  4  0
 11 25  4  0
 12 23  4  0
 13 17  4  0
 13 20  4  0
 14 19  4  0
 15 18  4  0
 17 24  4  0
 18 24  1  0
 19 23  4  0
 20 26  4  0
 23 26  1  0
M  END
$$$$

 Created by Python create_sdf_string function

 26 42  0  0  0  0  0  0  0  0999 V2000
   10.3715   -2.9267   23.3566 C   0  0  0  0  0  0  0  0  0  0  0  0
    9.0738   -5.6010   17.1445 C   0  0  0  0  0  0  0  0  0  0  0  0
    9.7155   -4.8077   18.0468 C   0  0  0  0  0  0  0  0  0  0  0  0
    8.9719   -0.2628   26.5235 C   0  0  0  0  0  0  0  0  0  0  0  0
    6.7319   -8.9837   15.3879 N   0  0  0  0  0  0  0  0  0  0  0  0
    6.4942   -7.7229   17.4742 C   0  0  0  0  0  0  0  0  0  0  0  0
   10.5154   -2.9612   19.0602 C   0  0  0  0  0  0  0  0  0  0  0  0
    9.9209   -2.0533   24.5179 C   0  0  0  0  0  0  0  0  0  0  0  0
    5.7424   -9.1101   15.9473 C   0  0  0  0  0  0  0  0  0  0  0  0
    9.3469   -0.8821   24.1775 C   0  0  0  0  0  0  0  0  0  0  0  0
    9.4711   -1.5265   26.8380 C   0  0  0  0  0  0  0  0  0  0  0  0
   10.3405   -2.7066   22.1373 C   0  0  0  0  0  0  0  0  0  0  0  0
   10.0986   -6.5541   19.5233 C   0  0  0  0  0  0  0  0  0  0  0  0
    7.6995   -8.2514   15.8273 C   0  0  0  0  0  0  0  0  0  0  0  0
    5.4753   -8.3730   17.0529 C   0  0  0  0  0  0  0  0  0  0  0  0
    9.3773   -7.2905   18.7265 B   0  0  0  0  0  0  0  0  0  0  0  0
    7.6980   -7.6219   17.0109 C   0  0  0  0  0  0  0  0  0  0  0  0
   10.8150   -4.7580   22.4103 N   0  0  0  0  0  0  0  0  0  0  0  0
   10.1393   -5.1728   19.3011 C   0  0  0  0  0  0  0  0  0  0  0  0
    8.9474    0.0418   25.2192 N   0  0  0  0  0  0  0  0  0  0  0  0
    9.9504   -3.5373   18.1068 N   0  0  0  0  0  0  0  0  0  0  0  0
   10.6270   -3.7960   21.4872 C   0  0  0  0  0  0  0  0  0  0  0  0
    8.6939   -6.9457   17.6515 C   0  0  0  0  0  0  0  0  0  0  0  0
    9.7989   -2.4763   25.8519 C   0  0  0  0  0  0  0  0  0  0  0  0
   10.3454   -4.1500   19.9071 C   0  0  0  0  0  0  0  0  0  0  0  0
   10.6021   -4.2210   23.5773 He  0  0  0  0  0  0  0  0  0  0  0  0
  1  8  1  0
  1 12  4  0
  1 20  1  0
  2  3  4  0
  2 23  4  0
  3 19  4  0
  3 21  4  0
  4  7  2  0
  4 11  4  0
  4 20  4  0
  5  9  4  0
  5 14  4  0
  5 22  4  0
  6 15  4  0
  6 17  4  0
  7  9  4  0
  7 16  1  0
  7 21  4  0
  7 25  4  0
  8 10  4  0
  8 15  3  0
  8 24  4  0
  9 15  4  0
  9 23  2  0
 10 16  2  0
 10 20  4  0
 10 21  3  0
 11 18  4  0
 11 24  4  0
 12 25  1  0
 13 16  4  0
 13 19  4  0
 14 15  2  0
 14 17  4  0
 14 21  3  0
 15 18  4  0
 16 23  4  0
 17 23  1  0
 18 22  4  0
 19 25  4  0
 21 24  2  0
 22 25  1  0
M  END
$$$$

 Created by Python create_sdf_string function

 26 30  0  0  0  0  0  0  0  0999 V2000
   10.2766   -2.9397   23.4610 C   0  0  0  0  0  0  0  0  0  0  0  0
    9.0220   -5.5885   17.1788 C   0  0  0  0  0  0  0  0  0  0  0  0
    9.7018   -4.8006   18.0345 C   0  0  0  0  0  0  0  0  0  0  0  0
    8.9808   -0.3000   26.4859 C   0  0  0  0  0  0  0  0  0  0  0  0
    6.8006   -9.0026   15.3364 N   0  0  0  0  0  0  0  0  0  0  0  0
    6.4466   -7.6889   17.6220 C   0  0  0  0  0  0  0  0  0  0  0  0
   10.4847   -3.0236   19.1497 C   0  0  0  0  0  0  0  0  0  0  0  0
    9.8473   -2.0545   24.5075 C   0  0  0  0  0  0  0  0  0  0  0  0
    5.6513   -9.0786   15.9345 C   0  0  0  0  0  0  0  0  0  0  0  0
    9.3931   -0.7805   24.1906 C   0  0  0  0  0  0  0  0  0  0  0  0
    9.4430   -1.5698   26.8493 C   0  0  0  0  0  0  0  0  0  0  0  0
   10.3442   -2.6683   22.1138 C   0  0  0  0  0  0  0  0  0  0  0  0
   10.0942   -6.5337   19.6044 C   0  0  0  0  0  0  0  0  0  0  0  0
   10.6653   -4.2008   23.6019 N   0  0  0  0  0  0  0  0  0  0  0  0
    7.7959   -8.2786   15.8218 C   0  0  0  0  0  0  0  0  0  0  0  0
    5.4343   -8.4265   17.0714 C   0  0  0  0  0  0  0  0  0  0  0  0
    9.3832   -7.3849   18.7360 C   0  0  0  0  0  0  0  0  0  0  0  0
    7.6702   -7.5962   17.0246 C   0  0  0  0  0  0  0  0  0  0  0  0
   10.8236   -4.7884   22.3225 N   0  0  0  0  0  0  0  0  0  0  0  0
   10.1114   -5.2298   19.3117 C   0  0  0  0  0  0  0  0  0  0  0  0
    8.9440    0.0638   25.1677 N   0  0  0  0  0  0  0  0  0  0  0  0
   10.0121   -3.5022   17.9124 N   0  0  0  0  0  0  0  0  0  0  0  0
   10.5549   -3.8378   21.4414 C   0  0  0  0  0  0  0  0  0  0  0  0
    8.6850   -6.8816   17.6039 C   0  0  0  0  0  0  0  0  0  0  0  0
    9.8718   -2.4508   25.8538 C   0  0  0  0  0  0  0  0  0  0  0  0
   10.4505   -4.0540   20.0726 C   0  0  0  0  0  0  0  0  0  0  0  0
  1  8  1  0
  1 12  4  0
  1 14  4  0
  2  3  4  0
  2 24  4  0
  3 20  4  0
  3 22  4  0
  4 11  4  0
  4 21  4  0
  5  9  4  0
  5 15  4  0
  6 16  4  0
  6 18  4  0
  7 22  4  0
  7 26  4  0
  8 10  4  0
  8 25  4  0
  9 16  4  0
 10 21  4  0
 11 25  4  0
 12 23  4  0
 13 17  4  0
 13 20  4  0
 14 19  4  0
 15 18  4  0
 17 24  4  0
 18 24  1  0
 19 23  4  0
 20 26  4  0
 23 26  1  0
M  END
$$$$

 Created by Python create_sdf_string function

 26 29  0  0  0  0  0  0  0  0999 V2000
    9.1104   -5.6834   17.3246 C   0  0  0  0  0  0  0  0  0  0  0  0
    9.7534   -4.7000   18.0403 C   0  0  0  0  0  0  0  0  0  0  0  0
    9.0241   -0.3380   26.4481 C   0  0  0  0  0  0  0  0  0  0  0  0
    6.8127   -9.0032   15.4473 N   0  0  0  0  0  0  0  0  0  0  0  0
    6.3510   -7.6910   17.4432 C   0  0  0  0  0  0  0  0  0  0  0  0
    9.8227   -2.0188   24.4603 C   0  0  0  0  0  0  0  0  0  0  0  0
    5.6769   -9.0499   15.9300 C   0  0  0  0  0  0  0  0  0  0  0  0
    9.5015   -0.8232   24.3076 C   0  0  0  0  0  0  0  0  0  0  0  0
    9.4216   -1.5939   26.8412 C   0  0  0  0  0  0  0  0  0  0  0  0
   10.4751   -2.6140   22.1785 C   0  0  0  0  0  0  0  0  0  0  0  0
   10.1882   -6.6054   19.5055 C   0  0  0  0  0  0  0  0  0  0  0  0
   10.7285   -4.2049   23.6221 N   0  0  0  0  0  0  0  0  0  0  0  0
    7.7482   -8.2156   15.8319 C   0  0  0  0  0  0  0  0  0  0  0  0
    5.4535   -8.3036   17.1669 C   0  0  0  0  0  0  0  0  0  0  0  0
    9.3713   -7.3953   18.5659 C   0  0  0  0  0  0  0  0  0  0  0  0
    7.7763   -7.5767   17.0232 C   0  0  0  0  0  0  0  0  0  0  0  0
   10.8099   -4.8715   22.3319 N   0  0  0  0  0  0  0  0  0  0  0  0
   10.0475   -5.1457   19.2953 C   0  0  0  0  0  0  0  0  0  0  0  0
    8.9252   -0.0169   25.2812 C   0  0  0  0  0  0  0  0  0  0  0  0
   10.0081   -3.5470   17.8087 N   0  0  0  0  0  0  0  0  0  0  0  0
   10.6539   -3.8607   21.3855 C   0  0  0  0  0  0  0  0  0  0  0  0
    8.8069   -6.8400   17.6853 C   0  0  0  0  0  0  0  0  0  0  0  0
    9.9734   -2.3722   25.9969 C   0  0  0  0  0  0  0  0  0  0  0  0
   10.2185   -4.0528   20.2087 C   0  0  0  0  0  0  0  0  0  0  0  0
   10.2710   -2.8945   23.3796 He  0  0  0  0  0  0  0  0  0  0  0  0
   10.5489   -3.0689   19.1217 He  0  0  0  0  0  0  0  0  0  0  0  0
  1 22  4  0
  2 18  4  0
  2 20  4  0
  2 23  1  0
  3  9  4  0
  3 19  4  0
  4  7  4  0
  4 13  4  0
  4 20  1  0
  5 14  4  0
  5 16  4  0
  6  8  4  0
  6 12  2  0
  6 23  4  0
  7 14  4  0
  8 19  4  0
  9 23  4  0
  9 24  4  0
 10 21  4  0
 11 15  4  0
 11 18  4  0
 13 16  4  0
 13 19  1  0
 15 20  2  0
 15 22  4  0
 16 22  1  0
 17 21  4  0
 18 24  4  0
 21 24  1  0
M  END
$$$$

 Created by Python create_sdf_string function

 26 30  0  0  0  0  0  0  0  0999 V2000
   10.3308   -2.9104   23.4756 C   0  0  0  0  0  0  0  0  0  0  0  0
    9.0224   -5.6134   17.2113 C   0  0  0  0  0  0  0  0  0  0  0  0
    9.7152   -4.8194   18.0474 C   0  0  0  0  0  0  0  0  0  0  0  0
    8.9759   -0.3650   26.5173 C   0  0  0  0  0  0  0  0  0  0  0  0
    6.8046   -8.9818   15.3789 N   0  0  0  0  0  0  0  0  0  0  0  0
    6.4372   -7.6160   17.6172 C   0  0  0  0  0  0  0  0  0  0  0  0
   10.4807   -3.0401   19.1778 N   0  0  0  0  0  0  0  0  0  0  0  0
    9.9166   -2.0511   24.5360 C   0  0  0  0  0  0  0  0  0  0  0  0
    5.6492   -9.0395   15.9622 C   0  0  0  0  0  0  0  0  0  0  0  0
    9.4451   -0.8031   24.2056 C   0  0  0  0  0  0  0  0  0  0  0  0
    9.4716   -1.6006   26.8672 C   0  0  0  0  0  0  0  0  0  0  0  0
   10.3826   -2.6495   22.1138 C   0  0  0  0  0  0  0  0  0  0  0  0
   10.1084   -6.5521   19.5905 C   0  0  0  0  0  0  0  0  0  0  0  0
   10.6634   -4.1806   23.6227 N   0  0  0  0  0  0  0  0  0  0  0  0
    7.8076   -8.2830   15.8523 C   0  0  0  0  0  0  0  0  0  0  0  0
    5.4334   -8.3483   17.0690 C   0  0  0  0  0  0  0  0  0  0  0  0
    9.4382   -7.4093   18.6926 C   0  0  0  0  0  0  0  0  0  0  0  0
    7.6837   -7.5772   17.0362 C   0  0  0  0  0  0  0  0  0  0  0  0
   10.8042   -4.7655   22.3463 N   0  0  0  0  0  0  0  0  0  0  0  0
   10.1012   -5.2628   19.3187 C   0  0  0  0  0  0  0  0  0  0  0  0
    8.9617    0.0541   25.2088 C   0  0  0  0  0  0  0  0  0  0  0  0
   10.0529   -3.5271   17.9203 N   0  0  0  0  0  0  0  0  0  0  0  0
   10.5393   -3.8300   21.4324 C   0  0  0  0  0  0  0  0  0  0  0  0
    8.7044   -6.8879   17.6064 C   0  0  0  0  0  0  0  0  0  0  0  0
    9.9281   -2.4542   25.8571 C   0  0  0  0  0  0  0  0  0  0  0  0
   10.4399   -4.0760   20.0785 C   0  0  0  0  0  0  0  0  0  0  0  0
  1  8  1  0
  1 12  4  0
  1 14  4  0
  2  3  4  0
  2 24  4  0
  3 20  4  0
  3 22  4  0
  4 11  4  0
  4 21  4  0
  5  9  4  0
  5 15  4  0
  6 16  4  0
  6 18  4  0
  7 22  4  0
  7 26  4  0
  8 10  4  0
  8 25  4  0
  9 16  4  0
 10 21  4  0
 11 25  4  0
 12 23  4  0
 13 17  4  0
 13 20  4  0
 14 19  4  0
 15 18  4  0
 17 24  4  0
 18 24  1  0
 19 23  4  0
 20 26  4  0
 23 26  1  0
M  END
$$$$

 Created by Python create_sdf_string function

 26 29  0  0  0  0  0  0  0  0999 V2000
   10.4438   -2.8880   23.4732 C   0  0  0  0  0  0  0  0  0  0  0  0
    9.0456   -5.6091   17.0977 C   0  0  0  0  0  0  0  0  0  0  0  0
    9.7111   -4.8773   18.0475 C   0  0  0  0  0  0  0  0  0  0  0  0
    8.9979   -0.2928   26.6203 C   0  0  0  0  0  0  0  0  0  0  0  0
    6.4407   -7.5205   17.5210 C   0  0  0  0  0  0  0  0  0  0  0  0
   10.5686   -2.8772   19.2047 N   0  0  0  0  0  0  0  0  0  0  0  0
    9.8567   -2.0010   24.5626 C   0  0  0  0  0  0  0  0  0  0  0  0
    5.5631   -8.9697   15.9693 C   0  0  0  0  0  0  0  0  0  0  0  0
    9.4456   -0.8610   24.1654 C   0  0  0  0  0  0  0  0  0  0  0  0
    9.5275   -1.5366   26.9186 C   0  0  0  0  0  0  0  0  0  0  0  0
   10.3588   -2.6984   21.9612 C   0  0  0  0  0  0  0  0  0  0  0  0
   10.1853   -6.5842   19.7261 C   0  0  0  0  0  0  0  0  0  0  0  0
   10.6300   -4.2096   23.5765 N   0  0  0  0  0  0  0  0  0  0  0  0
    7.7663   -8.2804   15.9473 C   0  0  0  0  0  0  0  0  0  0  0  0
    5.3048   -8.3571   17.1664 C   0  0  0  0  0  0  0  0  0  0  0  0
   10.7403   -4.8590   22.3252 N   0  0  0  0  0  0  0  0  0  0  0  0
   10.0353   -5.2692   19.2688 C   0  0  0  0  0  0  0  0  0  0  0  0
    8.8912    0.1322   25.2479 C   0  0  0  0  0  0  0  0  0  0  0  0
    9.9998   -3.6066   17.8583 N   0  0  0  0  0  0  0  0  0  0  0  0
   10.5332   -3.8697   21.3362 C   0  0  0  0  0  0  0  0  0  0  0  0
    8.6685   -6.8448   17.5691 C   0  0  0  0  0  0  0  0  0  0  0  0
    9.8786   -2.4659   25.9727 C   0  0  0  0  0  0  0  0  0  0  0  0
    6.8922   -8.9603   15.4254 He  0  0  0  0  0  0  0  0  0  0  0  0
    9.3913   -7.4447   18.7906 He  0  0  0  0  0  0  0  0  0  0  0  0
    7.7552   -7.6161   17.1467 He  0  0  0  0  0  0  0  0  0  0  0  0
   10.5332   -4.0376   20.1078 He  0  0  0  0  0  0  0  0  0  0  0  0
  1  7  1  0
  1 11  4  0
  1 13  4  0
  2  3  4  0
  2 21  4  0
  3 17  4  0
  3 19  4  0
  4 10  4  0
  4 18  4  0
  5  8  4  0
  5 12  4  0
  5 13  4  0
  5 15  4  0
  5 19  4  0
  6 19  4  0
  7  9  4  0
  7 22  4  0
  8 15  4  0
  8 18  1  0
  9 13  3  0
  9 18  4  0
 10 11  1  0
 10 22  4  0
 11 17  3  0
 11 20  4  0
 12 17  4  0
 13 16  4  0
 15 20  4  0
 16 20  4  0
M  END
$$$$

 Created by Python create_sdf_string function

 26 30  0  0  0  0  0  0  0  0999 V2000
   10.2998   -2.9325   23.4311 C   0  0  0  0  0  0  0  0  0  0  0  0
    9.0372   -5.6085   17.2130 C   0  0  0  0  0  0  0  0  0  0  0  0
    9.7294   -4.8249   18.0431 C   0  0  0  0  0  0  0  0  0  0  0  0
    9.0099   -0.3369   26.5730 C   0  0  0  0  0  0  0  0  0  0  0  0
    6.7965   -8.9986   15.4152 N   0  0  0  0  0  0  0  0  0  0  0  0
    6.4086   -7.5795   17.6416 C   0  0  0  0  0  0  0  0  0  0  0  0
   10.5261   -3.0492   19.1978 N   0  0  0  0  0  0  0  0  0  0  0  0
    9.8870   -2.0391   24.5398 C   0  0  0  0  0  0  0  0  0  0  0  0
    5.6050   -8.9787   15.9903 C   0  0  0  0  0  0  0  0  0  0  0  0
    9.4214   -0.7947   24.2241 C   0  0  0  0  0  0  0  0  0  0  0  0
    9.5042   -1.6032   26.9009 C   0  0  0  0  0  0  0  0  0  0  0  0
   10.3815   -2.6970   22.0410 C   0  0  0  0  0  0  0  0  0  0  0  0
   10.0913   -6.5475   19.6572 C   0  0  0  0  0  0  0  0  0  0  0  0
   10.6445   -4.1952   23.5977 N   0  0  0  0  0  0  0  0  0  0  0  0
    7.8410   -8.3087   15.9261 C   0  0  0  0  0  0  0  0  0  0  0  0
    5.3727   -8.2805   17.0913 C   0  0  0  0  0  0  0  0  0  0  0  0
    9.3779   -7.4198   18.7784 C   0  0  0  0  0  0  0  0  0  0  0  0
    7.6587   -7.5848   17.0765 C   0  0  0  0  0  0  0  0  0  0  0  0
   10.7622   -4.8039   22.3301 N   0  0  0  0  0  0  0  0  0  0  0  0
   10.1065   -5.2715   19.3261 C   0  0  0  0  0  0  0  0  0  0  0  0
    8.9435    0.0791   25.2282 C   0  0  0  0  0  0  0  0  0  0  0  0
   10.0728   -3.5302   17.9410 N   0  0  0  0  0  0  0  0  0  0  0  0
   10.5458   -3.8663   21.4036 C   0  0  0  0  0  0  0  0  0  0  0  0
    8.6870   -6.8829   17.6554 C   0  0  0  0  0  0  0  0  0  0  0  0
    9.9309   -2.4405   25.8559 C   0  0  0  0  0  0  0  0  0  0  0  0
   10.4297   -4.0894   20.0758 C   0  0  0  0  0  0  0  0  0  0  0  0
  1  8  1  0
  1 12  4  0
  1 14  4  0
  2  3  4  0
  2 24  4  0
  3 20  4  0
  3 22  4  0
  4 11  4  0
  4 21  4  0
  5  9  4  0
  5 15  4  0
  6 16  4  0
  6 18  4  0
  7 22  4  0
  7 26  4  0
  8 10  4  0
  8 25  4  0
  9 16  4  0
 10 21  4  0
 11 25  4  0
 12 23  4  0
 13 17  4  0
 13 20  4  0
 14 19  4  0
 15 18  4  0
 17 24  4  0
 18 24  1  0
 19 23  4  0
 20 26  4  0
 23 26  1  0
M  END
$$$$

 Created by Python create_sdf_string function

 26 37  0  0  0  0  0  0  0  0999 V2000
   10.3153   -3.0102   23.4650 C   0  0  0  0  0  0  0  0  0  0  0  0
    8.9243   -5.5259   17.1720 C   0  0  0  0  0  0  0  0  0  0  0  0
    9.8747   -4.8642   18.0053 C   0  0  0  0  0  0  0  0  0  0  0  0
    9.0105   -0.3304   26.4894 C   0  0  0  0  0  0  0  0  0  0  0  0
    6.9140   -9.0519   15.4091 N   0  0  0  0  0  0  0  0  0  0  0  0
    6.5863   -7.6154   17.6055 C   0  0  0  0  0  0  0  0  0  0  0  0
   10.5628   -3.0413   19.0658 N   0  0  0  0  0  0  0  0  0  0  0  0
    9.9205   -1.9856   24.4813 C   0  0  0  0  0  0  0  0  0  0  0  0
    5.5325   -9.0731   16.0621 C   0  0  0  0  0  0  0  0  0  0  0  0
    9.4687   -0.7034   24.3113 C   0  0  0  0  0  0  0  0  0  0  0  0
    9.4382   -1.6322   26.7844 C   0  0  0  0  0  0  0  0  0  0  0  0
   10.2958   -2.7383   22.0534 C   0  0  0  0  0  0  0  0  0  0  0  0
   10.0626   -6.6868   19.7999 C   0  0  0  0  0  0  0  0  0  0  0  0
   10.5907   -4.1583   23.7248 Cl  0  0  0  0  0  0  0  0  0  0  0  0
    7.7384   -8.4327   15.8728 C   0  0  0  0  0  0  0  0  0  0  0  0
    5.4277   -8.2650   17.1346 C   0  0  0  0  0  0  0  0  0  0  0  0
    9.4348   -7.4006   18.8053 C   0  0  0  0  0  0  0  0  0  0  0  0
    7.7061   -7.4518   17.1190 C   0  0  0  0  0  0  0  0  0  0  0  0
   10.7855   -4.7951   22.2728 N   0  0  0  0  0  0  0  0  0  0  0  0
   10.0887   -5.1812   19.3042 C   0  0  0  0  0  0  0  0  0  0  0  0
    8.9993    0.0939   25.2455 C   0  0  0  0  0  0  0  0  0  0  0  0
   10.0814   -3.5532   18.0030 N   0  0  0  0  0  0  0  0  0  0  0  0
   10.6869   -3.7854   21.4577 C   0  0  0  0  0  0  0  0  0  0  0  0
    8.6845   -6.8990   17.7612 C   0  0  0  0  0  0  0  0  0  0  0  0
    9.9678   -2.3629   25.9063 C   0  0  0  0  0  0  0  0  0  0  0  0
   10.4572   -3.9609   20.1039 C   0  0  0  0  0  0  0  0  0  0  0  0
  1  4  2  0
  1  8  1  0
  1 12  4  0
  1 14  4  0
  2  3  4  0
  2 24  4  0
  3 20  4  0
  3 22  4  0
  4 11  4  0
  4 21  4  0
  5 15  4  0
  6 10  4  0
  6 18  4  0
  7 12  3  0
  7 22  4  0
  7 26  4  0
  8 10  4  0
  8 25  4  0
  9 13  3  0
  9 16  4  0
 10 21  1  0
 11 25  4  0
 12 18  1  0
 12 19  3  0
 12 23  4  0
 13 17  4  0
 13 20  1  0
 14 19  4  0
 15 18  4  0
 15 23  1  0
 17 19  2  0
 17 24  4  0
 18 24  1  0
 19 23  4  0
 20 26  4  0
 21 22  4  0
 23 26  1  0
M  END
$$$$

 Created by Python create_sdf_string function

 26 30  0  0  0  0  0  0  0  0999 V2000
   10.2854   -2.9075   23.4670 C   0  0  0  0  0  0  0  0  0  0  0  0
    9.0324   -5.5953   17.2281 C   0  0  0  0  0  0  0  0  0  0  0  0
    9.7391   -4.8085   18.0604 C   0  0  0  0  0  0  0  0  0  0  0  0
    8.9951   -0.3373   26.5274 C   0  0  0  0  0  0  0  0  0  0  0  0
    6.7969   -9.0489   15.4557 N   0  0  0  0  0  0  0  0  0  0  0  0
    6.4241   -7.5939   17.6723 C   0  0  0  0  0  0  0  0  0  0  0  0
   10.5614   -3.0443   19.1923 N   0  0  0  0  0  0  0  0  0  0  0  0
    9.9030   -2.0143   24.5294 C   0  0  0  0  0  0  0  0  0  0  0  0
    5.6170   -9.0471   16.0196 C   0  0  0  0  0  0  0  0  0  0  0  0
    9.4803   -0.7241   24.1962 C   0  0  0  0  0  0  0  0  0  0  0  0
    9.4635   -1.5918   26.8578 C   0  0  0  0  0  0  0  0  0  0  0  0
   10.3306   -2.6768   22.1082 C   0  0  0  0  0  0  0  0  0  0  0  0
   10.0787   -6.5385   19.7060 C   0  0  0  0  0  0  0  0  0  0  0  0
   10.6438   -4.1864   23.6033 N   0  0  0  0  0  0  0  0  0  0  0  0
    7.8132   -8.3493   15.9470 C   0  0  0  0  0  0  0  0  0  0  0  0
    5.4008   -8.3125   17.1246 C   0  0  0  0  0  0  0  0  0  0  0  0
    9.3765   -7.3935   18.8196 C   0  0  0  0  0  0  0  0  0  0  0  0
    7.6696   -7.6002   17.1045 C   0  0  0  0  0  0  0  0  0  0  0  0
   10.8129   -4.7602   22.3308 N   0  0  0  0  0  0  0  0  0  0  0  0
   10.1159   -5.2457   19.3527 C   0  0  0  0  0  0  0  0  0  0  0  0
    9.0068    0.1133   25.2149 C   0  0  0  0  0  0  0  0  0  0  0  0
   10.1292   -3.5239   17.9399 N   0  0  0  0  0  0  0  0  0  0  0  0
   10.5435   -3.8248   21.4315 C   0  0  0  0  0  0  0  0  0  0  0  0
    8.6935   -6.8727   17.6852 C   0  0  0  0  0  0  0  0  0  0  0  0
    9.9356   -2.4350   25.8502 C   0  0  0  0  0  0  0  0  0  0  0  0
   10.4711   -4.0490   20.0920 C   0  0  0  0  0  0  0  0  0  0  0  0
  1  8  1  0
  1 12  4  0
  1 14  4  0
  2  3  4  0
  2 24  4  0
  3 20  4  0
  3 22  4  0
  4 11  4  0
  4 21  4  0
  5  9  4  0
  5 15  4  0
  6 16  4  0
  6 18  4  0
  7 22  4  0
  7 26  4  0
  8 10  4  0
  8 25  4  0
  9 16  4  0
 10 21  4  0
 11 25  4  0
 12 23  4  0
 13 17  4  0
 13 20  4  0
 14 19  4  0
 15 18  4  0
 17 24  4  0
 18 24  1  0
 19 23  4  0
 20 26  4  0
 23 26  1  0
M  END
$$$$

 Created by Python create_sdf_string function

 26 35  0  0  0  0  0  0  0  0999 V2000
   10.2081   -2.9319   23.3905 C   0  0  0  0  0  0  0  0  0  0  0  0
    9.0413   -5.5582   17.2828 C   0  0  0  0  0  0  0  0  0  0  0  0
    9.7150   -4.6720   18.0214 C   0  0  0  0  0  0  0  0  0  0  0  0
    8.9340   -0.3277   26.5328 C   0  0  0  0  0  0  0  0  0  0  0  0
    6.9152   -9.0450   15.3991 C   0  0  0  0  0  0  0  0  0  0  0  0
    6.3897   -7.5098   17.5712 C   0  0  0  0  0  0  0  0  0  0  0  0
   10.5333   -3.0320   19.1215 C   0  0  0  0  0  0  0  0  0  0  0  0
    9.9181   -2.0322   24.5720 C   0  0  0  0  0  0  0  0  0  0  0  0
    5.5300   -9.1835   16.0742 C   0  0  0  0  0  0  0  0  0  0  0  0
    9.5388   -0.6507   24.1601 C   0  0  0  0  0  0  0  0  0  0  0  0
    9.5111   -1.5722   26.8292 C   0  0  0  0  0  0  0  0  0  0  0  0
   10.3206   -2.6832   22.2064 C   0  0  0  0  0  0  0  0  0  0  0  0
    9.9884   -6.5501   19.7243 C   0  0  0  0  0  0  0  0  0  0  0  0
   10.6392   -4.1404   23.5566 N   0  0  0  0  0  0  0  0  0  0  0  0
    7.7800   -8.2907   15.8327 C   0  0  0  0  0  0  0  0  0  0  0  0
    5.3845   -8.3495   17.1406 C   0  0  0  0  0  0  0  0  0  0  0  0
    9.3124   -7.4393   18.8773 C   0  0  0  0  0  0  0  0  0  0  0  0
    7.6522   -7.6790   17.1244 C   0  0  0  0  0  0  0  0  0  0  0  0
   10.9465   -4.8247   22.3386 N   0  0  0  0  0  0  0  0  0  0  0  0
   10.0473   -5.2398   19.3097 C   0  0  0  0  0  0  0  0  0  0  0  0
    9.0323    0.1173   25.2271 C   0  0  0  0  0  0  0  0  0  0  0  0
   10.0665   -3.5762   17.9010 N   0  0  0  0  0  0  0  0  0  0  0  0
   10.5452   -3.7792   21.4178 C   0  0  0  0  0  0  0  0  0  0  0  0
    8.6629   -6.8195   17.6970 C   0  0  0  0  0  0  0  0  0  0  0  0
    9.8728   -2.4035   25.8258 C   0  0  0  0  0  0  0  0  0  0  0  0
   10.5133   -4.0773   20.0801 C   0  0  0  0  0  0  0  0  0  0  0  0
  1  8  1  0
  1 12  4  0
  1 14  4  0
  2  3  4  0
  2 24  4  0
  3 20  4  0
  3 22  4  0
  4 11  4  0
  4 20  3  0
  4 21  4  0
  5  9  4  0
  5 15  4  0
  5 18  3  0
  6 16  4  0
  6 18  4  0
  7 20  3  0
  7 22  4  0
  8 10  4  0
  8 17  1  0
  8 25  4  0
  9 16  4  0
  9 23  4  0
 10 21  4  0
 11 25  4  0
 12 23  4  0
 12 24  4  0
 13 17  4  0
 13 20  4  0
 14 19  4  0
 15 18  4  0
 17 24  4  0
 18 24  1  0
 19 23  4  0
 20 26  4  0
 23 26  1  0
M  END
$$$$

 Created by Python create_sdf_string function

 26 30  0  0  0  0  0  0  0  0999 V2000
   10.2708   -2.8974   23.4626 C   0  0  0  0  0  0  0  0  0  0  0  0
    9.0041   -5.6038   17.2521 C   0  0  0  0  0  0  0  0  0  0  0  0
    9.7071   -4.8085   18.0652 C   0  0  0  0  0  0  0  0  0  0  0  0
    8.9877   -0.3140   26.5289 C   0  0  0  0  0  0  0  0  0  0  0  0
    6.8045   -9.0725   15.4395 C   0  0  0  0  0  0  0  0  0  0  0  0
    6.3677   -7.5893   17.6311 C   0  0  0  0  0  0  0  0  0  0  0  0
   10.5563   -3.0499   19.1410 C   0  0  0  0  0  0  0  0  0  0  0  0
    9.8795   -1.9951   24.5256 C   0  0  0  0  0  0  0  0  0  0  0  0
    5.6202   -9.1098   16.0454 C   0  0  0  0  0  0  0  0  0  0  0  0
    9.5053   -0.6982   24.1914 C   0  0  0  0  0  0  0  0  0  0  0  0
    9.4610   -1.5898   26.8527 C   0  0  0  0  0  0  0  0  0  0  0  0
   10.2984   -2.6740   22.1159 C   0  0  0  0  0  0  0  0  0  0  0  0
   10.0078   -6.5214   19.7162 C   0  0  0  0  0  0  0  0  0  0  0  0
   10.6578   -4.1763   23.6071 N   0  0  0  0  0  0  0  0  0  0  0  0
    7.8027   -8.3145   15.9332 C   0  0  0  0  0  0  0  0  0  0  0  0
    5.3765   -8.3522   17.1164 C   0  0  0  0  0  0  0  0  0  0  0  0
    9.2918   -7.3912   18.8627 C   0  0  0  0  0  0  0  0  0  0  0  0
    7.6236   -7.5820   17.0900 C   0  0  0  0  0  0  0  0  0  0  0  0
   10.8599   -4.7547   22.3456 N   0  0  0  0  0  0  0  0  0  0  0  0
   10.0703   -5.2293   19.3529 C   0  0  0  0  0  0  0  0  0  0  0  0
    9.0290    0.1480   25.2043 C   0  0  0  0  0  0  0  0  0  0  0  0
   10.0879   -3.5165   17.9045 N   0  0  0  0  0  0  0  0  0  0  0  0
   10.5561   -3.8209   21.4402 C   0  0  0  0  0  0  0  0  0  0  0  0
    8.6433   -6.8614   17.7051 C   0  0  0  0  0  0  0  0  0  0  0  0
    9.8898   -2.4270   25.8272 C   0  0  0  0  0  0  0  0  0  0  0  0
   10.4498   -4.0535   20.0796 C   0  0  0  0  0  0  0  0  0  0  0  0
  1  8  1  0
  1 12  4  0
  1 14  4  0
  2  3  4  0
  2 24  4  0
  3 20  4  0
  3 22  4  0
  4 11  4  0
  4 21  4  0
  5  9  4  0
  5 15  4  0
  6 16  4  0
  6 18  4  0
  7 22  4  0
  7 26  4  0
  8 10  4  0
  8 25  4  0
  9 16  4  0
 10 21  4  0
 11 25  4  0
 12 23  4  0
 13 17  4  0
 13 20  4  0
 14 19  4  0
 15 18  4  0
 17 24  4  0
 18 24  1  0
 19 23  4  0
 20 26  4  0
 23 26  1  0
M  END
$$$$

 Created by Python create_sdf_string function

 26 33  0  0  0  0  0  0  0  0999 V2000
   10.2904   -2.8739   23.4772 C   0  0  0  0  0  0  0  0  0  0  0  0
    8.9674   -5.6787   17.2901 C   0  0  0  0  0  0  0  0  0  0  0  0
    9.7080   -4.7294   18.0620 C   0  0  0  0  0  0  0  0  0  0  0  0
    8.9765   -0.3841   26.6132 C   0  0  0  0  0  0  0  0  0  0  0  0
    6.8554   -9.0906   15.4664 C   0  0  0  0  0  0  0  0  0  0  0  0
   10.6175   -2.9571   19.2095 C   0  0  0  0  0  0  0  0  0  0  0  0
    9.8649   -1.9850   24.5125 C   0  0  0  0  0  0  0  0  0  0  0  0
    5.5795   -9.0443   16.0279 C   0  0  0  0  0  0  0  0  0  0  0  0
    9.5837   -0.7482   24.1929 C   0  0  0  0  0  0  0  0  0  0  0  0
    9.4499   -1.5313   26.7546 C   0  0  0  0  0  0  0  0  0  0  0  0
   10.2748   -2.6521   22.1179 C   0  0  0  0  0  0  0  0  0  0  0  0
    9.9813   -6.6393   19.6101 C   0  0  0  0  0  0  0  0  0  0  0  0
   10.6272   -4.2534   23.7166 N   0  0  0  0  0  0  0  0  0  0  0  0
    7.8475   -8.3252   16.0556 C   0  0  0  0  0  0  0  0  0  0  0  0
    5.3792   -8.4634   17.1331 C   0  0  0  0  0  0  0  0  0  0  0  0
    9.3059   -7.2850   18.8879 C   0  0  0  0  0  0  0  0  0  0  0  0
    7.5377   -7.5877   17.1737 C   0  0  0  0  0  0  0  0  0  0  0  0
   10.8238   -4.8554   22.3769 N   0  0  0  0  0  0  0  0  0  0  0  0
   10.1215   -5.2934   19.3405 C   0  0  0  0  0  0  0  0  0  0  0  0
    9.0299    0.2465   25.2545 C   0  0  0  0  0  0  0  0  0  0  0  0
   10.1171   -3.4713   17.9138 N   0  0  0  0  0  0  0  0  0  0  0  0
   10.6034   -3.9048   21.3591 C   0  0  0  0  0  0  0  0  0  0  0  0
    8.6337   -6.8145   17.8156 C   0  0  0  0  0  0  0  0  0  0  0  0
    9.8543   -2.4282   25.8578 C   0  0  0  0  0  0  0  0  0  0  0  0
   10.4644   -4.1162   20.1437 C   0  0  0  0  0  0  0  0  0  0  0  0
    6.3046   -7.6566   17.7115 He  0  0  0  0  0  0  0  0  0  0  0  0
  1  7  1  0
  1 11  4  0
  1 13  4  0
  2  3  4  0
  2 23  4  0
  3 19  1  0
  3 21  4  0
  3 24  1  0
  4  7  3  0
  4 10  4  0
  4 20  4  0
  5  8  4  0
  5 14  4  0
  6 12  1  0
  6 15  2  0
  6 21  4  0
  6 25  4  0
  7  9  4  0
  7 24  4  0
  8 15  4  0
  9 20  4  0
 10 24  4  0
 11 22  4  0
 12 16  4  0
 12 19  4  0
 12 21  2  0
 13 18  4  0
 14 17  4  0
 16 23  4  0
 17 23  1  0
 18 22  4  0
 19 25  4  0
 22 25  1  0
M  END
$$$$

 Created by Python create_sdf_string function

 26 30  0  0  0  0  0  0  0  0999 V2000
   10.2698   -2.9179   23.4787 C   0  0  0  0  0  0  0  0  0  0  0  0
    8.9557   -5.6135   17.3048 C   0  0  0  0  0  0  0  0  0  0  0  0
    9.7098   -4.8060   18.0857 C   0  0  0  0  0  0  0  0  0  0  0  0
    9.0050   -0.3137   26.5432 C   0  0  0  0  0  0  0  0  0  0  0  0
    6.8392   -9.0575   15.4798 C   0  0  0  0  0  0  0  0  0  0  0  0
    6.3226   -7.6693   17.7162 C   0  0  0  0  0  0  0  0  0  0  0  0
   10.5937   -3.0451   19.1863 C   0  0  0  0  0  0  0  0  0  0  0  0
    9.8861   -2.0067   24.5339 C   0  0  0  0  0  0  0  0  0  0  0  0
    5.6333   -9.0886   16.0169 C   0  0  0  0  0  0  0  0  0  0  0  0
    9.5245   -0.7059   24.2055 C   0  0  0  0  0  0  0  0  0  0  0  0
    9.4190   -1.5890   26.8405 C   0  0  0  0  0  0  0  0  0  0  0  0
   10.3100   -2.6711   22.1321 C   0  0  0  0  0  0  0  0  0  0  0  0
   10.0387   -6.5348   19.6918 C   0  0  0  0  0  0  0  0  0  0  0  0
   10.6335   -4.2013   23.6589 N   0  0  0  0  0  0  0  0  0  0  0  0
    7.7958   -8.3192   16.0531 C   0  0  0  0  0  0  0  0  0  0  0  0
    5.3601   -8.4068   17.1307 C   0  0  0  0  0  0  0  0  0  0  0  0
    9.2715   -7.3719   18.8609 C   0  0  0  0  0  0  0  0  0  0  0  0
    7.5798   -7.6163   17.1769 C   0  0  0  0  0  0  0  0  0  0  0  0
   10.8070   -4.7962   22.3983 N   0  0  0  0  0  0  0  0  0  0  0  0
   10.0958   -5.2470   19.3712 C   0  0  0  0  0  0  0  0  0  0  0  0
    9.0554    0.1759   25.2210 C   0  0  0  0  0  0  0  0  0  0  0  0
   10.1137   -3.5116   17.9334 N   0  0  0  0  0  0  0  0  0  0  0  0
   10.5462   -3.8509   21.4767 C   0  0  0  0  0  0  0  0  0  0  0  0
    8.5950   -6.8717   17.7622 C   0  0  0  0  0  0  0  0  0  0  0  0
    9.8605   -2.4469   25.8372 C   0  0  0  0  0  0  0  0  0  0  0  0
   10.4698   -4.0880   20.1220 C   0  0  0  0  0  0  0  0  0  0  0  0
  1  8  1  0
  1 12  4  0
  1 14  4  0
  2  3  4  0
  2 24  4  0
  3 20  4  0
  3 22  4  0
  4 11  4  0
  4 21  4  0
  5  9  4  0
  5 15  4  0
  6 16  4  0
  6 18  4  0
  7 22  4  0
  7 26  4  0
  8 10  4  0
  8 25  4  0
  9 16  4  0
 10 21  4  0
 11 25  4  0
 12 23  4  0
 13 17  4  0
 13 20  4  0
 14 19  4  0
 15 18  4  0
 17 24  4  0
 18 24  1  0
 19 23  4  0
 20 26  4  0
 23 26  1  0
M  END
$$$$

 Created by Python create_sdf_string function

 26 32  0  0  0  0  0  0  0  0999 V2000
   10.2894   -2.8803   23.4956 C   0  0  0  0  0  0  0  0  0  0  0  0
    9.0665   -5.5560   17.3377 C   0  0  0  0  0  0  0  0  0  0  0  0
    9.6498   -4.8088   18.0401 C   0  0  0  0  0  0  0  0  0  0  0  0
    9.1018   -0.3195   26.5126 C   0  0  0  0  0  0  0  0  0  0  0  0
    6.7886   -8.9943   15.4424 C   0  0  0  0  0  0  0  0  0  0  0  0
    6.2935   -7.5852   17.6041 C   0  0  0  0  0  0  0  0  0  0  0  0
   10.6051   -3.0755   19.1644 C   0  0  0  0  0  0  0  0  0  0  0  0
    9.9070   -1.9449   24.5891 C   0  0  0  0  0  0  0  0  0  0  0  0
    5.6284   -9.0676   16.0068 C   0  0  0  0  0  0  0  0  0  0  0  0
    9.6196   -0.6873   24.1300 C   0  0  0  0  0  0  0  0  0  0  0  0
    9.4919   -1.5642   26.8891 C   0  0  0  0  0  0  0  0  0  0  0  0
   10.3068   -2.6356   22.1233 C   0  0  0  0  0  0  0  0  0  0  0  0
   10.1085   -6.6672   19.8026 C   0  0  0  0  0  0  0  0  0  0  0  0
   10.6227   -4.1414   23.6952 N   0  0  0  0  0  0  0  0  0  0  0  0
    7.7829   -8.2792   16.0189 C   0  0  0  0  0  0  0  0  0  0  0  0
    5.3709   -8.3089   17.1468 C   0  0  0  0  0  0  0  0  0  0  0  0
    9.2438   -7.3389   18.8945 Cl  0  0  0  0  0  0  0  0  0  0  0  0
    7.5153   -7.7081   17.2052 C   0  0  0  0  0  0  0  0  0  0  0  0
   10.8071   -4.7498   22.4240 N   0  0  0  0  0  0  0  0  0  0  0  0
   10.0640   -5.2415   19.3324 C   0  0  0  0  0  0  0  0  0  0  0  0
    9.1121    0.1377   25.2716 C   0  0  0  0  0  0  0  0  0  0  0  0
   10.1554   -3.5119   17.9070 N   0  0  0  0  0  0  0  0  0  0  0  0
   10.6414   -3.8446   21.4234 C   0  0  0  0  0  0  0  0  0  0  0  0
    8.6042   -6.8229   17.7380 C   0  0  0  0  0  0  0  0  0  0  0  0
    9.8001   -2.4041   25.8177 C   0  0  0  0  0  0  0  0  0  0  0  0
   10.5299   -4.1005   20.0565 C   0  0  0  0  0  0  0  0  0  0  0  0
  1  8  1  0
  1 12  4  0
  1 14  4  0
  2  3  4  0
  2 11  2  0
  2 21  3  0
  2 24  4  0
  3 20  4  0
  3 22  4  0
  4 11  4  0
  4 21  4  0
  5  9  4  0
  5 15  4  0
  5 16  2  0
  6 16  4  0
  6 18  4  0
  7 22  4  0
  7 26  4  0
  8 10  4  0
  9 16  4  0
 10 21  4  0
 11 25  4  0
 12 23  4  0
 13 17  4  0
 13 20  4  0
 14 19  4  0
 15 18  4  0
 17 24  4  0
 18 24  1  0
 19 23  4  0
 20 26  4  0
 23 26  1  0
M  END
$$$$

 Created by Python create_sdf_string function

 26 30  0  0  0  0  0  0  0  0999 V2000
   10.2830   -2.8800   23.4790 C   0  0  0  0  0  0  0  0  0  0  0  0
    8.9971   -5.5883   17.3006 C   0  0  0  0  0  0  0  0  0  0  0  0
    9.7292   -4.8218   18.1092 C   0  0  0  0  0  0  0  0  0  0  0  0
    9.0972   -0.2922   26.5298 C   0  0  0  0  0  0  0  0  0  0  0  0
    6.8001   -9.0194   15.4580 C   0  0  0  0  0  0  0  0  0  0  0  0
    6.3078   -7.6046   17.6790 C   0  0  0  0  0  0  0  0  0  0  0  0
   10.6122   -3.0766   19.1787 C   0  0  0  0  0  0  0  0  0  0  0  0
    9.9008   -1.9875   24.5307 C   0  0  0  0  0  0  0  0  0  0  0  0
    5.6109   -9.0421   16.0084 C   0  0  0  0  0  0  0  0  0  0  0  0
    9.5734   -0.6664   24.1870 C   0  0  0  0  0  0  0  0  0  0  0  0
    9.4669   -1.5899   26.8698 C   0  0  0  0  0  0  0  0  0  0  0  0
   10.3383   -2.6425   22.1230 C   0  0  0  0  0  0  0  0  0  0  0  0
   10.0350   -6.5654   19.7500 C   0  0  0  0  0  0  0  0  0  0  0  0
   10.6345   -4.1616   23.6686 N   0  0  0  0  0  0  0  0  0  0  0  0
    7.7942   -8.2973   16.0202 C   0  0  0  0  0  0  0  0  0  0  0  0
    5.3358   -8.3420   17.0987 C   0  0  0  0  0  0  0  0  0  0  0  0
    9.2421   -7.3791   18.8870 C   0  0  0  0  0  0  0  0  0  0  0  0
    7.5648   -7.5895   17.1527 C   0  0  0  0  0  0  0  0  0  0  0  0
   10.8148   -4.7543   22.4371 N   0  0  0  0  0  0  0  0  0  0  0  0
   10.1062   -5.2525   19.3940 C   0  0  0  0  0  0  0  0  0  0  0  0
    9.1374    0.1775   25.2121 C   0  0  0  0  0  0  0  0  0  0  0  0
   10.1370   -3.5237   17.9394 N   0  0  0  0  0  0  0  0  0  0  0  0
   10.5655   -3.8308   21.4843 C   0  0  0  0  0  0  0  0  0  0  0  0
    8.5960   -6.8486   17.7576 C   0  0  0  0  0  0  0  0  0  0  0  0
    9.8489   -2.4357   25.8351 C   0  0  0  0  0  0  0  0  0  0  0  0
   10.4868   -4.0862   20.1185 C   0  0  0  0  0  0  0  0  0  0  0  0
  1  8  1  0
  1 12  4  0
  1 14  4  0
  2  3  4  0
  2 24  4  0
  3 20  4  0
  3 22  4  0
  4 11  4  0
  4 21  4  0
  5  9  4  0
  5 15  4  0
  6 16  4  0
  6 18  4  0
  7 22  4  0
  7 26  4  0
  8 10  4  0
  8 25  4  0
  9 16  4  0
 10 21  4  0
 11 25  4  0
 12 23  4  0
 13 17  4  0
 13 20  4  0
 14 19  4  0
 15 18  4  0
 17 24  4  0
 18 24  1  0
 19 23  4  0
 20 26  4  0
 23 26  1  0
M  END
$$$$

 Created by Python create_sdf_string function

 26 31  0  0  0  0  0  0  0  0999 V2000
   10.2852   -2.8323   23.4972 C   0  0  0  0  0  0  0  0  0  0  0  0
    9.0205   -5.6014   17.2991 C   0  0  0  0  0  0  0  0  0  0  0  0
    9.7501   -4.8338   18.0746 C   0  0  0  0  0  0  0  0  0  0  0  0
    9.0839   -0.3796   26.4918 C   0  0  0  0  0  0  0  0  0  0  0  0
    6.8709   -8.9702   15.4374 C   0  0  0  0  0  0  0  0  0  0  0  0
    6.3398   -7.5686   17.6367 C   0  0  0  0  0  0  0  0  0  0  0  0
   10.5893   -3.1308   19.2084 C   0  0  0  0  0  0  0  0  0  0  0  0
    9.9065   -1.9180   24.4994 C   0  0  0  0  0  0  0  0  0  0  0  0
    5.6365   -9.0735   16.0141 C   0  0  0  0  0  0  0  0  0  0  0  0
    9.5206   -0.6888   24.2018 C   0  0  0  0  0  0  0  0  0  0  0  0
    9.4713   -1.5960   26.8939 C   0  0  0  0  0  0  0  0  0  0  0  0
   10.3157   -2.6025   22.1045 C   0  0  0  0  0  0  0  0  0  0  0  0
    9.9939   -6.5820   19.7232 C   0  0  0  0  0  0  0  0  0  0  0  0
   10.6883   -4.1354   23.5902 N   0  0  0  0  0  0  0  0  0  0  0  0
    7.8217   -8.2385   15.9751 C   0  0  0  0  0  0  0  0  0  0  0  0
    5.2873   -8.3486   17.1197 C   0  0  0  0  0  0  0  0  0  0  0  0
    9.2819   -7.2972   18.8665 C   0  0  0  0  0  0  0  0  0  0  0  0
    7.5807   -7.5342   17.0969 C   0  0  0  0  0  0  0  0  0  0  0  0
   10.7483   -4.7181   22.4457 N   0  0  0  0  0  0  0  0  0  0  0  0
   10.1429   -5.2260   19.3622 C   0  0  0  0  0  0  0  0  0  0  0  0
    9.2206    0.1693   25.1598 C   0  0  0  0  0  0  0  0  0  0  0  0
   10.2055   -3.5052   17.8008 N   0  0  0  0  0  0  0  0  0  0  0  0
   10.5442   -3.8960   21.4581 C   0  0  0  0  0  0  0  0  0  0  0  0
    8.6416   -6.8779   17.7721 C   0  0  0  0  0  0  0  0  0  0  0  0
    9.8626   -2.3930   25.8332 C   0  0  0  0  0  0  0  0  0  0  0  0
   10.5132   -4.0646   20.0960 C   0  0  0  0  0  0  0  0  0  0  0  0
  1  8  1  0
  1 12  4  0
  1 14  4  0
  2  3  4  0
  2 24  4  0
  3 20  4  0
  3 22  4  0
  4 11  4  0
  4 21  4  0
  5  9  4  0
  5 15  4  0
  6 16  4  0
  6 18  1  0
  7 22  4  0
  7 26  4  0
  8 10  4  0
  8 25  4  0
  9 16  4  0
 10 21  4  0
 11 25  4  0
 12 23  4  0
 13 17  4  0
 13 20  4  0
 14 19  4  0
 15 18  4  0
 17 24  4  0
 18 21  2  0
 18 24  1  0
 19 23  4  0
 20 26  4  0
 23 26  1  0
M  END
$$$$

 Created by Python create_sdf_string function

 26 30  0  0  0  0  0  0  0  0999 V2000
   10.2838   -2.8529   23.4551 C   0  0  0  0  0  0  0  0  0  0  0  0
    9.0299   -5.6021   17.2877 C   0  0  0  0  0  0  0  0  0  0  0  0
    9.7599   -4.8372   18.0809 C   0  0  0  0  0  0  0  0  0  0  0  0
    9.0975   -0.3092   26.5015 C   0  0  0  0  0  0  0  0  0  0  0  0
    6.8275   -8.9901   15.4448 C   0  0  0  0  0  0  0  0  0  0  0  0
    6.3180   -7.5868   17.6635 C   0  0  0  0  0  0  0  0  0  0  0  0
   10.6181   -3.0820   19.1634 C   0  0  0  0  0  0  0  0  0  0  0  0
    9.9043   -1.9778   24.5085 C   0  0  0  0  0  0  0  0  0  0  0  0
    5.6262   -9.0488   16.0036 C   0  0  0  0  0  0  0  0  0  0  0  0
    9.5536   -0.6737   24.1776 C   0  0  0  0  0  0  0  0  0  0  0  0
    9.4671   -1.6029   26.8549 C   0  0  0  0  0  0  0  0  0  0  0  0
   10.3181   -2.6258   22.1065 C   0  0  0  0  0  0  0  0  0  0  0  0
   10.0080   -6.5402   19.7354 C   0  0  0  0  0  0  0  0  0  0  0  0
   10.6538   -4.1241   23.6430 N   0  0  0  0  0  0  0  0  0  0  0  0
    7.8129   -8.2484   15.9806 C   0  0  0  0  0  0  0  0  0  0  0  0
    5.3436   -8.3384   17.1018 C   0  0  0  0  0  0  0  0  0  0  0  0
    9.2559   -7.3547   18.8670 C   0  0  0  0  0  0  0  0  0  0  0  0
    7.5908   -7.5614   17.1245 C   0  0  0  0  0  0  0  0  0  0  0  0
   10.7735   -4.7372   22.4189 N   0  0  0  0  0  0  0  0  0  0  0  0
   10.0985   -5.2460   19.3806 C   0  0  0  0  0  0  0  0  0  0  0  0
    9.1631    0.1757   25.2066 C   0  0  0  0  0  0  0  0  0  0  0  0
   10.1967   -3.5343   17.9033 N   0  0  0  0  0  0  0  0  0  0  0  0
   10.5374   -3.8139   21.4870 C   0  0  0  0  0  0  0  0  0  0  0  0
    8.6259   -6.8390   17.7420 C   0  0  0  0  0  0  0  0  0  0  0  0
    9.8808   -2.4312   25.8066 C   0  0  0  0  0  0  0  0  0  0  0  0
   10.4692   -4.0755   20.1194 C   0  0  0  0  0  0  0  0  0  0  0  0
  1  8  1  0
  1 12  4  0
  1 14  4  0
  2  3  4  0
  2 24  4  0
  3 20  4  0
  3 22  4  0
  4 11  4  0
  4 21  4  0
  5  9  4  0
  5 15  4  0
  6 16  4  0
  6 18  4  0
  7 22  4  0
  7 26  4  0
  8 10  4  0
  8 25  4  0
  9 16  4  0
 10 21  4  0
 11 25  4  0
 12 23  4  0
 13 17  4  0
 13 20  4  0
 14 19  4  0
 15 18  4  0
 17 24  4  0
 18 24  1  0
 19 23  4  0
 20 26  4  0
 23 26  1  0
M  END
$$$$

 Created by Python create_sdf_string function

 26 35  0  0  0  0  0  0  0  0999 V2000
   10.2492   -2.8455   23.5137 C   0  0  0  0  0  0  0  0  0  0  0  0
    9.0022   -5.5799   17.3369 C   0  0  0  0  0  0  0  0  0  0  0  0
    9.8693   -4.8481   18.1202 C   0  0  0  0  0  0  0  0  0  0  0  0
    9.1729   -0.3306   26.5254 C   0  0  0  0  0  0  0  0  0  0  0  0
    6.8549   -9.0256   15.3956 C   0  0  0  0  0  0  0  0  0  0  0  0
    6.2448   -7.5776   17.6397 C   0  0  0  0  0  0  0  0  0  0  0  0
   10.6387   -3.0978   19.2099 C   0  0  0  0  0  0  0  0  0  0  0  0
    9.9730   -2.0063   24.4778 C   0  0  0  0  0  0  0  0  0  0  0  0
    5.5791   -9.0278   16.0526 C   0  0  0  0  0  0  0  0  0  0  0  0
    9.5823   -0.7141   24.2274 C   0  0  0  0  0  0  0  0  0  0  0  0
    9.4283   -1.5928   26.8693 C   0  0  0  0  0  0  0  0  0  0  0  0
   10.3236   -2.6940   22.0529 C   0  0  0  0  0  0  0  0  0  0  0  0
    9.9689   -6.5667   19.7341 C   0  0  0  0  0  0  0  0  0  0  0  0
   10.6457   -4.0793   23.6361 N   0  0  0  0  0  0  0  0  0  0  0  0
    7.8730   -8.2301   16.0003 C   0  0  0  0  0  0  0  0  0  0  0  0
    5.3118   -8.2827   17.1532 C   0  0  0  0  0  0  0  0  0  0  0  0
    9.2337   -7.3556   18.8063 C   0  0  0  0  0  0  0  0  0  0  0  0
    7.6325   -7.5986   17.1551 C   0  0  0  0  0  0  0  0  0  0  0  0
   10.7773   -4.8252   22.4160 N   0  0  0  0  0  0  0  0  0  0  0  0
   10.1579   -5.2147   19.3696 C   0  0  0  0  0  0  0  0  0  0  0  0
    9.1793    0.1255   25.1596 C   0  0  0  0  0  0  0  0  0  0  0  0
   10.1614   -3.5141   17.8684 N   0  0  0  0  0  0  0  0  0  0  0  0
   10.4784   -3.7951   21.4604 C   0  0  0  0  0  0  0  0  0  0  0  0
    8.6222   -6.8793   17.7222 C   0  0  0  0  0  0  0  0  0  0  0  0
    9.9331   -2.4267   25.7552 C   0  0  0  0  0  0  0  0  0  0  0  0
   10.4542   -4.0787   20.2108 C   0  0  0  0  0  0  0  0  0  0  0  0
  1  8  1  0
  1 12  4  0
  1 14  4  0
  2  3  4  0
  2 24  4  0
  3 20  4  0
  3 22  4  0
  4 11  4  0
  4 21  4  0
  5  9  4  0
  5 10  3  0
  5 15  4  0
  6  9  3  0
  6 16  4  0
  6 18  4  0
  7 22  4  0
  7 26  4  0
  8 10  4  0
  8 11  4  0
  8 17  2  0
  8 25  4  0
  9 16  4  0
 10 21  4  0
 11 25  4  0
 12 23  4  0
 13 17  4  0
 13 20  4  0
 14 19  4  0
 15 18  4  0
 17 24  4  0
 18 24  1  0
 19 23  4  0
 20 25  2  0
 20 26  4  0
 23 26  1  0
M  END
$$$$

 Created by Python create_sdf_string function

 26 30  0  0  0  0  0  0  0  0999 V2000
   10.2825   -2.8601   23.4528 C   0  0  0  0  0  0  0  0  0  0  0  0
    9.0405   -5.5974   17.2952 C   0  0  0  0  0  0  0  0  0  0  0  0
    9.7771   -4.8258   18.0975 C   0  0  0  0  0  0  0  0  0  0  0  0
    9.1378   -0.2979   26.5109 C   0  0  0  0  0  0  0  0  0  0  0  0
    6.8275   -9.0026   15.4522 C   0  0  0  0  0  0  0  0  0  0  0  0
    6.3184   -7.5715   17.6778 C   0  0  0  0  0  0  0  0  0  0  0  0
   10.6323   -3.0658   19.1868 C   0  0  0  0  0  0  0  0  0  0  0  0
    9.9221   -1.9825   24.5137 C   0  0  0  0  0  0  0  0  0  0  0  0
    5.6123   -9.0196   16.0099 C   0  0  0  0  0  0  0  0  0  0  0  0
    9.5838   -0.6852   24.1763 C   0  0  0  0  0  0  0  0  0  0  0  0
    9.4780   -1.6146   26.8467 C   0  0  0  0  0  0  0  0  0  0  0  0
   10.3092   -2.6523   22.0954 N   0  0  0  0  0  0  0  0  0  0  0  0
    9.9934   -6.5403   19.7278 C   0  0  0  0  0  0  0  0  0  0  0  0
   10.6356   -4.1207   23.6421 N   0  0  0  0  0  0  0  0  0  0  0  0
    7.8208   -8.2724   16.0080 C   0  0  0  0  0  0  0  0  0  0  0  0
    5.3302   -8.3023   17.1098 C   0  0  0  0  0  0  0  0  0  0  0  0
    9.2556   -7.3563   18.8720 C   0  0  0  0  0  0  0  0  0  0  0  0
    7.5775   -7.5660   17.1372 C   0  0  0  0  0  0  0  0  0  0  0  0
   10.7610   -4.7705   22.4047 N   0  0  0  0  0  0  0  0  0  0  0  0
   10.0996   -5.2547   19.3968 C   0  0  0  0  0  0  0  0  0  0  0  0
    9.1753    0.1700   25.1950 C   0  0  0  0  0  0  0  0  0  0  0  0
   10.2071   -3.5333   17.9371 N   0  0  0  0  0  0  0  0  0  0  0  0
   10.5213   -3.8346   21.4762 C   0  0  0  0  0  0  0  0  0  0  0  0
    8.6166   -6.8374   17.7436 C   0  0  0  0  0  0  0  0  0  0  0  0
    9.9102   -2.4520   25.8117 C   0  0  0  0  0  0  0  0  0  0  0  0
   10.4633   -4.0765   20.1325 C   0  0  0  0  0  0  0  0  0  0  0  0
  1  8  1  0
  1 12  4  0
  1 14  4  0
  2  3  4  0
  2 24  4  0
  3 20  4  0
  3 22  4  0
  4 11  4  0
  4 21  4  0
  5  9  4  0
  5 15  4  0
  6 16  4  0
  6 18  4  0
  7 22  4  0
  7 26  4  0
  8 10  4  0
  8 25  4  0
  9 16  4  0
 10 21  4  0
 11 25  4  0
 12 23  4  0
 13 17  4  0
 13 20  4  0
 14 19  4  0
 15 18  4  0
 17 24  4  0
 18 24  1  0
 19 23  4  0
 20 26  4  0
 23 26  1  0
M  END
$$$$

 Created by Python create_sdf_string function

 26 33  0  0  0  0  0  0  0  0999 V2000
   10.2716   -2.8284   23.4377 C   0  0  0  0  0  0  0  0  0  0  0  0
    9.0249   -5.6175   17.3452 C   0  0  0  0  0  0  0  0  0  0  0  0
    9.7744   -4.7824   18.1075 C   0  0  0  0  0  0  0  0  0  0  0  0
    9.1254   -0.2899   26.5071 C   0  0  0  0  0  0  0  0  0  0  0  0
    6.7825   -8.9913   15.4855 C   0  0  0  0  0  0  0  0  0  0  0  0
    6.3156   -7.5938   17.6794 C   0  0  0  0  0  0  0  0  0  0  0  0
   10.6201   -3.0576   19.1956 C   0  0  0  0  0  0  0  0  0  0  0  0
    9.8617   -1.9423   24.4769 C   0  0  0  0  0  0  0  0  0  0  0  0
    5.6452   -9.0124   16.0196 C   0  0  0  0  0  0  0  0  0  0  0  0
    9.5444   -0.7190   24.1297 C   0  0  0  0  0  0  0  0  0  0  0  0
    9.4942   -1.6233   26.8904 C   0  0  0  0  0  0  0  0  0  0  0  0
   10.2922   -2.6427   22.0778 N   0  0  0  0  0  0  0  0  0  0  0  0
   10.0112   -6.5373   19.7404 C   0  0  0  0  0  0  0  0  0  0  0  0
   10.7007   -4.0207   23.6617 N   0  0  0  0  0  0  0  0  0  0  0  0
    7.8045   -8.2546   16.0368 C   0  0  0  0  0  0  0  0  0  0  0  0
    5.2560   -8.3196   17.1175 C   0  0  0  0  0  0  0  0  0  0  0  0
    9.2937   -7.3457   18.8607 Cl  0  0  0  0  0  0  0  0  0  0  0  0
    7.6317   -7.5970   17.1235 C   0  0  0  0  0  0  0  0  0  0  0  0
   10.7321   -4.7436   22.3876 N   0  0  0  0  0  0  0  0  0  0  0  0
   10.1442   -5.2407   19.4058 C   0  0  0  0  0  0  0  0  0  0  0  0
    9.2077    0.1396   25.2548 C   0  0  0  0  0  0  0  0  0  0  0  0
   10.1735   -3.5674   17.9539 N   0  0  0  0  0  0  0  0  0  0  0  0
   10.4488   -3.8026   21.4925 C   0  0  0  0  0  0  0  0  0  0  0  0
    8.6674   -6.8639   17.7430 C   0  0  0  0  0  0  0  0  0  0  0  0
    9.9596   -2.5231   25.8644 C   0  0  0  0  0  0  0  0  0  0  0  0
   10.4744   -4.0555   20.1181 C   0  0  0  0  0  0  0  0  0  0  0  0
  1  8  1  0
  1 12  4  0
  1 14  4  0
  2  3  4  0
  2 24  4  0
  3 20  4  0
  3 22  4  0
  4 11  4  0
  4 21  4  0
  5  9  4  0
  5 15  4  0
  6 16  4  0
  6 18  4  0
  7 22  4  0
  7 26  4  0
  8 10  4  0
  8 25  4  0
  9 16  4  0
  9 26  3  0
 10 21  4  0
 10 22  4  0
 11 25  4  0
 12 13  4  0
 12 23  4  0
 13 17  4  0
 13 20  4  0
 14 19  4  0
 15 18  4  0
 17 24  4  0
 18 24  1  0
 19 23  4  0
 20 26  4  0
 23 26  1  0
M  END
$$$$

 Created by Python create_sdf_string function

 26 30  0  0  0  0  0  0  0  0999 V2000
   10.2710   -2.8519   23.4409 C   0  0  0  0  0  0  0  0  0  0  0  0
    9.0319   -5.5958   17.3139 C   0  0  0  0  0  0  0  0  0  0  0  0
    9.7613   -4.8242   18.1206 C   0  0  0  0  0  0  0  0  0  0  0  0
    9.1341   -0.3003   26.5357 C   0  0  0  0  0  0  0  0  0  0  0  0
    6.7908   -8.9953   15.4791 C   0  0  0  0  0  0  0  0  0  0  0  0
    6.3287   -7.5914   17.6846 C   0  0  0  0  0  0  0  0  0  0  0  0
   10.6102   -3.0460   19.1900 C   0  0  0  0  0  0  0  0  0  0  0  0
    9.9056   -1.9599   24.5068 C   0  0  0  0  0  0  0  0  0  0  0  0
    5.5900   -9.0103   16.0218 C   0  0  0  0  0  0  0  0  0  0  0  0
    9.5366   -0.6749   24.1655 C   0  0  0  0  0  0  0  0  0  0  0  0
    9.5010   -1.6168   26.8818 C   0  0  0  0  0  0  0  0  0  0  0  0
   10.2694   -2.6261   22.0832 N   0  0  0  0  0  0  0  0  0  0  0  0
   10.0188   -6.5297   19.7327 C   0  0  0  0  0  0  0  0  0  0  0  0
   10.6654   -4.0820   23.6364 N   0  0  0  0  0  0  0  0  0  0  0  0
    7.7961   -8.2805   16.0162 C   0  0  0  0  0  0  0  0  0  0  0  0
    5.3224   -8.3091   17.1164 C   0  0  0  0  0  0  0  0  0  0  0  0
    9.2643   -7.3561   18.8685 C   0  0  0  0  0  0  0  0  0  0  0  0
    7.5867   -7.5759   17.1523 C   0  0  0  0  0  0  0  0  0  0  0  0
   10.7517   -4.7346   22.3883 O   0  0  0  0  0  0  0  0  0  0  0  0
   10.1028   -5.2261   19.4087 C   0  0  0  0  0  0  0  0  0  0  0  0
    9.1695    0.1724   25.2141 C   0  0  0  0  0  0  0  0  0  0  0  0
   10.1845   -3.5286   17.9474 N   0  0  0  0  0  0  0  0  0  0  0  0
   10.5079   -3.8119   21.4635 C   0  0  0  0  0  0  0  0  0  0  0  0
    8.6197   -6.8441   17.7528 C   0  0  0  0  0  0  0  0  0  0  0  0
    9.9235   -2.4626   25.8319 C   0  0  0  0  0  0  0  0  0  0  0  0
   10.4514   -4.0373   20.1281 C   0  0  0  0  0  0  0  0  0  0  0  0
  1  8  1  0
  1 12  4  0
  1 14  4  0
  2  3  4  0
  2 24  4  0
  3 20  4  0
  3 22  4  0
  4 11  4  0
  4 21  4  0
  5  9  4  0
  5 15  4  0
  6 16  4  0
  6 18  4  0
  7 22  4  0
  7 26  4  0
  8 10  4  0
  8 25  4  0
  9 16  4  0
 10 21  4  0
 11 25  4  0
 12 23  4  0
 13 17  4  0
 13 20  4  0
 14 19  4  0
 15 18  4  0
 17 24  4  0
 18 24  1  0
 19 23  4  0
 20 26  4  0
 23 26  1  0
M  END
$$$$

 Created by Python create_sdf_string function

 26 30  0  0  0  0  0  0  0  0999 V2000
   10.2545   -2.8753   23.3667 C   0  0  0  0  0  0  0  0  0  0  0  0
    8.9934   -5.6218   17.3316 C   0  0  0  0  0  0  0  0  0  0  0  0
    9.7567   -4.8361   18.1127 C   0  0  0  0  0  0  0  0  0  0  0  0
    9.1638   -0.3347   26.5571 C   0  0  0  0  0  0  0  0  0  0  0  0
    6.7421   -9.0026   15.4905 C   0  0  0  0  0  0  0  0  0  0  0  0
    6.3078   -7.6005   17.7357 C   0  0  0  0  0  0  0  0  0  0  0  0
   10.6139   -2.9878   19.2241 C   0  0  0  0  0  0  0  0  0  0  0  0
    9.9380   -1.9641   24.5425 C   0  0  0  0  0  0  0  0  0  0  0  0
    5.5769   -9.0423   16.0155 C   0  0  0  0  0  0  0  0  0  0  0  0
    9.5718   -0.6914   24.1631 C   0  0  0  0  0  0  0  0  0  0  0  0
    9.4630   -1.5877   26.8984 C   0  0  0  0  0  0  0  0  0  0  0  0
   10.2711   -2.5398   22.1600 N   0  0  0  0  0  0  0  0  0  0  0  0
   10.0051   -6.5463   19.7365 C   0  0  0  0  0  0  0  0  0  0  0  0
   10.7009   -4.0680   23.6594 N   0  0  0  0  0  0  0  0  0  0  0  0
    7.7801   -8.2427   15.9935 C   0  0  0  0  0  0  0  0  0  0  0  0
    5.3272   -8.3275   17.0497 C   0  0  0  0  0  0  0  0  0  0  0  0
    9.2864   -7.3724   18.9122 C   0  0  0  0  0  0  0  0  0  0  0  0
    7.5910   -7.5412   17.1195 C   0  0  0  0  0  0  0  0  0  0  0  0
   10.7741   -4.7121   22.3866 O   0  0  0  0  0  0  0  0  0  0  0  0
   10.0899   -5.2457   19.3579 C   0  0  0  0  0  0  0  0  0  0  0  0
    9.1208    0.1471   25.1574 C   0  0  0  0  0  0  0  0  0  0  0  0
   10.1974   -3.5308   17.9346 N   0  0  0  0  0  0  0  0  0  0  0  0
   10.5277   -3.8037   21.4643 C   0  0  0  0  0  0  0  0  0  0  0  0
    8.6028   -6.8904   17.7455 C   0  0  0  0  0  0  0  0  0  0  0  0
    9.9375   -2.4728   25.9156 C   0  0  0  0  0  0  0  0  0  0  0  0
   10.4671   -4.0613   20.0851 C   0  0  0  0  0  0  0  0  0  0  0  0
  1  8  1  0
  1 12  4  0
  1 14  4  0
  2  3  4  0
  2 24  4  0
  3 20  4  0
  3 22  4  0
  4 11  4  0
  4 21  4  0
  5  9  4  0
  5 15  4  0
  6 16  4  0
  6 18  4  0
  7 22  4  0
  7 26  4  0
  8 10  4  0
  8 25  4  0
  9 16  4  0
 10 21  4  0
 11 25  4  0
 12 23  4  0
 13 17  4  0
 13 20  4  0
 14 19  4  0
 15 18  4  0
 17 24  4  0
 18 24  1  0
 19 23  4  0
 20 26  4  0
 23 26  1  0
M  END
$$$$

 Created by Python create_sdf_string function

 26 30  0  0  0  0  0  0  0  0999 V2000
   10.2858   -2.8569   23.4466 C   0  0  0  0  0  0  0  0  0  0  0  0
    9.0051   -5.6168   17.3186 C   0  0  0  0  0  0  0  0  0  0  0  0
    9.7465   -4.8325   18.1071 C   0  0  0  0  0  0  0  0  0  0  0  0
    9.1321   -0.2964   26.5289 C   0  0  0  0  0  0  0  0  0  0  0  0
    6.7786   -8.9912   15.4580 C   0  0  0  0  0  0  0  0  0  0  0  0
    6.3232   -7.6108   17.6990 C   0  0  0  0  0  0  0  0  0  0  0  0
   10.6036   -3.0128   19.1822 C   0  0  0  0  0  0  0  0  0  0  0  0
    9.9186   -1.9812   24.5294 C   0  0  0  0  0  0  0  0  0  0  0  0
    5.5736   -9.0226   16.0074 C   0  0  0  0  0  0  0  0  0  0  0  0
    9.5551   -0.6957   24.1670 C   0  0  0  0  0  0  0  0  0  0  0  0
    9.4928   -1.6044   26.8937 C   0  0  0  0  0  0  0  0  0  0  0  0
   10.2740   -2.5824   22.1007 N   0  0  0  0  0  0  0  0  0  0  0  0
   10.0097   -6.5386   19.7484 C   0  0  0  0  0  0  0  0  0  0  0  0
   10.6761   -4.1119   23.6344 N   0  0  0  0  0  0  0  0  0  0  0  0
    7.7670   -8.2600   16.0008 C   0  0  0  0  0  0  0  0  0  0  0  0
    5.3289   -8.3064   17.1209 C   0  0  0  0  0  0  0  0  0  0  0  0
    9.2517   -7.3675   18.8953 C   0  0  0  0  0  0  0  0  0  0  0  0
    7.5637   -7.5794   17.1543 C   0  0  0  0  0  0  0  0  0  0  0  0
   10.7775   -4.7103   22.3783 O   0  0  0  0  0  0  0  0  0  0  0  0
   10.0905   -5.2394   19.3971 C   0  0  0  0  0  0  0  0  0  0  0  0
    9.1322    0.1638   25.1913 C   0  0  0  0  0  0  0  0  0  0  0  0
   10.1834   -3.5214   17.9405 N   0  0  0  0  0  0  0  0  0  0  0  0
   10.5153   -3.7814   21.4674 C   0  0  0  0  0  0  0  0  0  0  0  0
    8.6012   -6.8549   17.7714 C   0  0  0  0  0  0  0  0  0  0  0  0
    9.9225   -2.4483   25.8655 C   0  0  0  0  0  0  0  0  0  0  0  0
   10.4485   -4.0339   20.1183 C   0  0  0  0  0  0  0  0  0  0  0  0
  1  8  1  0
  1 12  4  0
  1 14  4  0
  2  3  4  0
  2 24  4  0
  3 20  4  0
  3 22  4  0
  4 11  4  0
  4 21  4  0
  5  9  4  0
  5 15  4  0
  6 16  4  0
  6 18  4  0
  7 22  4  0
  7 26  4  0
  8 10  4  0
  8 25  4  0
  9 16  4  0
 10 21  4  0
 11 25  4  0
 12 23  4  0
 13 17  4  0
 13 20  4  0
 14 19  4  0
 15 18  4  0
 17 24  4  0
 18 24  1  0
 19 23  4  0
 20 26  4  0
 23 26  1  0
M  END
$$$$

 Created by Python create_sdf_string function

 26 30  0  0  0  0  0  0  0  0999 V2000
   10.2612   -2.8740   23.4017 C   0  0  0  0  0  0  0  0  0  0  0  0
    9.0105   -5.5841   17.3670 C   0  0  0  0  0  0  0  0  0  0  0  0
    9.7328   -4.8142   18.0598 C   0  0  0  0  0  0  0  0  0  0  0  0
    9.1527   -0.3076   26.5550 C   0  0  0  0  0  0  0  0  0  0  0  0
    6.7614   -9.0154   15.4858 C   0  0  0  0  0  0  0  0  0  0  0  0
    6.2889   -7.5852   17.7030 C   0  0  0  0  0  0  0  0  0  0  0  0
   10.5708   -3.0500   19.2065 C   0  0  0  0  0  0  0  0  0  0  0  0
    9.9003   -1.9733   24.5488 C   0  0  0  0  0  0  0  0  0  0  0  0
    5.5839   -9.0537   15.9893 C   0  0  0  0  0  0  0  0  0  0  0  0
    9.4969   -0.6810   24.1700 C   0  0  0  0  0  0  0  0  0  0  0  0
    9.4813   -1.5755   26.8364 C   0  0  0  0  0  0  0  0  0  0  0  0
   10.2606   -2.5932   22.1003 N   0  0  0  0  0  0  0  0  0  0  0  0
    9.9981   -6.5425   19.7412 C   0  0  0  0  0  0  0  0  0  0  0  0
   10.6645   -4.1160   23.6751 N   0  0  0  0  0  0  0  0  0  0  0  0
    7.7281   -8.2622   16.0055 C   0  0  0  0  0  0  0  0  0  0  0  0
    5.3281   -8.2900   17.1133 C   0  0  0  0  0  0  0  0  0  0  0  0
    9.2648   -7.3663   18.9093 C   0  0  0  0  0  0  0  0  0  0  0  0
    7.5635   -7.5618   17.1524 C   0  0  0  0  0  0  0  0  0  0  0  0
   10.7924   -4.7114   22.4090 O   0  0  0  0  0  0  0  0  0  0  0  0
   10.1054   -5.2107   19.4166 C   0  0  0  0  0  0  0  0  0  0  0  0
    9.0877    0.1986   25.1961 C   0  0  0  0  0  0  0  0  0  0  0  0
   10.1803   -3.5037   17.9392 N   0  0  0  0  0  0  0  0  0  0  0  0
   10.5364   -3.8131   21.5029 C   0  0  0  0  0  0  0  0  0  0  0  0
    8.5655   -6.8810   17.8168 C   0  0  0  0  0  0  0  0  0  0  0  0
    9.9135   -2.4530   25.8562 C   0  0  0  0  0  0  0  0  0  0  0  0
   10.4629   -4.0290   20.1293 C   0  0  0  0  0  0  0  0  0  0  0  0
  1  8  1  0
  1 12  4  0
  1 14  4  0
  2  3  4  0
  2 24  4  0
  3 20  4  0
  3 22  4  0
  4 11  4  0
  4 21  4  0
  5  9  4  0
  5 15  4  0
  6 16  4  0
  6 18  4  0
  7 22  4  0
  7 26  4  0
  8 10  4  0
  8 25  4  0
  9 16  4  0
 10 21  4  0
 11 25  4  0
 12 23  4  0
 13 17  4  0
 13 20  4  0
 14 19  4  0
 15 18  4  0
 17 24  4  0
 18 24  1  0
 19 23  4  0
 20 26  4  0
 23 26  1  0
M  END
$$$$

 Created by Python create_sdf_string function

 26 30  0  0  0  0  0  0  0  0999 V2000
   10.2688   -2.8699   23.4412 C   0  0  0  0  0  0  0  0  0  0  0  0
    8.9911   -5.6042   17.3319 C   0  0  0  0  0  0  0  0  0  0  0  0
    9.7361   -4.8202   18.1314 C   0  0  0  0  0  0  0  0  0  0  0  0
    9.1315   -0.2854   26.5326 C   0  0  0  0  0  0  0  0  0  0  0  0
    6.7737   -8.9999   15.4745 C   0  0  0  0  0  0  0  0  0  0  0  0
    6.2932   -7.5984   17.6960 C   0  0  0  0  0  0  0  0  0  0  0  0
   10.5786   -3.0310   19.1814 C   0  0  0  0  0  0  0  0  0  0  0  0
    9.8917   -1.9761   24.5118 C   0  0  0  0  0  0  0  0  0  0  0  0
    5.5673   -9.0243   16.0145 C   0  0  0  0  0  0  0  0  0  0  0  0
    9.5009   -0.6880   24.1694 C   0  0  0  0  0  0  0  0  0  0  0  0
    9.5009   -1.5933   26.8547 C   0  0  0  0  0  0  0  0  0  0  0  0
   10.2685   -2.6009   22.0946 N   0  0  0  0  0  0  0  0  0  0  0  0
   10.0110   -6.5348   19.7724 C   0  0  0  0  0  0  0  0  0  0  0  0
   10.6602   -4.1342   23.6518 N   0  0  0  0  0  0  0  0  0  0  0  0
    7.7496   -8.2656   16.0257 C   0  0  0  0  0  0  0  0  0  0  0  0
    5.3135   -8.3098   17.1101 C   0  0  0  0  0  0  0  0  0  0  0  0
    9.2341   -7.3603   18.9137 C   0  0  0  0  0  0  0  0  0  0  0  0
    7.5422   -7.5761   17.1652 C   0  0  0  0  0  0  0  0  0  0  0  0
   10.7878   -4.7073   22.4194 O   0  0  0  0  0  0  0  0  0  0  0  0
   10.0907   -5.2216   19.4247 C   0  0  0  0  0  0  0  0  0  0  0  0
    9.1016    0.1794   25.1971 C   0  0  0  0  0  0  0  0  0  0  0  0
   10.1642   -3.5213   17.9440 N   0  0  0  0  0  0  0  0  0  0  0  0
   10.5232   -3.7892   21.4858 C   0  0  0  0  0  0  0  0  0  0  0  0
    8.5840   -6.8514   17.7845 C   0  0  0  0  0  0  0  0  0  0  0  0
    9.9057   -2.4361   25.8386 C   0  0  0  0  0  0  0  0  0  0  0  0
   10.4521   -4.0265   20.1345 C   0  0  0  0  0  0  0  0  0  0  0  0
  1  8  1  0
  1 12  4  0
  1 14  4  0
  2  3  4  0
  2 24  4  0
  3 20  4  0
  3 22  4  0
  4 11  4  0
  4 21  4  0
  5  9  4  0
  5 15  4  0
  6 16  4  0
  6 18  4  0
  7 22  4  0
  7 26  4  0
  8 10  4  0
  8 25  4  0
  9 16  4  0
 10 21  4  0
 11 25  4  0
 12 23  4  0
 13 17  4  0
 13 20  4  0
 14 19  4  0
 15 18  4  0
 17 24  4  0
 18 24  1  0
 19 23  4  0
 20 26  4  0
 23 26  1  0
M  END
$$$$

 Created by Python create_sdf_string function

 26 31  0  0  0  0  0  0  0  0999 V2000
   10.2752   -2.8950   23.4298 C   0  0  0  0  0  0  0  0  0  0  0  0
    8.9833   -5.6195   17.3669 C   0  0  0  0  0  0  0  0  0  0  0  0
    9.7318   -4.7985   18.1502 C   0  0  0  0  0  0  0  0  0  0  0  0
    9.1079   -0.3177   26.5093 C   0  0  0  0  0  0  0  0  0  0  0  0
    6.7907   -8.9976   15.4976 C   0  0  0  0  0  0  0  0  0  0  0  0
    6.2993   -7.5960   17.7432 C   0  0  0  0  0  0  0  0  0  0  0  0
   10.5539   -3.0466   19.1548 C   0  0  0  0  0  0  0  0  0  0  0  0
    9.8983   -1.9537   24.5118 C   0  0  0  0  0  0  0  0  0  0  0  0
    5.5450   -9.0274   16.0249 C   0  0  0  0  0  0  0  0  0  0  0  0
    9.5086   -0.7005   24.1693 C   0  0  0  0  0  0  0  0  0  0  0  0
    9.5185   -1.5780   26.8929 C   0  0  0  0  0  0  0  0  0  0  0  0
   10.2643   -2.6216   22.1400 N   0  0  0  0  0  0  0  0  0  0  0  0
   10.0220   -6.5190   19.7831 C   0  0  0  0  0  0  0  0  0  0  0  0
   10.6522   -4.1406   23.6429 N   0  0  0  0  0  0  0  0  0  0  0  0
    7.7219   -8.2456   16.0476 C   0  0  0  0  0  0  0  0  0  0  0  0
    5.3388   -8.2657   17.0936 C   0  0  0  0  0  0  0  0  0  0  0  0
    9.2288   -7.3383   18.9262 C   0  0  0  0  0  0  0  0  0  0  0  0
    7.5618   -7.5413   17.1646 C   0  0  0  0  0  0  0  0  0  0  0  0
   10.7580   -4.7174   22.4240 O   0  0  0  0  0  0  0  0  0  0  0  0
   10.1203   -5.1977   19.4278 C   0  0  0  0  0  0  0  0  0  0  0  0
    9.1225    0.1919   25.1767 C   0  0  0  0  0  0  0  0  0  0  0  0
   10.1714   -3.5164   17.9673 N   0  0  0  0  0  0  0  0  0  0  0  0
   10.5105   -3.7990   21.5269 C   0  0  0  0  0  0  0  0  0  0  0  0
    8.5886   -6.8557   17.7819 C   0  0  0  0  0  0  0  0  0  0  0  0
    9.9031   -2.4550   25.8488 C   0  0  0  0  0  0  0  0  0  0  0  0
   10.4539   -4.0270   20.1570 C   0  0  0  0  0  0  0  0  0  0  0  0
  1  8  1  0
  1 12  4  0
  1 14  4  0
  2  3  4  0
  2 24  4  0
  3 20  4  0
  3 22  4  0
  4 11  4  0
  4 21  4  0
  5  9  4  0
  5 15  4  0
  6 16  4  0
  6 18  4  0
  7 22  4  0
  7 26  4  0
  8 10  4  0
  8 25  4  0
  9 16  4  0
 10 21  4  0
 11 25  4  0
 12 23  4  0
 13 17  4  0
 13 20  4  0
 14 19  4  0
 15 17  4  0
 15 18  4  0
 17 24  4  0
 18 24  1  0
 19 23  4  0
 20 26  4  0
 23 26  1  0
M  END
$$$$

 Created by Python create_sdf_string function

 26 30  0  0  0  0  0  0  0  0999 V2000
   10.2702   -2.8834   23.4516 C   0  0  0  0  0  0  0  0  0  0  0  0
    8.9953   -5.6031   17.3625 C   0  0  0  0  0  0  0  0  0  0  0  0
    9.7374   -4.8191   18.1509 C   0  0  0  0  0  0  0  0  0  0  0  0
    9.1113   -0.2978   26.5084 C   0  0  0  0  0  0  0  0  0  0  0  0
    6.7699   -8.9900   15.4914 C   0  0  0  0  0  0  0  0  0  0  0  0
    6.2957   -7.5998   17.7199 C   0  0  0  0  0  0  0  0  0  0  0  0
   10.5648   -3.0305   19.1698 C   0  0  0  0  0  0  0  0  0  0  0  0
    9.8941   -1.9773   24.5121 C   0  0  0  0  0  0  0  0  0  0  0  0
    5.5565   -9.0062   16.0235 C   0  0  0  0  0  0  0  0  0  0  0  0
    9.5133   -0.6887   24.1591 C   0  0  0  0  0  0  0  0  0  0  0  0
    9.5199   -1.5928   26.8703 C   0  0  0  0  0  0  0  0  0  0  0  0
   10.2707   -2.6076   22.1239 N   0  0  0  0  0  0  0  0  0  0  0  0
   10.0199   -6.5328   19.7990 C   0  0  0  0  0  0  0  0  0  0  0  0
   10.6498   -4.1574   23.6457 N   0  0  0  0  0  0  0  0  0  0  0  0
    7.7360   -8.2590   16.0456 C   0  0  0  0  0  0  0  0  0  0  0  0
    5.3189   -8.2850   17.1176 C   0  0  0  0  0  0  0  0  0  0  0  0
    9.2312   -7.3387   18.9418 C   0  0  0  0  0  0  0  0  0  0  0  0
    7.5383   -7.5740   17.1867 C   0  0  0  0  0  0  0  0  0  0  0  0
   10.7563   -4.7166   22.4148 O   0  0  0  0  0  0  0  0  0  0  0  0
   10.1009   -5.2080   19.4420 C   0  0  0  0  0  0  0  0  0  0  0  0
    9.1205    0.1742   25.1815 C   0  0  0  0  0  0  0  0  0  0  0  0
   10.1568   -3.5211   17.9502 N   0  0  0  0  0  0  0  0  0  0  0  0
   10.5109   -3.7851   21.4995 C   0  0  0  0  0  0  0  0  0  0  0  0
    8.5878   -6.8421   17.8097 C   0  0  0  0  0  0  0  0  0  0  0  0
    9.9075   -2.4422   25.8390 C   0  0  0  0  0  0  0  0  0  0  0  0
   10.4477   -4.0100   20.1388 C   0  0  0  0  0  0  0  0  0  0  0  0
  1  8  1  0
  1 12  4  0
  1 14  4  0
  2  3  4  0
  2 24  4  0
  3 20  4  0
  3 22  4  0
  4 11  4  0
  4 21  4  0
  5  9  4  0
  5 15  4  0
  6 16  4  0
  6 18  4  0
  7 22  4  0
  7 26  4  0
  8 10  4  0
  8 25  4  0
  9 16  4  0
 10 21  4  0
 11 25  4  0
 12 23  4  0
 13 17  4  0
 13 20  4  0
 14 19  4  0
 15 18  4  0
 17 24  4  0
 18 24  1  0
 19 23  4  0
 20 26  4  0
 23 26  1  0
M  END
$$$$

 Created by Python create_sdf_string function

 26 28  0  0  0  0  0  0  0  0999 V2000
   10.2635   -2.8651   23.4376 C   0  0  0  0  0  0  0  0  0  0  0  0
    9.0159   -5.6000   17.3733 C   0  0  0  0  0  0  0  0  0  0  0  0
    9.7231   -4.8188   18.1553 C   0  0  0  0  0  0  0  0  0  0  0  0
    9.1239   -0.2958   26.5336 C   0  0  0  0  0  0  0  0  0  0  0  0
    6.7874   -8.9792   15.4925 C   0  0  0  0  0  0  0  0  0  0  0  0
    6.2854   -7.6204   17.7091 C   0  0  0  0  0  0  0  0  0  0  0  0
   10.5338   -3.0243   19.1469 C   0  0  0  0  0  0  0  0  0  0  0  0
    9.8590   -1.9912   24.5210 C   0  0  0  0  0  0  0  0  0  0  0  0
    5.5656   -8.9895   16.0290 C   0  0  0  0  0  0  0  0  0  0  0  0
    9.5426   -0.6768   24.1808 C   0  0  0  0  0  0  0  0  0  0  0  0
    9.5046   -1.5901   26.8941 C   0  0  0  0  0  0  0  0  0  0  0  0
   10.0497   -6.5562   19.8015 C   0  0  0  0  0  0  0  0  0  0  0  0
   10.6443   -4.1541   23.6491 N   0  0  0  0  0  0  0  0  0  0  0  0
    7.7608   -8.2439   16.0303 C   0  0  0  0  0  0  0  0  0  0  0  0
    5.3168   -8.2731   17.0922 C   0  0  0  0  0  0  0  0  0  0  0  0
    9.2229   -7.3380   18.9227 C   0  0  0  0  0  0  0  0  0  0  0  0
    7.5446   -7.5800   17.1809 C   0  0  0  0  0  0  0  0  0  0  0  0
   10.7548   -4.7526   22.3962 O   0  0  0  0  0  0  0  0  0  0  0  0
   10.1124   -5.2166   19.4432 C   0  0  0  0  0  0  0  0  0  0  0  0
    9.1220    0.1654   25.1833 C   0  0  0  0  0  0  0  0  0  0  0  0
   10.1614   -3.5015   17.9406 N   0  0  0  0  0  0  0  0  0  0  0  0
   10.5377   -3.7778   21.5108 C   0  0  0  0  0  0  0  0  0  0  0  0
    8.5335   -6.8537   17.8398 C   0  0  0  0  0  0  0  0  0  0  0  0
    9.9108   -2.4744   25.8692 C   0  0  0  0  0  0  0  0  0  0  0  0
   10.4682   -4.0105   20.1440 C   0  0  0  0  0  0  0  0  0  0  0  0
   10.2661   -2.5881   22.1162 He  0  0  0  0  0  0  0  0  0  0  0  0
  1  8  1  0
  1 13  4  0
  1 16  2  0
  2  3  4  0
  2 23  4  0
  3 19  4  0
  3 21  4  0
  4 11  4  0
  4 20  4  0
  5  9  4  0
  5 14  4  0
  6 15  4  0
  6 17  4  0
  7 21  4  0
  7 25  4  0
  8 12  3  0
  8 24  4  0
  9 15  4  0
 10 20  4  0
 12 16  4  0
 12 19  4  0
 13 18  4  0
 14 17  4  0
 16 23  4  0
 17 23  1  0
 18 22  4  0
 19 25  4  0
 22 25  1  0
M  END
$$$$

 Created by Python create_sdf_string function

 26 30  0  0  0  0  0  0  0  0999 V2000
   10.2619   -2.8764   23.4511 C   0  0  0  0  0  0  0  0  0  0  0  0
    8.9949   -5.6088   17.3625 C   0  0  0  0  0  0  0  0  0  0  0  0
    9.7330   -4.8272   18.1591 C   0  0  0  0  0  0  0  0  0  0  0  0
    9.1161   -0.2781   26.5368 C   0  0  0  0  0  0  0  0  0  0  0  0
    6.7839   -8.9714   15.4813 C   0  0  0  0  0  0  0  0  0  0  0  0
    6.2851   -7.6100   17.7148 C   0  0  0  0  0  0  0  0  0  0  0  0
   10.5506   -3.0264   19.1654 C   0  0  0  0  0  0  0  0  0  0  0  0
    9.8896   -1.9800   24.5209 C   0  0  0  0  0  0  0  0  0  0  0  0
    5.5771   -8.9855   16.0078 C   0  0  0  0  0  0  0  0  0  0  0  0
    9.5263   -0.6796   24.1716 C   0  0  0  0  0  0  0  0  0  0  0  0
    9.5047   -1.5886   26.8718 C   0  0  0  0  0  0  0  0  0  0  0  0
   10.2854   -2.6189   22.1152 N   0  0  0  0  0  0  0  0  0  0  0  0
   10.0217   -6.5494   19.8028 C   0  0  0  0  0  0  0  0  0  0  0  0
   10.6317   -4.1561   23.6288 N   0  0  0  0  0  0  0  0  0  0  0  0
    7.7603   -8.2544   16.0458 C   0  0  0  0  0  0  0  0  0  0  0  0
    5.3162   -8.2949   17.1039 C   0  0  0  0  0  0  0  0  0  0  0  0
    9.2299   -7.3572   18.9541 C   0  0  0  0  0  0  0  0  0  0  0  0
    7.5415   -7.5739   17.1949 C   0  0  0  0  0  0  0  0  0  0  0  0
   10.7566   -4.7235   22.4052 O   0  0  0  0  0  0  0  0  0  0  0  0
   10.1001   -5.2230   19.4508 C   0  0  0  0  0  0  0  0  0  0  0  0
    9.1213    0.1774   25.2032 C   0  0  0  0  0  0  0  0  0  0  0  0
   10.1362   -3.5321   17.9460 N   0  0  0  0  0  0  0  0  0  0  0  0
   10.5206   -3.7798   21.4884 C   0  0  0  0  0  0  0  0  0  0  0  0
    8.5801   -6.8509   17.8184 C   0  0  0  0  0  0  0  0  0  0  0  0
    9.8960   -2.4482   25.8502 C   0  0  0  0  0  0  0  0  0  0  0  0
   10.4519   -4.0166   20.1376 C   0  0  0  0  0  0  0  0  0  0  0  0
  1  8  1  0
  1 12  4  0
  1 14  4  0
  2  3  4  0
  2 24  4  0
  3 20  4  0
  3 22  4  0
  4 11  4  0
  4 21  4  0
  5  9  4  0
  5 15  4  0
  6 16  4  0
  6 18  4  0
  7 22  4  0
  7 26  4  0
  8 10  4  0
  8 25  4  0
  9 16  4  0
 10 21  4  0
 11 25  4  0
 12 23  4  0
 13 17  4  0
 13 20  4  0
 14 19  4  0
 15 18  4  0
 17 24  4  0
 18 24  1  0
 19 23  4  0
 20 26  4  0
 23 26  1  0
M  END
$$$$

 Created by Python create_sdf_string function

 26 32  0  0  0  0  0  0  0  0999 V2000
   10.2610   -2.8725   23.4358 C   0  0  0  0  0  0  0  0  0  0  0  0
    9.0029   -5.6210   17.3539 C   0  0  0  0  0  0  0  0  0  0  0  0
    9.7254   -4.8103   18.1656 C   0  0  0  0  0  0  0  0  0  0  0  0
    9.1133   -0.3057   26.5475 C   0  0  0  0  0  0  0  0  0  0  0  0
    6.7739   -8.9844   15.4822 C   0  0  0  0  0  0  0  0  0  0  0  0
    6.2518   -7.6485   17.7404 C   0  0  0  0  0  0  0  0  0  0  0  0
   10.5341   -3.0097   19.1693 C   0  0  0  0  0  0  0  0  0  0  0  0
    9.8833   -1.9878   24.5296 C   0  0  0  0  0  0  0  0  0  0  0  0
    5.5546   -8.9916   15.9941 C   0  0  0  0  0  0  0  0  0  0  0  0
    9.5363   -0.6944   24.1572 C   0  0  0  0  0  0  0  0  0  0  0  0
    9.4941   -1.5829   26.8932 C   0  0  0  0  0  0  0  0  0  0  0  0
   10.2777   -2.6252   22.0907 N   0  0  0  0  0  0  0  0  0  0  0  0
   10.0292   -6.5385   19.7892 C   0  0  0  0  0  0  0  0  0  0  0  0
   10.6223   -4.1518   23.6374 N   0  0  0  0  0  0  0  0  0  0  0  0
    7.7655   -8.2727   16.0127 C   0  0  0  0  0  0  0  0  0  0  0  0
    5.2979   -8.2790   17.1075 C   0  0  0  0  0  0  0  0  0  0  0  0
    9.2404   -7.3498   18.9380 C   0  0  0  0  0  0  0  0  0  0  0  0
    7.5519   -7.5888   17.2124 C   0  0  0  0  0  0  0  0  0  0  0  0
   10.7351   -4.7282   22.3943 O   0  0  0  0  0  0  0  0  0  0  0  0
   10.0999   -5.2384   19.4214 C   0  0  0  0  0  0  0  0  0  0  0  0
    9.1187    0.1634   25.2013 C   0  0  0  0  0  0  0  0  0  0  0  0
   10.1581   -3.5427   17.9155 N   0  0  0  0  0  0  0  0  0  0  0  0
   10.5111   -3.7902   21.4739 C   0  0  0  0  0  0  0  0  0  0  0  0
    8.5943   -6.8641   17.8556 C   0  0  0  0  0  0  0  0  0  0  0  0
    9.8981   -2.4405   25.8553 C   0  0  0  0  0  0  0  0  0  0  0  0
   10.4590   -4.0252   20.1334 C   0  0  0  0  0  0  0  0  0  0  0  0
  1  8  1  0
  1 12  4  0
  1 14  4  0
  2  3  4  0
  2 24  4  0
  3 20  4  0
  3 22  4  0
  4 11  4  0
  4 21  4  0
  5  9  4  0
  5 15  4  0
  6 16  4  0
  6 18  4  0
  7 22  4  0
  7 26  4  0
  8 10  4  0
  8 25  4  0
  9 16  4  0
 10 15  3  0
 10 21  4  0
 11 25  4  0
 12 23  4  0
 13 17  4  0
 13 20  4  0
 14 19  4  0
 15 18  4  0
 17 24  4  0
 18 24  1  0
 19 23  4  0
 20 26  4  0
 23 25  3  0
 23 26  1  0
M  END
$$$$

 Created by Python create_sdf_string function

 26 30  0  0  0  0  0  0  0  0999 V2000
   10.2619   -2.8823   23.4454 C   0  0  0  0  0  0  0  0  0  0  0  0
    8.9968   -5.6286   17.3616 C   0  0  0  0  0  0  0  0  0  0  0  0
    9.7312   -4.8365   18.1437 C   0  0  0  0  0  0  0  0  0  0  0  0
    9.1123   -0.2931   26.5303 C   0  0  0  0  0  0  0  0  0  0  0  0
    6.7741   -8.9728   15.4766 C   0  0  0  0  0  0  0  0  0  0  0  0
    6.2872   -7.6371   17.7347 C   0  0  0  0  0  0  0  0  0  0  0  0
   10.5459   -3.0147   19.1623 C   0  0  0  0  0  0  0  0  0  0  0  0
    9.8921   -1.9848   24.5186 C   0  0  0  0  0  0  0  0  0  0  0  0
    5.5539   -8.9804   16.0010 C   0  0  0  0  0  0  0  0  0  0  0  0
    9.5269   -0.6882   24.1707 C   0  0  0  0  0  0  0  0  0  0  0  0
    9.5024   -1.5998   26.8735 C   0  0  0  0  0  0  0  0  0  0  0  0
   10.2824   -2.6056   22.1002 N   0  0  0  0  0  0  0  0  0  0  0  0
   10.0209   -6.5433   19.8021 C   0  0  0  0  0  0  0  0  0  0  0  0
   10.6216   -4.1658   23.6283 N   0  0  0  0  0  0  0  0  0  0  0  0
    7.7560   -8.2664   16.0523 C   0  0  0  0  0  0  0  0  0  0  0  0
    5.3077   -8.2986   17.1145 C   0  0  0  0  0  0  0  0  0  0  0  0
    9.2341   -7.3590   18.9562 C   0  0  0  0  0  0  0  0  0  0  0  0
    7.5435   -7.5945   17.2056 C   0  0  0  0  0  0  0  0  0  0  0  0
   10.7359   -4.7286   22.4025 O   0  0  0  0  0  0  0  0  0  0  0  0
   10.0928   -5.2234   19.4358 C   0  0  0  0  0  0  0  0  0  0  0  0
    9.1223    0.1610   25.2004 C   0  0  0  0  0  0  0  0  0  0  0  0
   10.1434   -3.5349   17.9347 N   0  0  0  0  0  0  0  0  0  0  0  0
   10.5057   -3.7897   21.4828 C   0  0  0  0  0  0  0  0  0  0  0  0
    8.5916   -6.8598   17.8248 C   0  0  0  0  0  0  0  0  0  0  0  0
    9.8953   -2.4362   25.8458 C   0  0  0  0  0  0  0  0  0  0  0  0
   10.4376   -4.0127   20.1207 C   0  0  0  0  0  0  0  0  0  0  0  0
  1  8  1  0
  1 12  4  0
  1 14  4  0
  2  3  4  0
  2 24  4  0
  3 20  4  0
  3 22  4  0
  4 11  4  0
  4 21  4  0
  5  9  4  0
  5 15  4  0
  6 16  4  0
  6 18  4  0
  7 22  4  0
  7 26  4  0
  8 10  4  0
  8 25  4  0
  9 16  4  0
 10 21  4  0
 11 25  4  0
 12 23  4  0
 13 17  4  0
 13 20  4  0
 14 19  4  0
 15 18  4  0
 17 24  4  0
 18 24  1  0
 19 23  4  0
 20 26  4  0
 23 26  1  0
M  END
$$$$

 Created by Python create_sdf_string function

 26 30  0  0  0  0  0  0  0  0999 V2000
   10.2525   -2.8884   23.4522 C   0  0  0  0  0  0  0  0  0  0  0  0
    9.0186   -5.6416   17.3619 C   0  0  0  0  0  0  0  0  0  0  0  0
    9.7571   -4.8452   18.1291 C   0  0  0  0  0  0  0  0  0  0  0  0
    9.1152   -0.2969   26.5221 C   0  0  0  0  0  0  0  0  0  0  0  0
    6.7529   -8.9742   15.4775 C   0  0  0  0  0  0  0  0  0  0  0  0
    6.2747   -7.6402   17.7374 C   0  0  0  0  0  0  0  0  0  0  0  0
   10.5590   -3.0139   19.1638 C   0  0  0  0  0  0  0  0  0  0  0  0
    9.8992   -1.9881   24.5045 C   0  0  0  0  0  0  0  0  0  0  0  0
    5.5429   -8.9704   16.0033 C   0  0  0  0  0  0  0  0  0  0  0  0
    9.5226   -0.6854   24.1720 C   0  0  0  0  0  0  0  0  0  0  0  0
    9.4760   -1.6051   26.8673 C   0  0  0  0  0  0  0  0  0  0  0  0
   10.3065   -2.5996   22.1153 N   0  0  0  0  0  0  0  0  0  0  0  0
   10.0212   -6.5344   19.8011 C   0  0  0  0  0  0  0  0  0  0  0  0
   10.6203   -4.1692   23.6238 N   0  0  0  0  0  0  0  0  0  0  0  0
    7.7646   -8.2617   16.0480 C   0  0  0  0  0  0  0  0  0  0  0  0
    5.3012   -8.2867   17.1159 C   0  0  0  0  0  0  0  0  0  0  0  0
    9.2276   -7.3445   18.9636 C   0  0  0  0  0  0  0  0  0  0  0  0
    7.5506   -7.5995   17.2082 C   0  0  0  0  0  0  0  0  0  0  0  0
   10.7307   -4.7346   22.4252 O   0  0  0  0  0  0  0  0  0  0  0  0
   10.0845   -5.2343   19.4470 C   0  0  0  0  0  0  0  0  0  0  0  0
    9.1173    0.1617   25.2022 C   0  0  0  0  0  0  0  0  0  0  0  0
   10.1462   -3.5414   17.9224 N   0  0  0  0  0  0  0  0  0  0  0  0
   10.4894   -3.7813   21.4792 C   0  0  0  0  0  0  0  0  0  0  0  0
    8.5888   -6.8587   17.8410 C   0  0  0  0  0  0  0  0  0  0  0  0
    9.8864   -2.4418   25.8406 C   0  0  0  0  0  0  0  0  0  0  0  0
   10.4274   -4.0035   20.1230 C   0  0  0  0  0  0  0  0  0  0  0  0
  1  8  1  0
  1 12  4  0
  1 14  4  0
  2  3  4  0
  2 24  4  0
  3 20  4  0
  3 22  4  0
  4 11  4  0
  4 21  4  0
  5  9  4  0
  5 15  4  0
  6 16  4  0
  6 18  4  0
  7 22  4  0
  7 26  4  0
  8 10  4  0
  8 25  4  0
  9 16  4  0
 10 21  4  0
 11 25  4  0
 12 23  4  0
 13 17  4  0
 13 20  4  0
 14 19  4  0
 15 18  4  0
 17 24  4  0
 18 24  1  0
 19 23  4  0
 20 26  4  0
 23 26  1  0
M  END
$$$$

 Created by Python create_sdf_string function

 26 30  0  0  0  0  0  0  0  0999 V2000
   10.2642   -2.8824   23.4482 C   0  0  0  0  0  0  0  0  0  0  0  0
    9.0152   -5.6388   17.3542 C   0  0  0  0  0  0  0  0  0  0  0  0
    9.7401   -4.8478   18.1552 C   0  0  0  0  0  0  0  0  0  0  0  0
    9.1127   -0.2987   26.5214 C   0  0  0  0  0  0  0  0  0  0  0  0
    6.7607   -8.9622   15.4775 C   0  0  0  0  0  0  0  0  0  0  0  0
    6.2902   -7.6335   17.7374 C   0  0  0  0  0  0  0  0  0  0  0  0
   10.5553   -3.0217   19.1461 C   0  0  0  0  0  0  0  0  0  0  0  0
    9.8917   -1.9848   24.5104 C   0  0  0  0  0  0  0  0  0  0  0  0
    5.5433   -8.9682   16.0045 C   0  0  0  0  0  0  0  0  0  0  0  0
    9.5252   -0.6884   24.1663 C   0  0  0  0  0  0  0  0  0  0  0  0
    9.4842   -1.6109   26.8607 C   0  0  0  0  0  0  0  0  0  0  0  0
   10.2960   -2.5902   22.1197 N   0  0  0  0  0  0  0  0  0  0  0  0
   10.0044   -6.5417   19.8102 C   0  0  0  0  0  0  0  0  0  0  0  0
   10.6153   -4.1746   23.6348 N   0  0  0  0  0  0  0  0  0  0  0  0
    7.7429   -8.2648   16.0586 C   0  0  0  0  0  0  0  0  0  0  0  0
    5.3072   -8.2945   17.1251 C   0  0  0  0  0  0  0  0  0  0  0  0
    9.2207   -7.3567   18.9657 C   0  0  0  0  0  0  0  0  0  0  0  0
    7.5413   -7.5962   17.2070 C   0  0  0  0  0  0  0  0  0  0  0  0
   10.7209   -4.7165   22.4090 O   0  0  0  0  0  0  0  0  0  0  0  0
   10.0872   -5.2194   19.4553 C   0  0  0  0  0  0  0  0  0  0  0  0
    9.1203    0.1660   25.1932 C   0  0  0  0  0  0  0  0  0  0  0  0
   10.1423   -3.5591   17.9271 N   0  0  0  0  0  0  0  0  0  0  0  0
   10.5006   -3.7692   21.4853 C   0  0  0  0  0  0  0  0  0  0  0  0
    8.5894   -6.8677   17.8232 C   0  0  0  0  0  0  0  0  0  0  0  0
    9.8858   -2.4420   25.8334 C   0  0  0  0  0  0  0  0  0  0  0  0
   10.4322   -4.0035   20.1330 C   0  0  0  0  0  0  0  0  0  0  0  0
  1  8  1  0
  1 12  4  0
  1 14  4  0
  2  3  4  0
  2 24  4  0
  3 20  4  0
  3 22  4  0
  4 11  4  0
  4 21  4  0
  5  9  4  0
  5 15  4  0
  6 16  4  0
  6 18  4  0
  7 22  4  0
  7 26  4  0
  8 10  4  0
  8 25  4  0
  9 16  4  0
 10 21  4  0
 11 25  4  0
 12 23  4  0
 13 17  4  0
 13 20  4  0
 14 19  4  0
 15 18  4  0
 17 24  4  0
 18 24  1  0
 19 23  4  0
 20 26  4  0
 23 26  1  0
M  END
$$$$

 Created by Python create_sdf_string function

 26 30  0  0  0  0  0  0  0  0999 V2000
   10.2706   -2.8856   23.4560 C   0  0  0  0  0  0  0  0  0  0  0  0
    9.0223   -5.6403   17.3622 C   0  0  0  0  0  0  0  0  0  0  0  0
    9.7451   -4.8502   18.1533 C   0  0  0  0  0  0  0  0  0  0  0  0
    9.1311   -0.2995   26.5088 C   0  0  0  0  0  0  0  0  0  0  0  0
    6.7562   -8.9645   15.4758 C   0  0  0  0  0  0  0  0  0  0  0  0
    6.2996   -7.6359   17.7432 C   0  0  0  0  0  0  0  0  0  0  0  0
   10.5504   -3.0179   19.1343 C   0  0  0  0  0  0  0  0  0  0  0  0
    9.8912   -1.9886   24.5191 C   0  0  0  0  0  0  0  0  0  0  0  0
    5.5430   -8.9718   16.0151 C   0  0  0  0  0  0  0  0  0  0  0  0
    9.5279   -0.6924   24.1798 C   0  0  0  0  0  0  0  0  0  0  0  0
    9.4957   -1.6167   26.8619 C   0  0  0  0  0  0  0  0  0  0  0  0
   10.3026   -2.5830   22.1238 N   0  0  0  0  0  0  0  0  0  0  0  0
   10.0071   -6.5534   19.8076 C   0  0  0  0  0  0  0  0  0  0  0  0
   10.6115   -4.1644   23.6335 N   0  0  0  0  0  0  0  0  0  0  0  0
    7.7420   -8.2641   16.0578 C   0  0  0  0  0  0  0  0  0  0  0  0
    5.2965   -8.2940   17.1223 C   0  0  0  0  0  0  0  0  0  0  0  0
    9.2177   -7.3410   18.9707 C   0  0  0  0  0  0  0  0  0  0  0  0
    7.5449   -7.5959   17.2046 C   0  0  0  0  0  0  0  0  0  0  0  0
   10.0945   -5.2353   19.4511 C   0  0  0  0  0  0  0  0  0  0  0  0
    9.1384    0.1628   25.1958 C   0  0  0  0  0  0  0  0  0  0  0  0
   10.1342   -3.5644   17.9326 N   0  0  0  0  0  0  0  0  0  0  0  0
   10.4860   -3.7689   21.4761 C   0  0  0  0  0  0  0  0  0  0  0  0
    8.6044   -6.8607   17.8255 C   0  0  0  0  0  0  0  0  0  0  0  0
    9.8932   -2.4571   25.8282 C   0  0  0  0  0  0  0  0  0  0  0  0
   10.4269   -3.9977   20.1287 C   0  0  0  0  0  0  0  0  0  0  0  0
   10.7165   -4.7164   22.4081 He  0  0  0  0  0  0  0  0  0  0  0  0
  1  8  1  0
  1 12  4  0
  1 14  4  0
  2  3  4  0
  2 23  4  0
  3 19  4  0
  3 21  4  0
  3 24  2  0
  4  7  1  0
  4 11  4  0
  4 20  4  0
  5  9  4  0
  5 15  4  0
  6 16  4  0
  6 18  4  0
  7 21  4  0
  7 25  4  0
  8 10  4  0
  8 24  4  0
  9 16  4  0
 10 20  4  0
 11 24  2  0
 12 22  4  0
 13 17  4  0
 13 19  4  0
 15 18  4  0
 17 23  4  0
 18 23  1  0
 19 25  4  0
 22 25  1  0
M  END
$$$$

 Created by Python create_sdf_string function

 26 30  0  0  0  0  0  0  0  0999 V2000
   10.2668   -2.8813   23.4503 C   0  0  0  0  0  0  0  0  0  0  0  0
    9.0213   -5.6420   17.3556 C   0  0  0  0  0  0  0  0  0  0  0  0
    9.7404   -4.8501   18.1546 C   0  0  0  0  0  0  0  0  0  0  0  0
    9.1264   -0.2940   26.5184 C   0  0  0  0  0  0  0  0  0  0  0  0
    6.7548   -8.9570   15.4793 C   0  0  0  0  0  0  0  0  0  0  0  0
    6.3002   -7.6389   17.7427 C   0  0  0  0  0  0  0  0  0  0  0  0
   10.5480   -3.0344   19.1396 C   0  0  0  0  0  0  0  0  0  0  0  0
    9.8954   -1.9792   24.4915 C   0  0  0  0  0  0  0  0  0  0  0  0
    5.5444   -8.9654   16.0149 C   0  0  0  0  0  0  0  0  0  0  0  0
    9.5321   -0.6867   24.1540 C   0  0  0  0  0  0  0  0  0  0  0  0
    9.4991   -1.6073   26.8313 C   0  0  0  0  0  0  0  0  0  0  0  0
   10.2961   -2.5839   22.1188 N   0  0  0  0  0  0  0  0  0  0  0  0
   10.0017   -6.5418   19.8257 C   0  0  0  0  0  0  0  0  0  0  0  0
   10.6096   -4.1662   23.6243 N   0  0  0  0  0  0  0  0  0  0  0  0
    7.7380   -8.2668   16.0623 C   0  0  0  0  0  0  0  0  0  0  0  0
    5.3108   -8.2955   17.1368 C   0  0  0  0  0  0  0  0  0  0  0  0
    9.2137   -7.3510   18.9750 C   0  0  0  0  0  0  0  0  0  0  0  0
    7.5433   -7.5977   17.2085 C   0  0  0  0  0  0  0  0  0  0  0  0
   10.7184   -4.7235   22.3977 O   0  0  0  0  0  0  0  0  0  0  0  0
   10.0860   -5.2184   19.4550 C   0  0  0  0  0  0  0  0  0  0  0  0
    9.1359    0.1746   25.1854 C   0  0  0  0  0  0  0  0  0  0  0  0
   10.1365   -3.5620   17.9275 N   0  0  0  0  0  0  0  0  0  0  0  0
   10.4986   -3.7776   21.4778 C   0  0  0  0  0  0  0  0  0  0  0  0
    8.5959   -6.8656   17.8279 C   0  0  0  0  0  0  0  0  0  0  0  0
    9.8887   -2.4350   25.7987 C   0  0  0  0  0  0  0  0  0  0  0  0
   10.4271   -3.9974   20.1278 C   0  0  0  0  0  0  0  0  0  0  0  0
  1  8  1  0
  1 12  4  0
  1 14  4  0
  2  3  4  0
  2 24  4  0
  3 20  4  0
  3 22  4  0
  4 11  4  0
  4 21  4  0
  5  9  4  0
  5 15  4  0
  6 16  4  0
  6 18  4  0
  7 22  4  0
  7 26  4  0
  8 10  4  0
  8 25  4  0
  9 16  4  0
 10 21  4  0
 11 25  4  0
 12 23  4  0
 13 17  4  0
 13 20  4  0
 14 19  4  0
 15 18  4  0
 17 24  4  0
 18 24  1  0
 19 23  4  0
 20 26  4  0
 23 26  1  0
M  END
$$$$

 Created by Python create_sdf_string function

 26 30  0  0  0  0  0  0  0  0999 V2000
   10.2688   -2.8821   23.4514 C   0  0  0  0  0  0  0  0  0  0  0  0
    9.0174   -5.6451   17.3580 C   0  0  0  0  0  0  0  0  0  0  0  0
    9.7399   -4.8475   18.1490 C   0  0  0  0  0  0  0  0  0  0  0  0
    9.1262   -0.2864   26.5147 C   0  0  0  0  0  0  0  0  0  0  0  0
    6.7494   -8.9604   15.4760 C   0  0  0  0  0  0  0  0  0  0  0  0
    6.3000   -7.6355   17.7450 C   0  0  0  0  0  0  0  0  0  0  0  0
   10.5527   -3.0320   19.1378 C   0  0  0  0  0  0  0  0  0  0  0  0
    9.8960   -1.9774   24.4921 C   0  0  0  0  0  0  0  0  0  0  0  0
    5.5454   -8.9651   16.0136 C   0  0  0  0  0  0  0  0  0  0  0  0
    9.5267   -0.6792   24.1551 C   0  0  0  0  0  0  0  0  0  0  0  0
    9.4948   -1.6074   26.8389 C   0  0  0  0  0  0  0  0  0  0  0  0
   10.2910   -2.5838   22.1163 N   0  0  0  0  0  0  0  0  0  0  0  0
   10.0026   -6.5415   19.8260 C   0  0  0  0  0  0  0  0  0  0  0  0
   10.6039   -4.1603   23.6249 N   0  0  0  0  0  0  0  0  0  0  0  0
    7.7394   -8.2622   16.0648 C   0  0  0  0  0  0  0  0  0  0  0  0
    5.3108   -8.2962   17.1333 C   0  0  0  0  0  0  0  0  0  0  0  0
    9.2132   -7.3513   18.9731 C   0  0  0  0  0  0  0  0  0  0  0  0
    7.5397   -7.5937   17.2075 C   0  0  0  0  0  0  0  0  0  0  0  0
   10.7146   -4.7235   22.3986 O   0  0  0  0  0  0  0  0  0  0  0  0
   10.0826   -5.2169   19.4547 C   0  0  0  0  0  0  0  0  0  0  0  0
    9.1371    0.1759   25.1824 C   0  0  0  0  0  0  0  0  0  0  0  0
   10.1366   -3.5570   17.9262 N   0  0  0  0  0  0  0  0  0  0  0  0
   10.4953   -3.7751   21.4789 C   0  0  0  0  0  0  0  0  0  0  0  0
    8.5966   -6.8640   17.8293 C   0  0  0  0  0  0  0  0  0  0  0  0
    9.8905   -2.4348   25.7937 C   0  0  0  0  0  0  0  0  0  0  0  0
   10.4322   -4.0009   20.1239 C   0  0  0  0  0  0  0  0  0  0  0  0
  1  8  1  0
  1 12  4  0
  1 14  4  0
  2  3  4  0
  2 24  4  0
  3 20  4  0
  3 22  4  0
  4 11  4  0
  4 21  4  0
  5  9  4  0
  5 15  4  0
  6 16  4  0
  6 18  4  0
  7 22  4  0
  7 26  4  0
  8 10  4  0
  8 25  4  0
  9 16  4  0
 10 21  4  0
 11 25  4  0
 12 23  4  0
 13 17  4  0
 13 20  4  0
 14 19  4  0
 15 18  4  0
 17 24  4  0
 18 24  1  0
 19 23  4  0
 20 26  4  0
 23 26  1  0
M  END
$$$$

 Created by Python create_sdf_string function

 26 30  0  0  0  0  0  0  0  0999 V2000
   10.2633   -2.8737   23.4381 C   0  0  0  0  0  0  0  0  0  0  0  0
    9.0198   -5.6463   17.3619 C   0  0  0  0  0  0  0  0  0  0  0  0
    9.7379   -4.8546   18.1568 C   0  0  0  0  0  0  0  0  0  0  0  0
    9.1263   -0.2897   26.5122 C   0  0  0  0  0  0  0  0  0  0  0  0
    6.7511   -8.9512   15.4816 C   0  0  0  0  0  0  0  0  0  0  0  0
    6.2994   -7.6376   17.7507 C   0  0  0  0  0  0  0  0  0  0  0  0
   10.5532   -3.0276   19.1354 C   0  0  0  0  0  0  0  0  0  0  0  0
    9.8944   -1.9730   24.4904 C   0  0  0  0  0  0  0  0  0  0  0  0
    5.5429   -8.9612   16.0175 C   0  0  0  0  0  0  0  0  0  0  0  0
    9.5316   -0.6797   24.1466 C   0  0  0  0  0  0  0  0  0  0  0  0
    9.4990   -1.6105   26.8402 C   0  0  0  0  0  0  0  0  0  0  0  0
   10.2924   -2.5810   22.1148 N   0  0  0  0  0  0  0  0  0  0  0  0
    9.9992   -6.5431   19.8434 C   0  0  0  0  0  0  0  0  0  0  0  0
   10.6052   -4.1707   23.6202 N   0  0  0  0  0  0  0  0  0  0  0  0
    7.7311   -8.2627   16.0693 C   0  0  0  0  0  0  0  0  0  0  0  0
    5.3129   -8.2978   17.1437 C   0  0  0  0  0  0  0  0  0  0  0  0
    9.2112   -7.3547   18.9836 C   0  0  0  0  0  0  0  0  0  0  0  0
    7.5392   -7.5984   17.2136 C   0  0  0  0  0  0  0  0  0  0  0  0
   10.7076   -4.7157   22.3946 O   0  0  0  0  0  0  0  0  0  0  0  0
   10.0839   -5.2177   19.4579 C   0  0  0  0  0  0  0  0  0  0  0  0
    9.1365    0.1802   25.1776 C   0  0  0  0  0  0  0  0  0  0  0  0
   10.1405   -3.5579   17.9267 N   0  0  0  0  0  0  0  0  0  0  0  0
   10.4950   -3.7635   21.4769 C   0  0  0  0  0  0  0  0  0  0  0  0
    8.5938   -6.8669   17.8356 C   0  0  0  0  0  0  0  0  0  0  0  0
    9.8887   -2.4300   25.8047 C   0  0  0  0  0  0  0  0  0  0  0  0
   10.4284   -4.0020   20.1238 C   0  0  0  0  0  0  0  0  0  0  0  0
  1  8  1  0
  1 12  4  0
  1 14  4  0
  2  3  4  0
  2 24  4  0
  3 20  4  0
  3 22  4  0
  4 11  4  0
  4 21  4  0
  5  9  4  0
  5 15  4  0
  6 16  4  0
  6 18  4  0
  7 22  4  0
  7 26  4  0
  8 10  4  0
  8 25  4  0
  9 16  4  0
 10 21  4  0
 11 25  4  0
 12 23  4  0
 13 17  4  0
 13 20  4  0
 14 19  4  0
 15 18  4  0
 17 24  4  0
 18 24  1  0
 19 23  4  0
 20 26  4  0
 23 26  1  0
M  END
$$$$

 Created by Python create_sdf_string function

 26 30  0  0  0  0  0  0  0  0999 V2000
   10.2633   -2.8737   23.4381 C   0  0  0  0  0  0  0  0  0  0  0  0
    9.0198   -5.6463   17.3619 C   0  0  0  0  0  0  0  0  0  0  0  0
    9.7379   -4.8546   18.1568 C   0  0  0  0  0  0  0  0  0  0  0  0
    9.1263   -0.2897   26.5122 C   0  0  0  0  0  0  0  0  0  0  0  0
    6.7511   -8.9512   15.4816 C   0  0  0  0  0  0  0  0  0  0  0  0
    6.2994   -7.6376   17.7507 C   0  0  0  0  0  0  0  0  0  0  0  0
   10.5532   -3.0276   19.1354 C   0  0  0  0  0  0  0  0  0  0  0  0
    9.8944   -1.9730   24.4904 C   0  0  0  0  0  0  0  0  0  0  0  0
    5.5429   -8.9612   16.0175 C   0  0  0  0  0  0  0  0  0  0  0  0
    9.5316   -0.6797   24.1466 C   0  0  0  0  0  0  0  0  0  0  0  0
    9.4990   -1.6105   26.8402 C   0  0  0  0  0  0  0  0  0  0  0  0
   10.2924   -2.5810   22.1148 N   0  0  0  0  0  0  0  0  0  0  0  0
    9.9992   -6.5431   19.8434 C   0  0  0  0  0  0  0  0  0  0  0  0
   10.6052   -4.1707   23.6202 N   0  0  0  0  0  0  0  0  0  0  0  0
    7.7311   -8.2627   16.0693 C   0  0  0  0  0  0  0  0  0  0  0  0
    5.3129   -8.2978   17.1437 C   0  0  0  0  0  0  0  0  0  0  0  0
    9.2112   -7.3547   18.9836 C   0  0  0  0  0  0  0  0  0  0  0  0
    7.5392   -7.5984   17.2136 C   0  0  0  0  0  0  0  0  0  0  0  0
   10.7076   -4.7157   22.3946 O   0  0  0  0  0  0  0  0  0  0  0  0
   10.0839   -5.2177   19.4579 C   0  0  0  0  0  0  0  0  0  0  0  0
    9.1365    0.1802   25.1776 C   0  0  0  0  0  0  0  0  0  0  0  0
   10.1405   -3.5579   17.9267 N   0  0  0  0  0  0  0  0  0  0  0  0
   10.4950   -3.7635   21.4769 C   0  0  0  0  0  0  0  0  0  0  0  0
    8.5938   -6.8669   17.8356 C   0  0  0  0  0  0  0  0  0  0  0  0
    9.8887   -2.4300   25.8047 C   0  0  0  0  0  0  0  0  0  0  0  0
   10.4284   -4.0020   20.1238 C   0  0  0  0  0  0  0  0  0  0  0  0
  1  8  1  0
  1 12  4  0
  1 14  4  0
  2  3  4  0
  2 24  4  0
  3 20  4  0
  3 22  4  0
  4 11  4  0
  4 21  4  0
  5  9  4  0
  5 15  4  0
  6 16  4  0
  6 18  4  0
  7 22  4  0
  7 26  4  0
  8 10  4  0
  8 25  4  0
  9 16  4  0
 10 21  4  0
 11 25  4  0
 12 23  4  0
 13 17  4  0
 13 20  4  0
 14 19  4  0
 15 18  4  0
 17 24  4  0
 18 24  1  0
 19 23  4  0
 20 26  4  0
 23 26  1  0
M  END
$$$$

 Created by Python create_sdf_string function

 26 55  0  0  0  0  0  0  0  0999 V2000
   10.5006   -2.8647   23.5856 N   0  0  0  0  0  0  0  0  0  0  0  0
    9.0549   -4.9891   17.3518 C   0  0  0  0  0  0  0  0  0  0  0  0
    9.6164    0.2737   25.9807 C   0  0  0  0  0  0  0  0  0  0  0  0
    9.3399   -8.3508   16.2244 Cl  0  0  0  0  0  0  0  0  0  0  0  0
   10.4096   -2.6376   19.5361 C   0  0  0  0  0  0  0  0  0  0  0  0
   10.0524   -2.1923   25.2020 C   0  0  0  0  0  0  0  0  0  0  0  0
    8.2618   -8.3252   16.6602 F   0  0  0  0  0  0  0  0  0  0  0  0
    9.1330   -0.5150   24.3169 C   0  0  0  0  0  0  0  0  0  0  0  0
    9.2382   -2.1736   27.2283 C   0  0  0  0  0  0  0  0  0  0  0  0
   10.9400   -4.4195   23.2476 N   0  0  0  0  0  0  0  0  0  0  0  0
    7.4781   -8.4330   15.1336 C   0  0  0  0  0  0  0  0  0  0  0  0
    8.8349   -6.3467   16.1200 I   0  0  0  0  0  0  0  0  0  0  0  0
    8.0900   -7.7126   18.5199 C   0  0  0  0  0  0  0  0  0  0  0  0
    7.3137  -10.3152   15.5247 P   0  0  0  0  0  0  0  0  0  0  0  0
   10.6971   -4.2999   21.8887 N   0  0  0  0  0  0  0  0  0  0  0  0
    9.6819   -5.4852   19.6479 C   0  0  0  0  0  0  0  0  0  0  0  0
    9.1582   -0.1896   24.6685 C   0  0  0  0  0  0  0  0  0  0  0  0
   10.4672   -3.2521   18.1469 N   0  0  0  0  0  0  0  0  0  0  0  0
    9.8965   -2.3617   25.5836 C   0  0  0  0  0  0  0  0  0  0  0  0
   10.4089   -4.2758   20.3701 C   0  0  0  0  0  0  0  0  0  0  0  0
    9.3790   -4.4793   18.0487 He  0  0  0  0  0  0  0  0  0  0  0  0
    7.4404   -7.4480   16.7285 He  0  0  0  0  0  0  0  0  0  0  0  0
   10.8664   -2.8531   21.2423 He  0  0  0  0  0  0  0  0  0  0  0  0
    9.6091   -6.2880   19.1004 He  0  0  0  0  0  0  0  0  0  0  0  0
   10.6870   -3.2604   22.2552 He  0  0  0  0  0  0  0  0  0  0  0  0
    8.1614   -7.4504   17.3367 He  0  0  0  0  0  0  0  0  0  0  0  0
  1  6  4  0
  1  7  4  0
  1 12  1  0
  1 14  3  0
  2 14  4  0
  3  6  1  0
  3  9  4  0
  3 14  1  0
  3 16  2  0
  3 17  4  0
  4  8  3  0
  4 11  2  0
  4 13  2  0
  4 19  3  0
  5 12  2  0
  5 18  2  0
  5 20  4  0
  6  8  4  0
  6 11  3  0
  6 14  1  0
  6 15  2  0
  6 16  3  0
  7  8  2  0
  7  9  4  0
  7 10  1  0
  7 13  2  0
  7 14  1  0
  7 17  3  0
  7 18  2  0
  7 19  1  0
  8 10  3  0
  8 12  1  0
  8 17  4  0
  8 19  2  0
  9 10  2  0
  9 14  2  0
  9 19  4  0
 10 15  4  0
 10 18  3  0
 10 20  1  0
 11 12  4  0
 11 15  3  0
 11 19  2  0
 12 13  1  0
 12 18  1  0
 12 19  2  0
 13 15  3  0
 14 15  2  0
 14 16  2  0
 14 17  4  0
 14 20  1  0
 15 17  3  0
 16 20  4  0
 17 20  4  0
 19 20  2  0
M  END
$$$$

 Created by Python create_sdf_string function

 26 23  0  0  0  0  0  0  0  0999 V2000
   10.4552   -3.0158   23.5977 C   0  0  0  0  0  0  0  0  0  0  0  0
    9.2958   -4.9703   17.0297 C   0  0  0  0  0  0  0  0  0  0  0  0
    9.9164   -4.4991   18.0154 C   0  0  0  0  0  0  0  0  0  0  0  0
    9.0649   -0.2813   26.4189 C   0  0  0  0  0  0  0  0  0  0  0  0
    7.3577   -7.4554   16.9784 C   0  0  0  0  0  0  0  0  0  0  0  0
    8.3151   -8.0720   16.2374 C   0  0  0  0  0  0  0  0  0  0  0  0
   10.9051   -2.8283   19.2194 C   0  0  0  0  0  0  0  0  0  0  0  0
    9.9683   -2.1018   24.5572 C   0  0  0  0  0  0  0  0  0  0  0  0
    7.5626   -8.3379   16.6202 C   0  0  0  0  0  0  0  0  0  0  0  0
    9.6997   -0.8513   24.1937 C   0  0  0  0  0  0  0  0  0  0  0  0
    9.3553   -1.5795   26.8116 C   0  0  0  0  0  0  0  0  0  0  0  0
   10.6069   -2.9371   21.8909 C   0  0  0  0  0  0  0  0  0  0  0  0
    9.7076   -6.3492   19.2007 C   0  0  0  0  0  0  0  0  0  0  0  0
   10.8149   -4.0357   23.8156 N   0  0  0  0  0  0  0  0  0  0  0  0
    7.5162   -8.3444   15.6923 C   0  0  0  0  0  0  0  0  0  0  0  0
    8.5627   -6.0438   16.5500 C   0  0  0  0  0  0  0  0  0  0  0  0
    8.4056   -7.5922   18.3308 C   0  0  0  0  0  0  0  0  0  0  0  0
    6.9035   -9.3778   15.3334 C   0  0  0  0  0  0  0  0  0  0  0  0
   10.8417   -4.5807   22.3878 N   0  0  0  0  0  0  0  0  0  0  0  0
   10.0562   -5.1355   19.5480 C   0  0  0  0  0  0  0  0  0  0  0  0
    9.2383    0.0613   25.1094 C   0  0  0  0  0  0  0  0  0  0  0  0
   10.5349   -3.3194   18.0235 N   0  0  0  0  0  0  0  0  0  0  0  0
   10.6495   -3.5723   21.7082 C   0  0  0  0  0  0  0  0  0  0  0  0
    8.4710   -7.0083   17.5948 C   0  0  0  0  0  0  0  0  0  0  0  0
    9.7895   -2.5211   25.8353 C   0  0  0  0  0  0  0  0  0  0  0  0
   10.5841   -3.9615   20.3244 C   0  0  0  0  0  0  0  0  0  0  0  0
  1  8  1  0
  1 12  4  0
  1 14  4  0
  2  3  4  0
  2 16  4  0
  3 20  4  0
  3 22  4  0
  4 11  4  0
  4 21  4  0
  7 22  4  0
  7 26  4  0
  8 10  4  0
  8 25  4  0
 10 21  4  0
 11 25  4  0
 12 23  4  0
 12 26  4  0
 13 20  4  0
 14 19  4  0
 17 24  4  0
 19 23  4  0
 20 26  4  0
 23 26  1  0
M  END
$$$$

 Created by Python create_sdf_string function

 26 69  0  0  0  0  0  0  0  0999 V2000
   10.5175   -3.5644   23.4782 C   0  0  0  0  0  0  0  0  0  0  0  0
    9.3178   -5.2775   16.8057 C   0  0  0  0  0  0  0  0  0  0  0  0
   10.2536   -4.6774   17.6935 C   0  0  0  0  0  0  0  0  0  0  0  0
    9.3298   -0.2053   25.7965 C   0  0  0  0  0  0  0  0  0  0  0  0
    7.8620   -8.6993   16.8371 Se  0  0  0  0  0  0  0  0  0  0  0  0
   10.7250   -3.1868   19.8973 C   0  0  0  0  0  0  0  0  0  0  0  0
   10.2241   -1.8145   24.3845 C   0  0  0  0  0  0  0  0  0  0  0  0
    6.6794   -7.8659   16.0066 O   0  0  0  0  0  0  0  0  0  0  0  0
    9.9048   -0.4927   24.1136 B   0  0  0  0  0  0  0  0  0  0  0  0
   10.7489   -2.9715   21.4666 C   0  0  0  0  0  0  0  0  0  0  0  0
   10.2385   -7.2013   19.9677 C   0  0  0  0  0  0  0  0  0  0  0  0
    8.8286   -7.5354   15.1960 C   0  0  0  0  0  0  0  0  0  0  0  0
    8.5750   -7.2287   17.5777 C   0  0  0  0  0  0  0  0  0  0  0  0
    6.4630   -7.5771   13.1129 N   0  0  0  0  0  0  0  0  0  0  0  0
   10.7675   -5.5760   22.7602 N   0  0  0  0  0  0  0  0  0  0  0  0
   10.3592   -4.9524   19.2267 C   0  0  0  0  0  0  0  0  0  0  0  0
    9.4397    0.1682   25.3057 C   0  0  0  0  0  0  0  0  0  0  0  0
   10.3721   -2.7703   17.0600 N   0  0  0  0  0  0  0  0  0  0  0  0
   10.6562   -4.0045   21.2894 C   0  0  0  0  0  0  0  0  0  0  0  0
    8.1025   -6.7631   17.2194 C   0  0  0  0  0  0  0  0  0  0  0  0
    9.6927   -2.4455   25.2396 C   0  0  0  0  0  0  0  0  0  0  0  0
   10.2594   -3.8731   20.2560 C   0  0  0  0  0  0  0  0  0  0  0  0
    8.6729   -7.3072   16.7891 He  0  0  0  0  0  0  0  0  0  0  0  0
    9.6227   -1.6618   26.2701 He  0  0  0  0  0  0  0  0  0  0  0  0
   10.7752   -3.3687   23.6061 He  0  0  0  0  0  0  0  0  0  0  0  0
    9.7098   -6.8344   15.0354 He  0  0  0  0  0  0  0  0  0  0  0  0
  1  7  3  0
  1  8  1  0
  1 10  4  0
  1 12  4  0
  1 14  3  0
  1 18  3  0
  1 21  4  0
  1 22  3  0
  2  8  4  0
  3 11  1  0
  3 16  4  0
  3 17  3  0
  3 18  4  0
  3 20  2  0
  4  6  3  0
  4 12  2  0
  4 17  4  0
  4 22  3  0
  5  7  4  0
  5  9  1  0
  5 12  2  0
  5 14  3  0
  5 15  3  0
  5 16  4  0
  5 18  2  0
  5 20  4  0
  5 22  3  0
  6  8  1  0
  6 12  3  0
  6 15  1  0
  6 18  4  0
  6 19  1  0
  6 20  2  0
  7  8  1  0
  7  9  4  0
  7 10  3  0
  7 21  2  0
  8 11  2  0
  8 14  3  0
  8 15  4  0
  8 16  1  0
  8 17  4  0
  8 19  4  0
  8 21  2  0
  9 10  2  0
  9 14  1  0
  9 17  4  0
  9 20  2  0
 10 12  3  0
 10 13  3  0
 10 14  4  0
 10 15  1  0
 10 17  1  0
 10 22  4  0
 11 19  4  0
 11 21  2  0
 12 13  2  0
 12 14  1  0
 12 15  2  0
 12 20  1  0
 13 15  3  0
 13 20  4  0
 14 16  4  0
 14 17  2  0
 14 20  1  0
 15 19  4  0
 16 22  4  0
 18 22  1  0
 19 22  1  0
M  END
$$$$

 Created by Python create_sdf_string function

 26 27  0  0  0  0  0  0  0  0999 V2000
   10.5088   -2.8858   23.3203 C   0  0  0  0  0  0  0  0  0  0  0  0
    9.6487   -5.0997   16.6549 C   0  0  0  0  0  0  0  0  0  0  0  0
   10.1640   -4.6171   17.8668 C   0  0  0  0  0  0  0  0  0  0  0  0
    9.1938   -0.2271   26.1569 C   0  0  0  0  0  0  0  0  0  0  0  0
    7.1361   -8.2817   16.8958 C   0  0  0  0  0  0  0  0  0  0  0  0
    8.9064   -6.4455   16.7876 C   0  0  0  0  0  0  0  0  0  0  0  0
   10.8218   -3.0215   19.1916 C   0  0  0  0  0  0  0  0  0  0  0  0
   10.0890   -1.9682   24.2800 C   0  0  0  0  0  0  0  0  0  0  0  0
    6.5317   -8.6834   16.4782 C   0  0  0  0  0  0  0  0  0  0  0  0
    9.9248   -0.6163   23.9801 C   0  0  0  0  0  0  0  0  0  0  0  0
    9.2987   -1.5158   26.4861 N   0  0  0  0  0  0  0  0  0  0  0  0
   10.6259   -2.7862   22.0325 C   0  0  0  0  0  0  0  0  0  0  0  0
   10.2387   -6.3305   19.6988 C   0  0  0  0  0  0  0  0  0  0  0  0
   10.7823   -4.1081   23.6785 O   0  0  0  0  0  0  0  0  0  0  0  0
    8.1747   -7.6676   15.4280 C   0  0  0  0  0  0  0  0  0  0  0  0
    8.6937   -6.6536   15.7102 C   0  0  0  0  0  0  0  0  0  0  0  0
    8.5806   -6.9537   17.7578 C   0  0  0  0  0  0  0  0  0  0  0  0
    6.9237   -8.5791   15.1469 C   0  0  0  0  0  0  0  0  0  0  0  0
   10.9218   -4.9281   22.3767 N   0  0  0  0  0  0  0  0  0  0  0  0
   10.3412   -5.1198   19.2379 C   0  0  0  0  0  0  0  0  0  0  0  0
    9.4786    0.2525   24.9597 C   0  0  0  0  0  0  0  0  0  0  0  0
   10.5960   -3.3950   17.8097 N   0  0  0  0  0  0  0  0  0  0  0  0
   10.7954   -4.0337   21.4294 C   0  0  0  0  0  0  0  0  0  0  0  0
    7.9249   -7.1979   17.5956 C   0  0  0  0  0  0  0  0  0  0  0  0
    9.7559   -2.4053   25.6218 C   0  0  0  0  0  0  0  0  0  0  0  0
   10.6937   -4.0857   20.0473 C   0  0  0  0  0  0  0  0  0  0  0  0
  1  8  1  0
  1 12  4  0
  1 14  4  0
  2  3  4  0
  2  6  4  0
  3 20  4  0
  3 22  4  0
  4 11  4  0
  4 21  4  0
  5  9  4  0
  5 24  4  0
  6 16  4  0
  6 17  4  0
  7 22  4  0
  7 26  4  0
  8 10  4  0
  8 25  4  0
 10 21  4  0
 11 25  4  0
 12 23  4  0
 13 20  4  0
 14 19  4  0
 15 16  4  0
 17 24  4  0
 19 23  4  0
 20 26  4  0
 23 26  1  0
M  END
$$$$

 Created by Python create_sdf_string function

 26 29  0  0  0  0  0  0  0  0999 V2000
    9.6104   -5.0099   16.4633 C   0  0  0  0  0  0  0  0  0  0  0  0
   10.4992   -4.4397   18.6622 C   0  0  0  0  0  0  0  0  0  0  0  0
    9.4855   -0.1671   25.7863 C   0  0  0  0  0  0  0  0  0  0  0  0
    9.8214   -2.0596   23.9991 C   0  0  0  0  0  0  0  0  0  0  0  0
   10.3926   -0.0621   23.4973 P   0  0  0  0  0  0  0  0  0  0  0  0
    9.7234   -1.3476   26.6429 N   0  0  0  0  0  0  0  0  0  0  0  0
   11.3252   -2.4535   22.0931 C   0  0  0  0  0  0  0  0  0  0  0  0
   10.2529   -6.1074   19.9968 C   0  0  0  0  0  0  0  0  0  0  0  0
   10.5569   -4.5402   23.9977 O   0  0  0  0  0  0  0  0  0  0  0  0
    6.9438   -7.0733   16.2824 S   0  0  0  0  0  0  0  0  0  0  0  0
   10.0245   -4.8075   22.8542 N   0  0  0  0  0  0  0  0  0  0  0  0
   10.7119   -5.7336   19.0529 C   0  0  0  0  0  0  0  0  0  0  0  0
    9.8529   -0.3184   24.8525 Cl  0  0  0  0  0  0  0  0  0  0  0  0
   10.8245   -2.7649   17.8003 N   0  0  0  0  0  0  0  0  0  0  0  0
    8.5720   -7.1122   17.4668 N   0  0  0  0  0  0  0  0  0  0  0  0
    8.9099   -2.7649   25.3483 C   0  0  0  0  0  0  0  0  0  0  0  0
   10.4584   -2.3803   23.7607 He  0  0  0  0  0  0  0  0  0  0  0  0
    6.1093   -8.0047   16.5084 He  0  0  0  0  0  0  0  0  0  0  0  0
    8.7446   -7.3310   18.0099 He  0  0  0  0  0  0  0  0  0  0  0  0
   11.0941   -3.2691   18.7381 He  0  0  0  0  0  0  0  0  0  0  0  0
    7.2513   -9.8969   17.2748 He  0  0  0  0  0  0  0  0  0  0  0  0
    8.1893   -7.3929   15.8310 He  0  0  0  0  0  0  0  0  0  0  0  0
    8.7354   -6.9300   15.7841 He  0  0  0  0  0  0  0  0  0  0  0  0
    9.0393   -6.4966   17.4462 He  0  0  0  0  0  0  0  0  0  0  0  0
   10.4995   -3.7311   20.9298 He  0  0  0  0  0  0  0  0  0  0  0  0
   10.8952   -4.3400   19.5999 He  0  0  0  0  0  0  0  0  0  0  0  0
  1  2  4  0
  1  9  2  0
  1 11  1  0
  1 12  2  0
  1 14  3  0
  2  4  2  0
  2  5  3  0
  2  7  4  0
  2 10  1  0
  2 12  4  0
  3  6  4  0
  3 10  3  0
  3 12  3  0
  3 13  4  0
  3 14  2  0
  4  5  4  0
  4 16  4  0
  5  6  2  0
  6  8  1  0
  6 11  4  0
  6 16  4  0
  7 14  4  0
  8 10  4  0
  8 12  4  0
  9 16  2  0
 10 15  3  0
 11 16  1  0
 12 14  1  0
 14 15  3  0
M  END
$$$$

 Created by Python create_sdf_string function

 26 24  0  0  0  0  0  0  0  0999 V2000
   10.4582   -2.8615   23.3196 C   0  0  0  0  0  0  0  0  0  0  0  0
    9.8000   -4.7556   16.5270 N   0  0  0  0  0  0  0  0  0  0  0  0
   10.1852   -4.7222   17.7381 C   0  0  0  0  0  0  0  0  0  0  0  0
    9.3861   -0.0769   26.0489 C   0  0  0  0  0  0  0  0  0  0  0  0
    6.4960   -8.2587   16.6219 C   0  0  0  0  0  0  0  0  0  0  0  0
    8.5583   -7.6441   17.7123 C   0  0  0  0  0  0  0  0  0  0  0  0
   11.0030   -3.1199   19.1487 C   0  0  0  0  0  0  0  0  0  0  0  0
   10.0363   -1.9212   24.2403 C   0  0  0  0  0  0  0  0  0  0  0  0
    7.0707   -8.8360   16.9487 C   0  0  0  0  0  0  0  0  0  0  0  0
   10.1196   -0.5870   23.8982 C   0  0  0  0  0  0  0  0  0  0  0  0
    9.1266   -1.3678   26.3410 N   0  0  0  0  0  0  0  0  0  0  0  0
   10.7627   -2.6615   22.0116 C   0  0  0  0  0  0  0  0  0  0  0  0
   10.3498   -5.8260   19.7607 C   0  0  0  0  0  0  0  0  0  0  0  0
   10.5285   -4.1115   23.5737 O   0  0  0  0  0  0  0  0  0  0  0  0
    7.9909   -7.6918   15.9526 C   0  0  0  0  0  0  0  0  0  0  0  0
    8.3599   -6.7937   16.0681 C   0  0  0  0  0  0  0  0  0  0  0  0
    9.0722   -6.3351   17.0380 C   0  0  0  0  0  0  0  0  0  0  0  0
    6.8810   -7.5206   16.4071 C   0  0  0  0  0  0  0  0  0  0  0  0
   10.7358   -4.7782   22.3340 N   0  0  0  0  0  0  0  0  0  0  0  0
   10.2239   -5.3790   18.9977 C   0  0  0  0  0  0  0  0  0  0  0  0
    9.7825    0.2870   24.8769 N   0  0  0  0  0  0  0  0  0  0  0  0
   10.7892   -3.3616   17.7912 N   0  0  0  0  0  0  0  0  0  0  0  0
   10.7980   -3.8246   21.3959 C   0  0  0  0  0  0  0  0  0  0  0  0
    8.6028   -7.1494   17.5098 N   0  0  0  0  0  0  0  0  0  0  0  0
    9.4797   -2.3526   25.4589 C   0  0  0  0  0  0  0  0  0  0  0  0
   10.7336   -4.1351   19.9794 C   0  0  0  0  0  0  0  0  0  0  0  0
  1  8  1  0
  1 12  4  0
  1 14  4  0
  2  3  4  0
  3 20  4  0
  3 22  4  0
  4 11  4  0
  4 21  4  0
  5 18  1  0
  6 24  1  0
  7 22  4  0
  7 26  4  0
  8 10  4  0
  8 25  4  0
 10 21  4  0
 11 25  4  0
 12 23  4  0
 13 20  4  0
 13 26  4  0
 14 19  4  0
 17 24  1  0
 19 23  4  0
 20 26  4  0
 23 26  1  0
M  END
$$$$

 Created by Python create_sdf_string function

 26 45  0  0  0  0  0  0  0  0999 V2000
   10.7711   -2.3400   23.4255 C   0  0  0  0  0  0  0  0  0  0  0  0
    9.9443   -5.4273   16.8590 N   0  0  0  0  0  0  0  0  0  0  0  0
   10.5612   -5.0798   17.4453 C   0  0  0  0  0  0  0  0  0  0  0  0
    8.9440    0.1772   26.3586 C   0  0  0  0  0  0  0  0  0  0  0  0
    8.6645   -8.6330   18.4664 O   0  0  0  0  0  0  0  0  0  0  0  0
   11.2421   -3.1984   19.0412 C   0  0  0  0  0  0  0  0  0  0  0  0
   10.3855   -1.5789   24.4047 N   0  0  0  0  0  0  0  0  0  0  0  0
    9.0951   -1.5717   26.4612 N   0  0  0  0  0  0  0  0  0  0  0  0
   11.4770   -3.2124   21.5717 C   0  0  0  0  0  0  0  0  0  0  0  0
   10.3780   -5.4263   20.4364 C   0  0  0  0  0  0  0  0  0  0  0  0
   10.2892   -3.5864   23.5821 O   0  0  0  0  0  0  0  0  0  0  0  0
    8.9360   -6.7827   16.7169 S   0  0  0  0  0  0  0  0  0  0  0  0
   10.3358   -5.2903   22.6154 N   0  0  0  0  0  0  0  0  0  0  0  0
    9.1804   -0.2989   25.6836 N   0  0  0  0  0  0  0  0  0  0  0  0
   11.4524   -3.9205   17.8909 N   0  0  0  0  0  0  0  0  0  0  0  0
   10.5582   -3.6001   21.7062 C   0  0  0  0  0  0  0  0  0  0  0  0
    8.1509   -7.2412   17.9782 N   0  0  0  0  0  0  0  0  0  0  0  0
    9.4608   -2.3369   25.5934 C   0  0  0  0  0  0  0  0  0  0  0  0
   10.6115   -3.9579   19.6112 C   0  0  0  0  0  0  0  0  0  0  0  0
    7.0374   -8.1404   17.4341 He  0  0  0  0  0  0  0  0  0  0  0  0
    5.6717   -9.9064   17.6488 He  0  0  0  0  0  0  0  0  0  0  0  0
   10.0411   -0.7117   23.9008 He  0  0  0  0  0  0  0  0  0  0  0  0
    8.0039   -7.4983   14.6812 He  0  0  0  0  0  0  0  0  0  0  0  0
    6.4176   -5.3025   16.2206 He  0  0  0  0  0  0  0  0  0  0  0  0
    5.0259   -7.9052   18.1791 He  0  0  0  0  0  0  0  0  0  0  0  0
   10.2459   -6.3206   19.1767 He  0  0  0  0  0  0  0  0  0  0  0  0
  1  4  3  0
  1  7  4  0
  1 11  4  0
  1 13  4  0
  1 19  3  0
  2  5  2  0
  2 10  1  0
  2 14  4  0
  2 16  4  0
  2 17  1  0
  3  7  4  0
  3 15  4  0
  4  6  4  0
  4  8  4  0
  4  9  2  0
  4 12  3  0
  4 13  3  0
  4 14  4  0
  5  6  1  0
  5  7  1  0
  5  8  1  0
  5 17  4  0
  5 18  3  0
  6  9  1  0
  6 14  4  0
  6 15  4  0
  6 16  2  0
  6 18  3  0
  6 19  4  0
  7 10  4  0
  7 17  2  0
  8 12  1  0
  9 12  4  0
  9 18  2  0
 10 15  3  0
 10 17  3  0
 11 13  4  0
 11 15  1  0
 13 15  1  0
 13 16  4  0
 14 18  2  0
 15 16  2  0
 15 19  3  0
 16 19  1  0
 17 18  3  0
M  END
$$$$

 Created by Python create_sdf_string function

 26 26  0  0  0  0  0  0  0  0999 V2000
   10.5135   -2.6757   23.3917 C   0  0  0  0  0  0  0  0  0  0  0  0
    9.5979   -5.5388   16.4996 N   0  0  0  0  0  0  0  0  0  0  0  0
   10.2769   -5.0983   17.7473 C   0  0  0  0  0  0  0  0  0  0  0  0
    8.8208   -0.2269   26.1912 C   0  0  0  0  0  0  0  0  0  0  0  0
    6.7413   -8.1787   17.5195 C   0  0  0  0  0  0  0  0  0  0  0  0
    8.0710   -8.1605   17.8072 C   0  0  0  0  0  0  0  0  0  0  0  0
   11.1204   -3.3752   19.1191 C   0  0  0  0  0  0  0  0  0  0  0  0
    9.9870   -1.7445   24.4148 C   0  0  0  0  0  0  0  0  0  0  0  0
    6.0642   -8.7750   17.6021 C   0  0  0  0  0  0  0  0  0  0  0  0
    9.9304   -0.5283   24.2215 C   0  0  0  0  0  0  0  0  0  0  0  0
    8.9086   -1.5048   26.4609 N   0  0  0  0  0  0  0  0  0  0  0  0
   10.8505   -2.6177   22.1362 C   0  0  0  0  0  0  0  0  0  0  0  0
   10.5936   -5.3778   19.9653 C   0  0  0  0  0  0  0  0  0  0  0  0
   10.6562   -3.9327   23.7217 O   0  0  0  0  0  0  0  0  0  0  0  0
    8.0508   -7.5528   15.7604 C   0  0  0  0  0  0  0  0  0  0  0  0
    7.3067   -6.3309   15.8843 C   0  0  0  0  0  0  0  0  0  0  0  0
    8.6122   -6.5960   16.4893 C   0  0  0  0  0  0  0  0  0  0  0  0
    5.6566   -8.2099   17.6317 C   0  0  0  0  0  0  0  0  0  0  0  0
   10.8855   -4.6434   22.4686 N   0  0  0  0  0  0  0  0  0  0  0  0
   10.1845   -5.9049   18.8519 C   0  0  0  0  0  0  0  0  0  0  0  0
    9.3227    0.2011   25.2119 N   0  0  0  0  0  0  0  0  0  0  0  0
   10.8171   -3.8440   17.7711 N   0  0  0  0  0  0  0  0  0  0  0  0
   10.9472   -3.7420   21.5035 C   0  0  0  0  0  0  0  0  0  0  0  0
    8.3178   -7.3010   17.1867 C   0  0  0  0  0  0  0  0  0  0  0  0
    9.4794   -2.3236   25.6032 C   0  0  0  0  0  0  0  0  0  0  0  0
   10.9062   -4.1597   20.1926 C   0  0  0  0  0  0  0  0  0  0  0  0
  1  8  1  0
  1 12  4  0
  1 14  4  0
  2  3  1  0
  2 17  1  0
  3 20  4  0
  3 22  4  0
  4 11  4  0
  4 21  4  0
  5  9  4  0
  5 18  4  0
  6 24  4  0
  7 22  4  0
  7 26  4  0
  8 10  4  0
  8 25  4  0
  9 18  4  0
 10 21  4  0
 11 25  4  0
 12 23  4  0
 13 20  4  0
 13 26  4  0
 14 19  4  0
 17 24  1  0
 19 23  4  0
 23 26  1  0
M  END
$$$$

 Created by Python create_sdf_string function

 26 42  0  0  0  0  0  0  0  0999 V2000
   10.6082   -2.2483   23.8798 C   0  0  0  0  0  0  0  0  0  0  0  0
    9.9043   -6.0339   17.0268 N   0  0  0  0  0  0  0  0  0  0  0  0
    9.9726   -4.8742   18.0390 F   0  0  0  0  0  0  0  0  0  0  0  0
    8.6107    0.3070   25.8493 C   0  0  0  0  0  0  0  0  0  0  0  0
    6.4962   -7.6074   18.5965 C   0  0  0  0  0  0  0  0  0  0  0  0
   11.0272   -3.6346   19.5597 O   0  0  0  0  0  0  0  0  0  0  0  0
   10.5804   -1.1758   23.7869 C   0  0  0  0  0  0  0  0  0  0  0  0
   10.1204   -0.4515   24.2383 C   0  0  0  0  0  0  0  0  0  0  0  0
    8.6837   -1.1377   26.1707 N   0  0  0  0  0  0  0  0  0  0  0  0
   11.2635   -2.3307   22.7135 C   0  0  0  0  0  0  0  0  0  0  0  0
   10.4128   -5.4682   19.8456 C   0  0  0  0  0  0  0  0  0  0  0  0
   10.4720   -3.8090   23.6935 O   0  0  0  0  0  0  0  0  0  0  0  0
    8.9781   -6.3523   15.6140 C   0  0  0  0  0  0  0  0  0  0  0  0
    9.0524    0.4415   24.5014 N   0  0  0  0  0  0  0  0  0  0  0  0
   10.6235   -4.1337   17.5048 N   0  0  0  0  0  0  0  0  0  0  0  0
    8.7060   -7.2758   17.5338 C   0  0  0  0  0  0  0  0  0  0  0  0
    9.0737   -2.0410   25.8385 I   0  0  0  0  0  0  0  0  0  0  0  0
   11.6805   -3.6815   20.6645 C   0  0  0  0  0  0  0  0  0  0  0  0
    6.7682  -10.2052   18.6594 He  0  0  0  0  0  0  0  0  0  0  0  0
    5.6303  -10.4499   16.2967 He  0  0  0  0  0  0  0  0  0  0  0  0
    8.1284   -8.0309   17.5045 He  0  0  0  0  0  0  0  0  0  0  0  0
    5.9912   -6.4939   16.5947 He  0  0  0  0  0  0  0  0  0  0  0  0
    6.8748   -6.7568   18.0057 He  0  0  0  0  0  0  0  0  0  0  0  0
   11.0572   -3.7040   21.9093 He  0  0  0  0  0  0  0  0  0  0  0  0
    9.8365   -5.6096   18.2050 He  0  0  0  0  0  0  0  0  0  0  0  0
   10.1064   -3.0323   21.0151 He  0  0  0  0  0  0  0  0  0  0  0  0
  1  7  2  0
  1  8  3  0
  1 10  4  0
  1 12  4  0
  2  3  1  0
  2  5  4  0
  2  9  1  0
  2 12  4  0
  2 13  1  0
  2 14  2  0
  3 15  4  0
  4  7  1  0
  4  9  4  0
  4 11  4  0
  4 14  4  0
  4 15  4  0
  5  8  2  0
  5 10  1  0
  5 17  3  0
  6  7  1  0
  6  8  3  0
  6 12  2  0
  6 15  4  0
  6 18  4  0
  7  9  4  0
  7 17  4  0
  8 14  4  0
  9 12  1  0
  9 17  4  0
 10 13  3  0
 10 18  4  0
 11 13  4  0
 11 16  4  0
 11 18  4  0
 12 13  2  0
 12 15  4  0
 12 16  3  0
 13 14  4  0
 13 16  1  0
 14 15  1  0
 16 17  3  0
 16 18  3  0
M  END
$$$$

 Created by Python create_sdf_string function

 26 27  0  0  0  0  0  0  0  0999 V2000
   10.4969   -2.4375   23.5495 C   0  0  0  0  0  0  0  0  0  0  0  0
    9.6379   -5.4891   16.6468 N   0  0  0  0  0  0  0  0  0  0  0  0
   10.1262   -5.1106   17.8151 C   0  0  0  0  0  0  0  0  0  0  0  0
    8.4818    0.2622   25.8316 C   0  0  0  0  0  0  0  0  0  0  0  0
    6.4564   -8.0779   17.8531 C   0  0  0  0  0  0  0  0  0  0  0  0
    6.3228   -8.9335   17.4280 C   0  0  0  0  0  0  0  0  0  0  0  0
   11.0351   -3.3126   19.0236 C   0  0  0  0  0  0  0  0  0  0  0  0
    9.8980   -1.5226   24.4026 C   0  0  0  0  0  0  0  0  0  0  0  0
    6.0138   -9.3481   16.8097 O   0  0  0  0  0  0  0  0  0  0  0  0
    9.8612   -0.1781   24.0440 C   0  0  0  0  0  0  0  0  0  0  0  0
    8.6015   -1.0008   26.2678 N   0  0  0  0  0  0  0  0  0  0  0  0
   11.0336   -2.2779   22.3770 C   0  0  0  0  0  0  0  0  0  0  0  0
   10.4687   -5.2834   20.1769 C   0  0  0  0  0  0  0  0  0  0  0  0
   10.5051   -3.7387   23.7626 O   0  0  0  0  0  0  0  0  0  0  0  0
    7.8612   -8.0726   17.0294 C   0  0  0  0  0  0  0  0  0  0  0  0
    6.6110   -7.5252   16.6289 C   0  0  0  0  0  0  0  0  0  0  0  0
    9.0414   -6.2592   16.0062 C   0  0  0  0  0  0  0  0  0  0  0  0
    7.1113   -7.2596   17.4473 C   0  0  0  0  0  0  0  0  0  0  0  0
   10.7156   -4.3402   22.5423 N   0  0  0  0  0  0  0  0  0  0  0  0
   10.0802   -5.8328   18.9272 C   0  0  0  0  0  0  0  0  0  0  0  0
    9.1787    0.6961   24.7701 N   0  0  0  0  0  0  0  0  0  0  0  0
   10.7091   -3.9001   17.7851 N   0  0  0  0  0  0  0  0  0  0  0  0
   10.8958   -3.4689   21.4732 C   0  0  0  0  0  0  0  0  0  0  0  0
    8.5630   -7.2597   17.2702 C   0  0  0  0  0  0  0  0  0  0  0  0
    9.2832   -1.9343   25.6153 C   0  0  0  0  0  0  0  0  0  0  0  0
   10.8344   -4.0201   20.1386 C   0  0  0  0  0  0  0  0  0  0  0  0
  1  8  1  0
  1 12  4  0
  1 14  4  0
  2  3  1  0
  2 17  1  0
  3 20  4  0
  3 22  4  0
  4 11  4  0
  4 21  4  0
  5  6  4  0
  5 18  4  0
  6  9  4  0
  7 22  4  0
  7 26  4  0
  8 10  4  0
  8 25  4  0
 10 21  4  0
 11 25  4  0
 12 23  4  0
 13 20  4  0
 13 26  4  0
 14 19  4  0
 15 24  4  0
 16 18  4  0
 17 24  1  0
 19 23  4  0
 23 26  1  0
M  END
$$$$

 Created by Python create_sdf_string function

 26 41  0  0  0  0  0  0  0  0999 V2000
   10.0808   -3.0995   23.2727 C   0  0  0  0  0  0  0  0  0  0  0  0
   10.2445   -5.9136   16.4306 N   0  0  0  0  0  0  0  0  0  0  0  0
   10.0962   -5.7632   18.0343 C   0  0  0  0  0  0  0  0  0  0  0  0
    8.5019    0.3397   25.8048 C   0  0  0  0  0  0  0  0  0  0  0  0
    6.2668   -8.1092   17.2878 C   0  0  0  0  0  0  0  0  0  0  0  0
    9.8377   -0.8677   23.7193 C   0  0  0  0  0  0  0  0  0  0  0  0
    7.0449  -10.6680   15.4478 N   0  0  0  0  0  0  0  0  0  0  0  0
    8.8378    0.1295   23.7883 C   0  0  0  0  0  0  0  0  0  0  0  0
    8.4513   -0.9779   26.2044 N   0  0  0  0  0  0  0  0  0  0  0  0
    9.9384   -5.6867   19.9728 C   0  0  0  0  0  0  0  0  0  0  0  0
    8.3756   -6.7967   16.9885 N   0  0  0  0  0  0  0  0  0  0  0  0
    6.2286   -7.2846   17.7390 Cl  0  0  0  0  0  0  0  0  0  0  0  0
    5.1010   -7.0478   16.8640 Cl  0  0  0  0  0  0  0  0  0  0  0  0
   10.3132   -3.9645   22.6912 N   0  0  0  0  0  0  0  0  0  0  0  0
   10.1404   -5.8253   18.5487 C   0  0  0  0  0  0  0  0  0  0  0  0
    9.0848    0.6695   24.8873 N   0  0  0  0  0  0  0  0  0  0  0  0
   10.2882   -4.2189   17.9465 N   0  0  0  0  0  0  0  0  0  0  0  0
    8.4845   -7.1496   18.1593 C   0  0  0  0  0  0  0  0  0  0  0  0
   10.8591   -3.4890   20.3196 C   0  0  0  0  0  0  0  0  0  0  0  0
    6.7193   -8.9260   17.1989 He  0  0  0  0  0  0  0  0  0  0  0  0
   11.2668   -2.9412   18.8791 He  0  0  0  0  0  0  0  0  0  0  0  0
   10.7321   -2.3712   22.1666 He  0  0  0  0  0  0  0  0  0  0  0  0
   10.5351   -3.5816   23.8316 He  0  0  0  0  0  0  0  0  0  0  0  0
    9.0540   -6.6098   16.2033 He  0  0  0  0  0  0  0  0  0  0  0  0
   10.6578   -3.6182   21.5157 He  0  0  0  0  0  0  0  0  0  0  0  0
    9.8341   -2.6416   25.5803 He  0  0  0  0  0  0  0  0  0  0  0  0
  1  6  1  0
  1 11  2  0
  1 12  4  0
  1 13  3  0
  3  5  1  0
  3 15  4  0
  3 17  4  0
  3 18  3  0
  4  9  4  0
  4 11  2  0
  4 12  2  0
  4 16  4  0
  5  7  1  0
  5 15  3  0
  5 17  1  0
  5 18  3  0
  6  7  1  0
  6  8  4  0
  6 12  3  0
  7  9  2  0
  7 11  1  0
  7 13  4  0
  7 16  4  0
  8 12  3  0
  8 16  4  0
  9 12  2  0
  9 13  3  0
 10 15  4  0
 10 19  4  0
 11 12  4  0
 11 15  4  0
 11 17  2  0
 12 19  1  0
 13 16  1  0
 14 17  2  0
 15 17  3  0
 15 18  1  0
 15 19  1  0
 16 17  3  0
 17 18  1  0
 17 19  3  0
M  END
$$$$

 Created by Python create_sdf_string function

 26 27  0  0  0  0  0  0  0  0999 V2000
   10.2258   -2.4139   23.3429 C   0  0  0  0  0  0  0  0  0  0  0  0
    9.8440   -5.5269   16.4695 N   0  0  0  0  0  0  0  0  0  0  0  0
   10.1102   -5.0715   17.6406 C   0  0  0  0  0  0  0  0  0  0  0  0
    8.4756    0.2618   25.8716 C   0  0  0  0  0  0  0  0  0  0  0  0
    6.8073   -8.4574   16.7495 C   0  0  0  0  0  0  0  0  0  0  0  0
    6.8927   -8.6561   16.8224 C   0  0  0  0  0  0  0  0  0  0  0  0
   10.8842   -3.3301   19.1944 C   0  0  0  0  0  0  0  0  0  0  0  0
    9.7123   -1.4517   24.2399 C   0  0  0  0  0  0  0  0  0  0  0  0
    7.0498   -8.7613   15.7117 C   0  0  0  0  0  0  0  0  0  0  0  0
    9.5938   -0.1636   23.8267 C   0  0  0  0  0  0  0  0  0  0  0  0
    8.6634   -0.9749   26.3053 N   0  0  0  0  0  0  0  0  0  0  0  0
   10.4653   -2.3799   22.0593 N   0  0  0  0  0  0  0  0  0  0  0  0
   10.2010   -5.3509   20.0301 C   0  0  0  0  0  0  0  0  0  0  0  0
   10.4861   -3.6720   23.7045 N   0  0  0  0  0  0  0  0  0  0  0  0
    8.2692   -7.1072   17.1781 C   0  0  0  0  0  0  0  0  0  0  0  0
    6.6204   -7.5197   17.5466 C   0  0  0  0  0  0  0  0  0  0  0  0
    8.8085   -6.4545   16.0922 C   0  0  0  0  0  0  0  0  0  0  0  0
    5.7650   -7.9363   16.8854 C   0  0  0  0  0  0  0  0  0  0  0  0
   10.7622   -4.4974   22.5619 N   0  0  0  0  0  0  0  0  0  0  0  0
    9.7876   -5.7625   18.6909 C   0  0  0  0  0  0  0  0  0  0  0  0
    8.9143    0.7045   24.6957 N   0  0  0  0  0  0  0  0  0  0  0  0
   10.6738   -3.8665   17.7704 N   0  0  0  0  0  0  0  0  0  0  0  0
   10.6661   -3.6407   21.5240 C   0  0  0  0  0  0  0  0  0  0  0  0
    8.9198   -6.9749   18.4079 C   0  0  0  0  0  0  0  0  0  0  0  0
    9.2750   -1.8819   25.4845 C   0  0  0  0  0  0  0  0  0  0  0  0
   10.6187   -4.0931   20.1940 C   0  0  0  0  0  0  0  0  0  0  0  0
  1  8  1  0
  1 12  4  0
  1 14  4  0
  2  3  1  0
  2 17  1  0
  3 20  4  0
  3 22  4  0
  4 11  4  0
  4 21  4  0
  5  6  4  0
  5  9  4  0
  7 22  4  0
  7 26  4  0
  8 10  4  0
  8 25  4  0
 10 21  4  0
 11 25  4  0
 12 23  4  0
 13 20  4  0
 13 26  4  0
 14 19  4  0
 15 17  1  0
 15 24  1  0
 16 18  4  0
 19 23  4  0
 20 24  1  0
 23 26  1  0
M  END
$$$$

 Created by Python create_sdf_string function

 26 34  0  0  0  0  0  0  0  0999 V2000
   10.9063   -2.3725   23.0775 C   0  0  0  0  0  0  0  0  0  0  0  0
   10.0165   -4.8436   17.7969 C   0  0  0  0  0  0  0  0  0  0  0  0
    8.7488    0.5085   25.8578 C   0  0  0  0  0  0  0  0  0  0  0  0
    7.3867   -8.1434   17.8209 S   0  0  0  0  0  0  0  0  0  0  0  0
   10.9239   -2.6797   19.2349 S   0  0  0  0  0  0  0  0  0  0  0  0
    8.1993   -2.0216   26.4623 N   0  0  0  0  0  0  0  0  0  0  0  0
   10.2954   -2.0866   21.1418 N   0  0  0  0  0  0  0  0  0  0  0  0
   10.5632   -4.9604   20.2208 C   0  0  0  0  0  0  0  0  0  0  0  0
   10.7981   -3.2139   23.9443 N   0  0  0  0  0  0  0  0  0  0  0  0
    7.5035   -8.5274   17.9963 O   0  0  0  0  0  0  0  0  0  0  0  0
    8.6481   -7.0681   16.1893 C   0  0  0  0  0  0  0  0  0  0  0  0
   10.1159   -5.5849   18.6519 C   0  0  0  0  0  0  0  0  0  0  0  0
    9.4282    0.8455   25.1226 N   0  0  0  0  0  0  0  0  0  0  0  0
   10.5127   -3.9550   17.2646 N   0  0  0  0  0  0  0  0  0  0  0  0
    9.1095   -6.8027   18.9932 C   0  0  0  0  0  0  0  0  0  0  0  0
    9.1701   -1.6880   25.7679 O   0  0  0  0  0  0  0  0  0  0  0  0
   11.3604   -3.6667   20.6625 C   0  0  0  0  0  0  0  0  0  0  0  0
    9.5590   -5.1942   17.0583 He  0  0  0  0  0  0  0  0  0  0  0  0
    7.5651   -7.9639   15.5609 He  0  0  0  0  0  0  0  0  0  0  0  0
    9.6316   -0.7394   23.4511 He  0  0  0  0  0  0  0  0  0  0  0  0
    6.5021   -9.5465   15.1602 He  0  0  0  0  0  0  0  0  0  0  0  0
    9.3266   -0.5640   24.0213 He  0  0  0  0  0  0  0  0  0  0  0  0
    8.2215   -7.9199   16.8114 He  0  0  0  0  0  0  0  0  0  0  0  0
    4.7217   -8.0459   16.3670 He  0  0  0  0  0  0  0  0  0  0  0  0
   11.2362   -4.5147   21.8246 He  0  0  0  0  0  0  0  0  0  0  0  0
   10.6563   -4.4014   21.8362 He  0  0  0  0  0  0  0  0  0  0  0  0
  1  2  2  0
  1  9  4  0
  1 10  4  0
  1 12  1  0
  2  4  4  0
  2 12  4  0
  3  4  1  0
  3  6  4  0
  3  7  2  0
  3 10  1  0
  3 13  2  0
  4  7  1  0
  4  9  2  0
  4 12  1  0
  4 13  4  0
  4 16  1  0
  4 17  2  0
  5 11  3  0
  5 14  2  0
  5 17  4  0
  6 17  4  0
  7  8  3  0
  7  9  1  0
  7 10  1  0
  8 17  4  0
  9 14  1  0
 10 12  3  0
 10 14  2  0
 10 15  4  0
 10 16  1  0
 10 17  3  0
 12 15  1  0
 12 17  2  0
 14 15  1  0
M  END
$$$$

 Created by Python create_sdf_string function

 26 26  0  0  0  0  0  0  0  0999 V2000
   10.3728   -2.3982   23.4009 C   0  0  0  0  0  0  0  0  0  0  0  0
    9.4983   -5.4892   16.5572 O   0  0  0  0  0  0  0  0  0  0  0  0
   10.0295   -4.9468   17.7069 C   0  0  0  0  0  0  0  0  0  0  0  0
    8.5009    0.2067   26.0456 C   0  0  0  0  0  0  0  0  0  0  0  0
    7.5265   -8.2875   15.6524 C   0  0  0  0  0  0  0  0  0  0  0  0
    6.9723   -8.0102   17.4583 C   0  0  0  0  0  0  0  0  0  0  0  0
   10.9234   -3.1542   19.0657 C   0  0  0  0  0  0  0  0  0  0  0  0
    9.7535   -1.4833   24.2899 C   0  0  0  0  0  0  0  0  0  0  0  0
    6.6925   -8.6746   15.7711 C   0  0  0  0  0  0  0  0  0  0  0  0
    9.7122   -0.1972   23.9761 C   0  0  0  0  0  0  0  0  0  0  0  0
    8.5274   -1.1104   26.2820 N   0  0  0  0  0  0  0  0  0  0  0  0
   10.5888   -2.3339   22.0261 N   0  0  0  0  0  0  0  0  0  0  0  0
   10.4406   -5.1875   20.0229 C   0  0  0  0  0  0  0  0  0  0  0  0
   10.7612   -3.5999   23.7083 N   0  0  0  0  0  0  0  0  0  0  0  0
    8.1213   -7.4967   17.0239 C   0  0  0  0  0  0  0  0  0  0  0  0
    7.0687   -8.0907   17.6206 C   0  0  0  0  0  0  0  0  0  0  0  0
    8.8015   -6.6708   16.3196 C   0  0  0  0  0  0  0  0  0  0  0  0
    5.8521   -8.6078   16.6614 C   0  0  0  0  0  0  0  0  0  0  0  0
   11.0703   -4.3767   22.5438 O   0  0  0  0  0  0  0  0  0  0  0  0
    9.9678   -5.6722   18.8212 C   0  0  0  0  0  0  0  0  0  0  0  0
    9.0625    0.6614   24.9204 N   0  0  0  0  0  0  0  0  0  0  0  0
   10.5559   -3.6591   17.7357 C   0  0  0  0  0  0  0  0  0  0  0  0
   10.8809   -3.5049   21.4507 C   0  0  0  0  0  0  0  0  0  0  0  0
    9.3823   -6.9812   18.7091 C   0  0  0  0  0  0  0  0  0  0  0  0
    9.1702   -1.9942   25.4239 C   0  0  0  0  0  0  0  0  0  0  0  0
   10.7618   -3.9427   20.1192 C   0  0  0  0  0  0  0  0  0  0  0  0
  1  8  1  0
  1 12  4  0
  1 14  4  0
  2  3  1  0
  2 17  1  0
  3 20  4  0
  3 22  4  0
  4 11  4  0
  4 21  4  0
  5  9  4  0
  6 16  4  0
  7 22  4  0
  7 26  4  0
  8 10  4  0
  8 25  4  0
  9 18  4  0
 10 21  4  0
 11 25  4  0
 12 23  4  0
 13 20  4  0
 13 26  4  0
 14 19  4  0
 15 17  1  0
 19 23  4  0
 20 24  1  0
 23 26  1  0
M  END
$$$$

 Created by Python create_sdf_string function

 26 47  0  0  0  0  0  0  0  0999 V2000
   10.5653   -2.5338   23.4071 C   0  0  0  0  0  0  0  0  0  0  0  0
   10.1577   -5.2280   18.0659 C   0  0  0  0  0  0  0  0  0  0  0  0
    7.9979    0.3051   26.1025 P   0  0  0  0  0  0  0  0  0  0  0  0
    7.4300   -8.7565   18.2399 N   0  0  0  0  0  0  0  0  0  0  0  0
   10.7980   -3.4844   18.9476 C   0  0  0  0  0  0  0  0  0  0  0  0
    9.1377   -1.4160   23.4066 C   0  0  0  0  0  0  0  0  0  0  0  0
    9.9278    0.1251   24.0184 C   0  0  0  0  0  0  0  0  0  0  0  0
    8.5501   -1.3640   25.4825 Se  0  0  0  0  0  0  0  0  0  0  0  0
   10.5130   -2.6770   21.6465 C   0  0  0  0  0  0  0  0  0  0  0  0
   11.4529   -4.8172   19.8585 C   0  0  0  0  0  0  0  0  0  0  0  0
    6.5239   -8.5757   18.2805 N   0  0  0  0  0  0  0  0  0  0  0  0
    9.0175   -6.5164   16.2864 C   0  0  0  0  0  0  0  0  0  0  0  0
    6.2188   -8.9375   17.2451 N   0  0  0  0  0  0  0  0  0  0  0  0
   11.2051   -4.1068   22.7747 O   0  0  0  0  0  0  0  0  0  0  0  0
    9.3327   -5.9081   18.9937 C   0  0  0  0  0  0  0  0  0  0  0  0
    8.7843    0.9962   24.3914 N   0  0  0  0  0  0  0  0  0  0  0  0
   10.1210   -4.4176   17.8402 C   0  0  0  0  0  0  0  0  0  0  0  0
   11.2778   -3.4376   21.5858 C   0  0  0  0  0  0  0  0  0  0  0  0
   10.5941   -4.0779   20.2558 C   0  0  0  0  0  0  0  0  0  0  0  0
    9.9170   -5.7513   16.6767 He  0  0  0  0  0  0  0  0  0  0  0  0
    7.6187   -7.8515   15.4258 He  0  0  0  0  0  0  0  0  0  0  0  0
    5.3262   -8.8604   16.1572 He  0  0  0  0  0  0  0  0  0  0  0  0
   10.5694   -4.0504   23.8717 He  0  0  0  0  0  0  0  0  0  0  0  0
    8.1516   -7.3479   14.8406 He  0  0  0  0  0  0  0  0  0  0  0  0
    9.3742   -6.9399   19.0302 He  0  0  0  0  0  0  0  0  0  0  0  0
    9.1253   -1.9519   25.3898 He  0  0  0  0  0  0  0  0  0  0  0  0
  1  4  3  0
  1  6  1  0
  1  9  4  0
  2 11  4  0
  2 12  3  0
  2 15  4  0
  2 17  4  0
  3  4  2  0
  3  8  1  0
  3 10  4  0
  3 12  2  0
  3 13  1  0
  3 16  4  0
  4  5  3  0
  4  7  4  0
  4  8  3  0
  4 11  4  0
  4 13  4  0
  4 16  4  0
  5  7  2  0
  5 11  2  0
  5 14  1  0
  5 17  4  0
  5 19  4  0
  6  7  4  0
  6 13  3  0
  6 19  4  0
  8 12  2  0
  8 18  4  0
  9 13  1  0
  9 18  3  0
 10 11  4  0
 10 15  4  0
 11 13  3  0
 11 15  3  0
 11 17  3  0
 11 19  2  0
 12 13  3  0
 12 14  3  0
 12 17  3  0
 12 18  1  0
 13 15  2  0
 13 16  4  0
 13 18  1  0
 14 18  4  0
 15 16  2  0
 16 17  4  0
M  END
$$$$

 Created by Python create_sdf_string function

 26 29  0  0  0  0  0  0  0  0999 V2000
   10.3704   -2.4813   23.3364 C   0  0  0  0  0  0  0  0  0  0  0  0
    9.5030   -5.7819   16.6983 O   0  0  0  0  0  0  0  0  0  0  0  0
   10.0200   -5.1906   17.8006 C   0  0  0  0  0  0  0  0  0  0  0  0
    8.2520    0.3389   25.6199 C   0  0  0  0  0  0  0  0  0  0  0  0
    7.6403   -7.8916   15.6781 C   0  0  0  0  0  0  0  0  0  0  0  0
    7.3055   -8.0300   17.7224 C   0  0  0  0  0  0  0  0  0  0  0  0
   10.8780   -3.3566   19.0807 C   0  0  0  0  0  0  0  0  0  0  0  0
    9.7324   -1.5217   24.1550 C   0  0  0  0  0  0  0  0  0  0  0  0
    6.1230   -8.5634   16.2475 C   0  0  0  0  0  0  0  0  0  0  0  0
    9.6917   -0.2100   23.7594 C   0  0  0  0  0  0  0  0  0  0  0  0
    8.3474   -0.9083   26.0262 C   0  0  0  0  0  0  0  0  0  0  0  0
   10.6297   -2.4358   22.0561 N   0  0  0  0  0  0  0  0  0  0  0  0
   10.5793   -5.4408   20.1020 C   0  0  0  0  0  0  0  0  0  0  0  0
   10.7497   -3.7511   23.7412 N   0  0  0  0  0  0  0  0  0  0  0  0
    8.0622   -7.5084   15.5878 C   0  0  0  0  0  0  0  0  0  0  0  0
    6.7747   -8.2560   17.6910 C   0  0  0  0  0  0  0  0  0  0  0  0
    8.7791   -6.7337   16.5338 C   0  0  0  0  0  0  0  0  0  0  0  0
    6.3600   -8.3909   16.9745 C   0  0  0  0  0  0  0  0  0  0  0  0
   11.1131   -4.4823   22.5743 O   0  0  0  0  0  0  0  0  0  0  0  0
   10.0529   -5.8864   18.9353 C   0  0  0  0  0  0  0  0  0  0  0  0
    8.9488    0.7288   24.5418 N   0  0  0  0  0  0  0  0  0  0  0  0
   10.4128   -3.9028   17.8287 C   0  0  0  0  0  0  0  0  0  0  0  0
   10.9219   -3.6391   21.5112 C   0  0  0  0  0  0  0  0  0  0  0  0
    9.4164   -7.3016   18.8581 F   0  0  0  0  0  0  0  0  0  0  0  0
    9.0683   -1.8919   25.3381 C   0  0  0  0  0  0  0  0  0  0  0  0
   10.7942   -4.1466   20.1413 C   0  0  0  0  0  0  0  0  0  0  0  0
  1  8  1  0
  1 12  4  0
  1 14  4  0
  2  3  1  0
  2 17  1  0
  3 20  4  0
  3 22  4  0
  4 11  4  0
  4 21  4  0
  5  9  4  0
  5 15  4  0
  6 16  4  0
  6 18  4  0
  7 22  4  0
  7 26  4  0
  8 10  4  0
  8 25  4  0
  9 18  4  0
 10 21  4  0
 11 25  4  0
 12 23  4  0
 13 20  4  0
 13 26  4  0
 14 19  4  0
 15 17  1  0
 16 18  4  0
 19 23  4  0
 20 24  1  0
 23 26  1  0
M  END
$$$$

 Created by Python create_sdf_string function

 26 57  0  0  0  0  0  0  0  0999 V2000
   10.5202   -2.3905   22.6298 C   0  0  0  0  0  0  0  0  0  0  0  0
    9.2411   -5.8378   16.1080 F   0  0  0  0  0  0  0  0  0  0  0  0
    9.6160   -5.5231   17.9895 C   0  0  0  0  0  0  0  0  0  0  0  0
    7.7310   -8.3528   13.5055 C   0  0  0  0  0  0  0  0  0  0  0  0
    5.2024   -6.6830   15.9815 C   0  0  0  0  0  0  0  0  0  0  0  0
   10.4201   -3.2590   19.3525 C   0  0  0  0  0  0  0  0  0  0  0  0
    9.5994   -1.6541   24.2585 C   0  0  0  0  0  0  0  0  0  0  0  0
    9.9217   -0.1796   23.3833 C   0  0  0  0  0  0  0  0  0  0  0  0
    7.9460   -0.8304   25.5899 P   0  0  0  0  0  0  0  0  0  0  0  0
   10.5352   -2.2223   22.4309 N   0  0  0  0  0  0  0  0  0  0  0  0
   10.5843   -5.0624   19.8452 Se  0  0  0  0  0  0  0  0  0  0  0  0
    8.6845   -7.1152   16.3958 Se  0  0  0  0  0  0  0  0  0  0  0  0
    8.5045   -6.4944   16.7141 Cl  0  0  0  0  0  0  0  0  0  0  0  0
    6.9223   -8.8320   18.9276 N   0  0  0  0  0  0  0  0  0  0  0  0
    9.7376   -5.3207   19.0340 F   0  0  0  0  0  0  0  0  0  0  0  0
    8.8743    0.7511   25.1860 N   0  0  0  0  0  0  0  0  0  0  0  0
   10.3333   -3.5099   17.9789 N   0  0  0  0  0  0  0  0  0  0  0  0
   11.4573   -3.5620   21.6469 C   0  0  0  0  0  0  0  0  0  0  0  0
    9.1467   -7.2884   19.4463 F   0  0  0  0  0  0  0  0  0  0  0  0
    9.2829   -1.5091   25.6380 C   0  0  0  0  0  0  0  0  0  0  0  0
   11.1217   -4.1066   20.3924 C   0  0  0  0  0  0  0  0  0  0  0  0
    8.2508   -0.0310   25.8139 He  0  0  0  0  0  0  0  0  0  0  0  0
    7.3173   -8.9127   15.7804 He  0  0  0  0  0  0  0  0  0  0  0  0
   10.4784   -3.5414   23.6934 He  0  0  0  0  0  0  0  0  0  0  0  0
    7.0798   -9.0294   17.2633 He  0  0  0  0  0  0  0  0  0  0  0  0
   11.7207   -4.2363   22.4288 He  0  0  0  0  0  0  0  0  0  0  0  0
  1  6  1  0
  1 15  3  0
  1 17  3  0
  2  3  1  0
  2 13  4  0
  2 16  1  0
  2 17  3  0
  3  5  3  0
  3  9  4  0
  3 12  1  0
  3 14  2  0
  3 17  4  0
  3 21  3  0
  4  7  1  0
  4  8  3  0
  4  9  2  0
  4 18  1  0
  4 19  2  0
  4 20  4  0
  4 21  3  0
  5  8  3  0
  5  9  4  0
  5 11  4  0
  5 12  4  0
  5 13  4  0
  5 14  4  0
  5 17  2  0
  5 19  3  0
  6 12  4  0
  6 13  2  0
  6 14  3  0
  6 17  4  0
  6 19  3  0
  7  8  4  0
  7 10  3  0
  7 13  2  0
  7 20  4  0
  8 12  4  0
  8 16  4  0
  9 11  2  0
  9 12  2  0
  9 19  1  0
 10 12  3  0
 10 19  1  0
 10 21  1  0
 11 14  3  0
 11 17  1  0
 11 21  4  0
 12 19  3  0
 13 16  2  0
 14 15  4  0
 14 18  1  0
 15 19  1  0
 16 18  3  0
 17 18  4  0
 17 19  4  0
 18 21  1  0
M  END
$$$$

 Created by Python create_sdf_string function

 26 26  0  0  0  0  0  0  0  0999 V2000
   10.4028   -2.4168   23.4656 C   0  0  0  0  0  0  0  0  0  0  0  0
    9.2132   -5.5205   16.6276 C   0  0  0  0  0  0  0  0  0  0  0  0
    9.8394   -5.0664   17.8814 C   0  0  0  0  0  0  0  0  0  0  0  0
    8.2735    0.3073   25.7343 C   0  0  0  0  0  0  0  0  0  0  0  0
    8.0521   -8.0589   15.2602 C   0  0  0  0  0  0  0  0  0  0  0  0
    6.6057   -7.5857   16.4720 C   0  0  0  0  0  0  0  0  0  0  0  0
   10.8009   -3.3135   19.1862 C   0  0  0  0  0  0  0  0  0  0  0  0
    9.7342   -1.4283   24.2550 C   0  0  0  0  0  0  0  0  0  0  0  0
    7.2639   -8.5678   15.8286 C   0  0  0  0  0  0  0  0  0  0  0  0
    9.7566   -0.1456   23.8747 C   0  0  0  0  0  0  0  0  0  0  0  0
    8.3376   -0.9725   26.1174 N   0  0  0  0  0  0  0  0  0  0  0  0
   10.5586   -2.3262   22.1391 N   0  0  0  0  0  0  0  0  0  0  0  0
   10.5040   -5.3808   20.1596 C   0  0  0  0  0  0  0  0  0  0  0  0
   10.8075   -3.5742   23.8847 O   0  0  0  0  0  0  0  0  0  0  0  0
    8.3538   -6.9285   16.8661 C   0  0  0  0  0  0  0  0  0  0  0  0
    6.9862   -8.4626   17.1373 C   0  0  0  0  0  0  0  0  0  0  0  0
    8.3115   -6.6553   16.3976 C   0  0  0  0  0  0  0  0  0  0  0  0
    7.2436   -8.1368   17.9541 C   0  0  0  0  0  0  0  0  0  0  0  0
   11.2817   -4.3782   22.6807 O   0  0  0  0  0  0  0  0  0  0  0  0
    9.9162   -5.8061   18.9712 C   0  0  0  0  0  0  0  0  0  0  0  0
    8.9847    0.7831   24.6946 N   0  0  0  0  0  0  0  0  0  0  0  0
   10.2822   -3.7464   17.9101 C   0  0  0  0  0  0  0  0  0  0  0  0
   10.9704   -3.6168   21.6398 C   0  0  0  0  0  0  0  0  0  0  0  0
    9.4061   -7.1770   18.8410 F   0  0  0  0  0  0  0  0  0  0  0  0
    9.0439   -1.8975   25.3790 C   0  0  0  0  0  0  0  0  0  0  0  0
   10.7701   -4.0548   20.2732 C   0  0  0  0  0  0  0  0  0  0  0  0
  1  8  1  0
  1 12  4  0
  1 14  4  0
  2  3  1  0
  2 17  1  0
  3 20  4  0
  3 22  4  0
  4 11  4  0
  4 21  4  0
  5  9  4  0
  7 22  4  0
  7 26  4  0
  8 10  4  0
  8 25  4  0
  9 16  4  0
 10 21  4  0
 11 25  4  0
 12 23  4  0
 13 20  4  0
 13 26  4  0
 14 19  4  0
 15 17  4  0
 16 18  4  0
 19 23  4  0
 20 24  1  0
 23 26  1  0
M  END
$$$$

 Created by Python create_sdf_string function

 26 47  0  0  0  0  0  0  0  0999 V2000
   10.4413   -2.3193   23.3467 C   0  0  0  0  0  0  0  0  0  0  0  0
    8.9928    0.3214   25.2822 B   0  0  0  0  0  0  0  0  0  0  0  0
    8.2997   -6.3997   14.2754 F   0  0  0  0  0  0  0  0  0  0  0  0
   10.6524   -3.3275   18.7738 C   0  0  0  0  0  0  0  0  0  0  0  0
   10.1429   -0.7703   24.8021 C   0  0  0  0  0  0  0  0  0  0  0  0
    8.1437   -9.4545   17.1000 F   0  0  0  0  0  0  0  0  0  0  0  0
    9.9897   -0.0399   23.8201 C   0  0  0  0  0  0  0  0  0  0  0  0
    8.4788   -0.6917   27.0514 Cl  0  0  0  0  0  0  0  0  0  0  0  0
   10.0249   -1.9126   21.9539 N   0  0  0  0  0  0  0  0  0  0  0  0
    8.6848   -7.9576   16.0390 P   0  0  0  0  0  0  0  0  0  0  0  0
   11.6392   -4.4871   22.7093 O   0  0  0  0  0  0  0  0  0  0  0  0
    9.5691   -5.2407   19.2939 C   0  0  0  0  0  0  0  0  0  0  0  0
    8.8770    0.8743   24.3564 C   0  0  0  0  0  0  0  0  0  0  0  0
   10.7241   -3.9067   17.5776 O   0  0  0  0  0  0  0  0  0  0  0  0
   11.2434   -3.1677   22.1045 C   0  0  0  0  0  0  0  0  0  0  0  0
    8.9567   -1.9283   25.5914 C   0  0  0  0  0  0  0  0  0  0  0  0
   10.5426   -3.7883   19.5330 C   0  0  0  0  0  0  0  0  0  0  0  0
    8.4961   -5.7307   16.6136 He  0  0  0  0  0  0  0  0  0  0  0  0
    9.3844   -5.5846   18.0494 He  0  0  0  0  0  0  0  0  0  0  0  0
    7.3231   -5.6255   16.4512 He  0  0  0  0  0  0  0  0  0  0  0  0
    9.9257   -4.8013   20.6777 He  0  0  0  0  0  0  0  0  0  0  0  0
   10.9947   -3.5302   24.1368 He  0  0  0  0  0  0  0  0  0  0  0  0
    7.1578   -9.5624   16.7154 He  0  0  0  0  0  0  0  0  0  0  0  0
    8.0662   -6.8581   16.5626 He  0  0  0  0  0  0  0  0  0  0  0  0
    5.6394   -7.0333   16.8700 He  0  0  0  0  0  0  0  0  0  0  0  0
    9.5601   -7.0474   19.4607 He  0  0  0  0  0  0  0  0  0  0  0  0
  1  2  4  0
  1  5  1  0
  1  9  4  0
  1 16  2  0
  2  6  4  0
  2  8  4  0
  2  9  3  0
  2 15  3  0
  3  4  1  0
  3  6  3  0
  3  8  2  0
  3  9  1  0
  3 11  1  0
  3 12  4  0
  3 14  3  0
  3 15  1  0
  3 16  2  0
  4  7  2  0
  4 10  3  0
  4 12  1  0
  4 13  2  0
  4 14  4  0
  5  7  4  0
  5 10  3  0
  5 16  4  0
  6 12  2  0
  6 14  3  0
  6 16  3  0
  6 17  2  0
  7 12  3  0
  7 14  2  0
  7 15  1  0
  8 10  3  0
  8 13  3  0
  8 16  4  0
  9 15  4  0
  9 16  3  0
 10 11  1  0
 10 13  3  0
 10 14  3  0
 10 15  1  0
 10 17  4  0
 11 14  2  0
 11 17  2  0
 12 14  3  0
 12 16  3  0
 14 15  4  0
M  END
$$$$

 Created by Python create_sdf_string function

 26 23  0  0  0  0  0  0  0  0999 V2000
   10.3876   -2.3945   23.5315 C   0  0  0  0  0  0  0  0  0  0  0  0
    8.9918   -5.7479   16.8637 O   0  0  0  0  0  0  0  0  0  0  0  0
    9.7361   -5.1890   17.9422 C   0  0  0  0  0  0  0  0  0  0  0  0
    8.4843    0.5475   25.7554 N   0  0  0  0  0  0  0  0  0  0  0  0
    7.7697   -6.9902   15.4846 C   0  0  0  0  0  0  0  0  0  0  0  0
    7.2875   -6.4824   16.3114 C   0  0  0  0  0  0  0  0  0  0  0  0
   10.7539   -3.2423   19.0150 C   0  0  0  0  0  0  0  0  0  0  0  0
    9.8204   -1.3383   24.3509 C   0  0  0  0  0  0  0  0  0  0  0  0
    7.8991   -8.5389   17.0011 C   0  0  0  0  0  0  0  0  0  0  0  0
    9.7573   -0.0689   23.8341 C   0  0  0  0  0  0  0  0  0  0  0  0
    8.6163   -0.6609   26.2845 N   0  0  0  0  0  0  0  0  0  0  0  0
   10.4255   -2.3355   22.2502 N   0  0  0  0  0  0  0  0  0  0  0  0
   10.2881   -4.9631   20.0580 C   0  0  0  0  0  0  0  0  0  0  0  0
   10.8863   -3.5432   23.9635 N   0  0  0  0  0  0  0  0  0  0  0  0
    8.1212   -8.0226   16.2135 C   0  0  0  0  0  0  0  0  0  0  0  0
    7.0666   -8.7817   16.6173 C   0  0  0  0  0  0  0  0  0  0  0  0
    8.2179   -6.5408   16.6973 C   0  0  0  0  0  0  0  0  0  0  0  0
    6.2634   -7.5802   16.7840 C   0  0  0  0  0  0  0  0  0  0  0  0
   11.1978   -4.3788   22.6750 O   0  0  0  0  0  0  0  0  0  0  0  0
    9.9103   -5.6572   19.0249 C   0  0  0  0  0  0  0  0  0  0  0  0
    9.0900    0.8914   24.6185 C   0  0  0  0  0  0  0  0  0  0  0  0
   10.3071   -3.9080   17.7645 C   0  0  0  0  0  0  0  0  0  0  0  0
   10.7620   -3.4792   21.7298 C   0  0  0  0  0  0  0  0  0  0  0  0
    9.6572   -7.2421   19.2379 F   0  0  0  0  0  0  0  0  0  0  0  0
    9.3210   -1.6451   25.6187 C   0  0  0  0  0  0  0  0  0  0  0  0
   10.5978   -3.8405   20.2193 C   0  0  0  0  0  0  0  0  0  0  0  0
  1  8  1  0
  1 12  4  0
  1 14  4  0
  2  3  1  0
  2 17  1  0
  3 20  4  0
  3 22  4  0
  4 11  4  0
  4 21  4  0
  6 17  1  0
  7 22  4  0
  7 26  4  0
  8 10  4  0
  8 25  4  0
 10 21  4  0
 11 25  4  0
 12 23  4  0
 13 20  4  0
 13 26  4  0
 14 19  4  0
 19 23  4  0
 20 24  1  0
 23 26  1  0
M  END
$$$$

 Created by Python create_sdf_string function

 26 54  0  0  0  0  0  0  0  0999 V2000
    9.2169   -6.0739   16.3536 C   0  0  0  0  0  0  0  0  0  0  0  0
    9.8638   -5.1629   18.1670 C   0  0  0  0  0  0  0  0  0  0  0  0
    9.1459    0.3714   25.7687 N   0  0  0  0  0  0  0  0  0  0  0  0
    8.0306   -8.1485   15.1866 O   0  0  0  0  0  0  0  0  0  0  0  0
    7.2033   -4.0364   16.9252 Se  0  0  0  0  0  0  0  0  0  0  0  0
   11.2820   -3.2939   19.6164 C   0  0  0  0  0  0  0  0  0  0  0  0
   10.5995   -1.0765   24.8042 C   0  0  0  0  0  0  0  0  0  0  0  0
   10.4242   -2.4542   22.4727 N   0  0  0  0  0  0  0  0  0  0  0  0
   10.3708   -5.4664   19.7995 C   0  0  0  0  0  0  0  0  0  0  0  0
   10.6482   -4.2239   23.7121 S   0  0  0  0  0  0  0  0  0  0  0  0
    8.2819   -6.7472   16.4202 C   0  0  0  0  0  0  0  0  0  0  0  0
   11.6685   -4.0706   22.7065 O   0  0  0  0  0  0  0  0  0  0  0  0
    9.9817   -5.5984   18.6336 C   0  0  0  0  0  0  0  0  0  0  0  0
    9.8312    0.7457   24.6518 C   0  0  0  0  0  0  0  0  0  0  0  0
   10.4412   -3.5302   18.1603 C   0  0  0  0  0  0  0  0  0  0  0  0
   10.5517   -3.6937   22.1791 C   0  0  0  0  0  0  0  0  0  0  0  0
    9.3956   -7.3854   18.9819 F   0  0  0  0  0  0  0  0  0  0  0  0
    9.2915   -2.1361   25.8149 C   0  0  0  0  0  0  0  0  0  0  0  0
   10.6047   -3.9244   20.2832 P   0  0  0  0  0  0  0  0  0  0  0  0
   10.6819   -1.8333   23.5930 He  0  0  0  0  0  0  0  0  0  0  0  0
    7.8405   -9.4909   16.5484 He  0  0  0  0  0  0  0  0  0  0  0  0
    9.3692   -0.0746   23.4582 He  0  0  0  0  0  0  0  0  0  0  0  0
    8.4527   -0.3560   26.1408 He  0  0  0  0  0  0  0  0  0  0  0  0
    8.6615   -9.1021   16.6861 He  0  0  0  0  0  0  0  0  0  0  0  0
    6.4500   -9.4115   15.5671 He  0  0  0  0  0  0  0  0  0  0  0  0
    7.4287   -6.2480   17.6288 He  0  0  0  0  0  0  0  0  0  0  0  0
  1  2  1  0
  1  4  2  0
  1  6  3  0
  1  9  3  0
  1 11  4  0
  1 13  2  0
  2  3  4  0
  2  5  3  0
  2  7  4  0
  2 10  1  0
  2 15  3  0
  2 17  4  0
  3  4  1  0
  3  5  4  0
  3  6  2  0
  3 14  4  0
  4  5  4  0
  4  6  3  0
  4  9  2  0
  4 10  2  0
  4 11  3  0
  4 12  1  0
  4 13  1  0
  4 17  4  0
  4 19  1  0
  5  7  2  0
  5 10  1  0
  5 15  4  0
  5 16  3  0
  5 18  1  0
  6 13  2  0
  6 15  4  0
  6 19  4  0
  7 10  4  0
  7 16  4  0
  7 18  4  0
  8 14  4  0
  8 16  4  0
  9 12  1  0
  9 13  4  0
  9 15  3  0
  9 19  4  0
 10 11  2  0
 10 12  4  0
 10 17  3  0
 11 13  4  0
 12 13  3  0
 12 16  4  0
 13 17  1  0
 14 16  4  0
 15 17  4  0
 15 18  1  0
 16 17  2  0
 16 19  1  0
M  END
$$$$

 Created by Python create_sdf_string function

 26 27  0  0  0  0  0  0  0  0999 V2000
   10.4549   -2.4806   23.5941 C   0  0  0  0  0  0  0  0  0  0  0  0
    9.1196   -5.5233   16.7684 C   0  0  0  0  0  0  0  0  0  0  0  0
    9.8332   -4.9315   17.7729 C   0  0  0  0  0  0  0  0  0  0  0  0
    8.7080    0.5701   25.8170 N   0  0  0  0  0  0  0  0  0  0  0  0
    7.9015   -8.0622   15.5658 C   0  0  0  0  0  0  0  0  0  0  0  0
    9.2127   -4.4033   16.1527 O   0  0  0  0  0  0  0  0  0  0  0  0
   10.8153   -3.2455   19.3496 C   0  0  0  0  0  0  0  0  0  0  0  0
    9.9287   -1.4323   24.3998 C   0  0  0  0  0  0  0  0  0  0  0  0
    7.3765   -8.7339   16.7707 C   0  0  0  0  0  0  0  0  0  0  0  0
    9.9819   -0.1415   23.9392 C   0  0  0  0  0  0  0  0  0  0  0  0
    8.7970   -0.6140   26.3887 C   0  0  0  0  0  0  0  0  0  0  0  0
   10.5222   -2.4698   22.2744 N   0  0  0  0  0  0  0  0  0  0  0  0
   10.4387   -5.4158   20.1488 C   0  0  0  0  0  0  0  0  0  0  0  0
   11.0411   -3.7620   24.0872 N   0  0  0  0  0  0  0  0  0  0  0  0
    8.0683   -8.5072   16.6133 C   0  0  0  0  0  0  0  0  0  0  0  0
    7.0091   -8.7226   15.8038 C   0  0  0  0  0  0  0  0  0  0  0  0
    8.4017   -6.5983   16.4091 C   0  0  0  0  0  0  0  0  0  0  0  0
    8.1475   -6.9535   17.3333 C   0  0  0  0  0  0  0  0  0  0  0  0
   11.1148   -4.5364   22.7986 O   0  0  0  0  0  0  0  0  0  0  0  0
    9.9801   -5.7359   18.8246 C   0  0  0  0  0  0  0  0  0  0  0  0
    9.2840    0.8688   24.6684 C   0  0  0  0  0  0  0  0  0  0  0  0
   10.4085   -3.6138   18.0278 C   0  0  0  0  0  0  0  0  0  0  0  0
   10.8139   -3.6533   21.7779 C   0  0  0  0  0  0  0  0  0  0  0  0
    9.4579   -7.2316   18.6601 F   0  0  0  0  0  0  0  0  0  0  0  0
    9.4027   -1.7173   25.6765 C   0  0  0  0  0  0  0  0  0  0  0  0
   10.7171   -4.0480   20.3922 C   0  0  0  0  0  0  0  0  0  0  0  0
  1  8  1  0
  1 12  4  0
  1 14  4  0
  2  3  1  0
  2  6  4  0
  2 17  4  0
  3 20  4  0
  3 22  4  0
  4 11  4  0
  4 21  4  0
  5 15  4  0
  5 16  4  0
  7 22  4  0
  7 26  4  0
  8 10  4  0
  8 25  4  0
  9 16  4  0
 10 21  4  0
 11 25  4  0
 12 23  4  0
 13 20  4  0
 13 26  4  0
 14 19  4  0
 17 18  4  0
 19 23  4  0
 20 24  1  0
 23 26  1  0
M  END
$$$$

 Created by Python create_sdf_string function

 26 33  0  0  0  0  0  0  0  0999 V2000
   10.2141   -2.4147   23.5105 C   0  0  0  0  0  0  0  0  0  0  0  0
    9.1611   -5.7175   16.8789 Br  0  0  0  0  0  0  0  0  0  0  0  0
    9.9859   -4.7545   17.2663 C   0  0  0  0  0  0  0  0  0  0  0  0
    8.5002    0.5553   25.0470 N   0  0  0  0  0  0  0  0  0  0  0  0
    7.8518   -7.9245   15.0473 C   0  0  0  0  0  0  0  0  0  0  0  0
    8.7558   -5.0590   15.8082 N   0  0  0  0  0  0  0  0  0  0  0  0
    9.7983   -1.5362   24.1026 C   0  0  0  0  0  0  0  0  0  0  0  0
    9.9017    0.0460   23.4101 C   0  0  0  0  0  0  0  0  0  0  0  0
    9.2221   -0.3848   25.9700 C   0  0  0  0  0  0  0  0  0  0  0  0
    9.9853   -2.0210   22.4760 O   0  0  0  0  0  0  0  0  0  0  0  0
    9.5929   -5.4571   19.6098 C   0  0  0  0  0  0  0  0  0  0  0  0
   11.6185   -3.6334   23.8096 N   0  0  0  0  0  0  0  0  0  0  0  0
    8.7274   -9.3837   17.3828 C   0  0  0  0  0  0  0  0  0  0  0  0
    9.6618    1.0623   25.0393 C   0  0  0  0  0  0  0  0  0  0  0  0
   10.7790   -3.9495   18.9604 C   0  0  0  0  0  0  0  0  0  0  0  0
   10.0253   -6.7569   18.9216 F   0  0  0  0  0  0  0  0  0  0  0  0
    9.1791   -1.5133   25.2559 C   0  0  0  0  0  0  0  0  0  0  0  0
   10.6165   -3.5343   20.0116 He  0  0  0  0  0  0  0  0  0  0  0  0
    7.7748   -8.4211   16.0037 He  0  0  0  0  0  0  0  0  0  0  0  0
    8.1661   -9.9209   15.6086 He  0  0  0  0  0  0  0  0  0  0  0  0
    8.2789   -6.4647   16.5003 He  0  0  0  0  0  0  0  0  0  0  0  0
    7.6878   -7.7710   18.0149 He  0  0  0  0  0  0  0  0  0  0  0  0
   10.7388   -5.0516   23.1898 He  0  0  0  0  0  0  0  0  0  0  0  0
    9.7515   -5.6821   19.2276 He  0  0  0  0  0  0  0  0  0  0  0  0
   11.1208   -3.7143   21.4630 He  0  0  0  0  0  0  0  0  0  0  0  0
   11.1701   -3.6971   20.3107 He  0  0  0  0  0  0  0  0  0  0  0  0
  1  2  4  0
  1  4  2  0
  1  7  1  0
  1 10  4  0
  2 16  3  0
  3  5  2  0
  3  7  2  0
  3 15  4  0
  4  5  1  0
  4  6  1  0
  4  7  1  0
  4  9  3  0
  4 10  1  0
  4 13  2  0
  4 14  4  0
  5  8  1  0
  5 11  2  0
  6  7  4  0
  6  9  2  0
  6 11  3  0
  6 15  1  0
  6 16  2  0
  6 17  4  0
  7  8  4  0
  7 11  1  0
  7 13  4  0
  7 17  4  0
  8 14  4  0
  9 16  3  0
  9 17  4  0
 12 16  4  0
 13 14  1  0
 13 17  1  0
M  END
$$$$

 Created by Python create_sdf_string function

 26 25  0  0  0  0  0  0  0  0999 V2000
   10.3807   -2.4106   23.5246 C   0  0  0  0  0  0  0  0  0  0  0  0
    8.8680   -5.9084   16.7339 C   0  0  0  0  0  0  0  0  0  0  0  0
   10.0485   -4.6174   17.8456 C   0  0  0  0  0  0  0  0  0  0  0  0
    8.7510    0.7784   25.5894 N   0  0  0  0  0  0  0  0  0  0  0  0
    7.9241   -7.5682   15.3376 C   0  0  0  0  0  0  0  0  0  0  0  0
    9.2263   -4.7772   16.4112 N   0  0  0  0  0  0  0  0  0  0  0  0
   10.9017   -3.1594   19.4262 C   0  0  0  0  0  0  0  0  0  0  0  0
    9.8861   -1.3186   24.2413 C   0  0  0  0  0  0  0  0  0  0  0  0
    7.6087   -8.4287   16.0382 C   0  0  0  0  0  0  0  0  0  0  0  0
    9.9585   -0.0191   23.6980 C   0  0  0  0  0  0  0  0  0  0  0  0
    8.5856   -0.4599   26.0638 C   0  0  0  0  0  0  0  0  0  0  0  0
   10.3724   -2.5238   22.1863 N   0  0  0  0  0  0  0  0  0  0  0  0
   10.3794   -5.4058   20.0205 C   0  0  0  0  0  0  0  0  0  0  0  0
   10.8808   -3.6171   24.0239 N   0  0  0  0  0  0  0  0  0  0  0  0
    8.3024   -8.4426   17.3848 C   0  0  0  0  0  0  0  0  0  0  0  0
    7.5987   -8.6317   15.5613 C   0  0  0  0  0  0  0  0  0  0  0  0
    8.6331   -6.2119   16.5316 C   0  0  0  0  0  0  0  0  0  0  0  0
    8.1050   -7.7823   17.5713 C   0  0  0  0  0  0  0  0  0  0  0  0
   11.0640   -4.4806   22.9043 N   0  0  0  0  0  0  0  0  0  0  0  0
    9.9968   -5.6268   18.7778 C   0  0  0  0  0  0  0  0  0  0  0  0
    9.3670    1.0240   24.4083 C   0  0  0  0  0  0  0  0  0  0  0  0
   10.5837   -3.4049   18.1056 C   0  0  0  0  0  0  0  0  0  0  0  0
   10.7585   -3.7335   21.8263 C   0  0  0  0  0  0  0  0  0  0  0  0
    9.7064   -7.0986   18.4699 F   0  0  0  0  0  0  0  0  0  0  0  0
    9.2237   -1.5369   25.4539 C   0  0  0  0  0  0  0  0  0  0  0  0
   10.6709   -4.0938   20.3546 C   0  0  0  0  0  0  0  0  0  0  0  0
  1  8  1  0
  1 12  4  0
  1 14  4  0
  2  6  4  0
  2 17  4  0
  3 20  4  0
  3 22  4  0
  4 11  4  0
  4 21  4  0
  5 16  4  0
  7 22  4  0
  7 26  4  0
  8 10  4  0
  8 25  4  0
  9 16  4  0
 10 21  4  0
 11 25  4  0
 12 23  4  0
 13 20  4  0
 13 26  4  0
 14 19  4  0
 15 18  4  0
 19 23  4  0
 20 24  1  0
 23 26  1  0
M  END
$$$$

 Created by Python create_sdf_string function

 26 35  0  0  0  0  0  0  0  0999 V2000
    8.6610   -5.3544   17.3500 C   0  0  0  0  0  0  0  0  0  0  0  0
   10.2868   -4.6859   17.6107 C   0  0  0  0  0  0  0  0  0  0  0  0
    8.7929    1.2744   25.2304 N   0  0  0  0  0  0  0  0  0  0  0  0
    8.2436   -7.3029   15.4448 P   0  0  0  0  0  0  0  0  0  0  0  0
    8.9086   -6.3780   15.8640 C   0  0  0  0  0  0  0  0  0  0  0  0
   10.0511   -1.1139   24.2248 C   0  0  0  0  0  0  0  0  0  0  0  0
    9.7644   -0.2017   24.1544 C   0  0  0  0  0  0  0  0  0  0  0  0
   10.6738   -2.3786   21.9085 N   0  0  0  0  0  0  0  0  0  0  0  0
   10.3221   -5.5055   19.8939 C   0  0  0  0  0  0  0  0  0  0  0  0
    9.3726   -6.3856   16.4986 C   0  0  0  0  0  0  0  0  0  0  0  0
    7.8790   -7.4529   17.4344 P   0  0  0  0  0  0  0  0  0  0  0  0
   11.0652   -4.1353   23.0882 N   0  0  0  0  0  0  0  0  0  0  0  0
   10.1903   -5.8807   19.3117 C   0  0  0  0  0  0  0  0  0  0  0  0
    9.4729    0.6139   24.5006 P   0  0  0  0  0  0  0  0  0  0  0  0
   10.2697   -3.4164   17.7963 C   0  0  0  0  0  0  0  0  0  0  0  0
   10.9254   -3.1001   21.7476 C   0  0  0  0  0  0  0  0  0  0  0  0
    9.3650   -7.4309   18.8251 F   0  0  0  0  0  0  0  0  0  0  0  0
    8.6344   -1.2707   25.7452 C   0  0  0  0  0  0  0  0  0  0  0  0
   10.2035   -3.6435   20.2276 C   0  0  0  0  0  0  0  0  0  0  0  0
   10.0573   -2.2545   23.6979 He  0  0  0  0  0  0  0  0  0  0  0  0
   10.9085   -3.4201   19.0477 He  0  0  0  0  0  0  0  0  0  0  0  0
    7.5304   -7.7964   15.4976 He  0  0  0  0  0  0  0  0  0  0  0  0
    8.9391   -0.7460   26.2607 He  0  0  0  0  0  0  0  0  0  0  0  0
   10.7657   -3.2972   24.3951 He  0  0  0  0  0  0  0  0  0  0  0  0
    6.8264   -7.4496   17.3207 He  0  0  0  0  0  0  0  0  0  0  0  0
    8.0370   -9.1572   14.6248 He  0  0  0  0  0  0  0  0  0  0  0  0
  1  4  1  0
  1  5  4  0
  1 10  4  0
  1 16  4  0
  2  5  3  0
  2  8  3  0
  2 13  3  0
  2 15  4  0
  3  5  4  0
  3  6  4  0
  3 15  1  0
  4  7  4  0
  4  8  2  0
  4 11  1  0
  4 12  3  0
  4 13  4  0
  4 17  3  0
  5 11  2  0
  5 17  1  0
  5 18  2  0
  6  7  4  0
  6 18  4  0
  7 14  4  0
  8 13  2  0
  8 15  3  0
  9 13  4  0
  9 16  3  0
  9 19  4  0
 11 12  4  0
 12 16  4  0
 14 16  3  0
 14 17  1  0
 15 18  2  0
 15 19  1  0
 16 19  1  0
M  END
$$$$

 Created by Python create_sdf_string function

 26 27  0  0  0  0  0  0  0  0999 V2000
   10.2891   -2.2765   23.5821 C   0  0  0  0  0  0  0  0  0  0  0  0
    9.4443   -5.2657   16.6619 C   0  0  0  0  0  0  0  0  0  0  0  0
   10.0128   -4.7943   17.8191 C   0  0  0  0  0  0  0  0  0  0  0  0
    8.6633    0.9273   25.6762 N   0  0  0  0  0  0  0  0  0  0  0  0
    8.1098   -7.7052   15.5008 C   0  0  0  0  0  0  0  0  0  0  0  0
    8.4339   -6.8891   16.6556 C   0  0  0  0  0  0  0  0  0  0  0  0
   10.8246   -3.1262   19.3533 C   0  0  0  0  0  0  0  0  0  0  0  0
    9.7794   -1.2127   24.3166 C   0  0  0  0  0  0  0  0  0  0  0  0
    7.4389   -8.1793   15.8404 C   0  0  0  0  0  0  0  0  0  0  0  0
    9.8494    0.0663   23.8017 C   0  0  0  0  0  0  0  0  0  0  0  0
    8.5210   -0.3508   26.1681 C   0  0  0  0  0  0  0  0  0  0  0  0
   10.4628   -2.2851   22.2207 N   0  0  0  0  0  0  0  0  0  0  0  0
   10.4885   -5.2782   20.2071 C   0  0  0  0  0  0  0  0  0  0  0  0
   10.6190   -3.4830   24.0306 O   0  0  0  0  0  0  0  0  0  0  0  0
    7.2502   -7.7583   17.5903 C   0  0  0  0  0  0  0  0  0  0  0  0
    7.5678   -8.5609   15.1231 C   0  0  0  0  0  0  0  0  0  0  0  0
    8.8291   -6.3139   16.3987 C   0  0  0  0  0  0  0  0  0  0  0  0
    7.7334   -7.6533   17.5442 C   0  0  0  0  0  0  0  0  0  0  0  0
   10.9356   -4.3532   22.8376 N   0  0  0  0  0  0  0  0  0  0  0  0
   10.0305   -5.6185   18.9328 C   0  0  0  0  0  0  0  0  0  0  0  0
    9.3093    1.1077   24.5158 C   0  0  0  0  0  0  0  0  0  0  0  0
   10.4901   -3.5335   17.9971 C   0  0  0  0  0  0  0  0  0  0  0  0
   10.7517   -3.5180   21.7651 C   0  0  0  0  0  0  0  0  0  0  0  0
    9.6175   -7.0920   18.8529 F   0  0  0  0  0  0  0  0  0  0  0  0
    9.1262   -1.3984   25.5469 C   0  0  0  0  0  0  0  0  0  0  0  0
   10.6878   -3.9413   20.3852 C   0  0  0  0  0  0  0  0  0  0  0  0
  1  8  1  0
  1 12  4  0
  1 14  4  0
  2  3  1  0
  2 17  4  0
  3 20  4  0
  3 22  4  0
  4 11  4  0
  4 21  4  0
  5  9  4  0
  5 16  4  0
  6 17  4  0
  7 22  4  0
  7 26  4  0
  8 10  4  0
  8 25  4  0
  9 16  4  0
 10 21  4  0
 11 25  4  0
 12 23  4  0
 13 20  4  0
 13 26  4  0
 14 19  4  0
 15 18  4  0
 19 23  4  0
 20 24  1  0
 23 26  1  0
M  END
$$$$

 Created by Python create_sdf_string function

 26 39  0  0  0  0  0  0  0  0999 V2000
    9.6661   -2.2717   23.6726 C   0  0  0  0  0  0  0  0  0  0  0  0
    8.9073   -4.7937   16.6944 C   0  0  0  0  0  0  0  0  0  0  0  0
   10.0662   -5.2374   17.5039 C   0  0  0  0  0  0  0  0  0  0  0  0
    8.5754    0.8883   25.9354 N   0  0  0  0  0  0  0  0  0  0  0  0
   10.3259   -3.4663   18.6436 C   0  0  0  0  0  0  0  0  0  0  0  0
    9.5488   -1.5323   24.0110 C   0  0  0  0  0  0  0  0  0  0  0  0
    9.4235   -0.2856   23.4620 C   0  0  0  0  0  0  0  0  0  0  0  0
    8.7871    0.2616   26.8695 C   0  0  0  0  0  0  0  0  0  0  0  0
   10.5375   -1.8065   22.5217 N   0  0  0  0  0  0  0  0  0  0  0  0
   10.8189   -5.7444   20.3042 C   0  0  0  0  0  0  0  0  0  0  0  0
   10.6112   -3.3834   24.0484 O   0  0  0  0  0  0  0  0  0  0  0  0
    9.0546   -8.5507   15.9102 Cl  0  0  0  0  0  0  0  0  0  0  0  0
    9.3575   -6.1413   16.8089 C   0  0  0  0  0  0  0  0  0  0  0  0
   11.5441   -3.2876   22.6485 P   0  0  0  0  0  0  0  0  0  0  0  0
   10.3282   -5.1307   18.8934 C   0  0  0  0  0  0  0  0  0  0  0  0
   10.5147   -4.3330   17.7513 F   0  0  0  0  0  0  0  0  0  0  0  0
   10.9184   -3.3696   22.4499 Cl  0  0  0  0  0  0  0  0  0  0  0  0
    9.4020   -7.0541   18.7101 F   0  0  0  0  0  0  0  0  0  0  0  0
   11.0919   -3.5853   20.2016 C   0  0  0  0  0  0  0  0  0  0  0  0
    8.1703   -7.9799   16.6301 He  0  0  0  0  0  0  0  0  0  0  0  0
    9.3136   -4.9947   15.6737 He  0  0  0  0  0  0  0  0  0  0  0  0
    8.1807   -9.1984   15.0712 He  0  0  0  0  0  0  0  0  0  0  0  0
    7.2920   -6.8916   17.4031 He  0  0  0  0  0  0  0  0  0  0  0  0
    8.5054   -6.5853   17.0351 He  0  0  0  0  0  0  0  0  0  0  0  0
    9.3527    1.2793   25.1927 He  0  0  0  0  0  0  0  0  0  0  0  0
    9.5970   -1.3713   25.9409 He  0  0  0  0  0  0  0  0  0  0  0  0
  1  2  2  0
  1  5  2  0
  1  7  2  0
  1  8  2  0
  1  9  4  0
  1 11  4  0
  2  5  3  0
  2  7  3  0
  2 13  4  0
  2 17  4  0
  3  9  3  0
  3 11  3  0
  3 12  4  0
  3 16  4  0
  4  8  4  0
  4 14  3  0
  5 16  4  0
  5 19  1  0
  6  7  4  0
  6 14  4  0
  6 15  4  0
  6 17  2  0
  6 18  4  0
  8 11  2  0
  8 19  2  0
  9 15  2  0
 10 11  4  0
 10 15  4  0
 10 19  4  0
 11 12  1  0
 12 13  2  0
 12 17  4  0
 12 19  2  0
 13 19  2  0
 14 17  4  0
 14 19  2  0
 15 18  1  0
 16 19  3  0
 17 19  1  0
M  END
$$$$

 Created by Python create_sdf_string function

 26 27  0  0  0  0  0  0  0  0999 V2000
   10.2365   -2.1999   23.6498 C   0  0  0  0  0  0  0  0  0  0  0  0
    9.2159   -5.0073   16.6567 C   0  0  0  0  0  0  0  0  0  0  0  0
   10.0309   -4.8903   17.9561 C   0  0  0  0  0  0  0  0  0  0  0  0
    8.7289    0.9866   25.9729 N   0  0  0  0  0  0  0  0  0  0  0  0
    7.9172   -8.2526   16.6374 C   0  0  0  0  0  0  0  0  0  0  0  0
    9.0658   -4.6755   15.9399 O   0  0  0  0  0  0  0  0  0  0  0  0
   10.9306   -3.1224   19.3345 C   0  0  0  0  0  0  0  0  0  0  0  0
    9.7083   -1.1028   24.4646 C   0  0  0  0  0  0  0  0  0  0  0  0
    7.9081   -8.5165   15.5540 C   0  0  0  0  0  0  0  0  0  0  0  0
    9.5806    0.0933   23.8963 C   0  0  0  0  0  0  0  0  0  0  0  0
    8.8272   -0.2363   26.5590 C   0  0  0  0  0  0  0  0  0  0  0  0
   10.4327   -2.1862   22.2768 N   0  0  0  0  0  0  0  0  0  0  0  0
   10.7187   -5.2570   20.3121 C   0  0  0  0  0  0  0  0  0  0  0  0
   10.6154   -3.3389   24.0575 O   0  0  0  0  0  0  0  0  0  0  0  0
    7.6530   -7.1166   17.5785 C   0  0  0  0  0  0  0  0  0  0  0  0
    8.2374   -8.2803   16.0643 C   0  0  0  0  0  0  0  0  0  0  0  0
    8.7725   -6.2324   16.5282 C   0  0  0  0  0  0  0  0  0  0  0  0
    8.3705   -6.9823   17.1238 C   0  0  0  0  0  0  0  0  0  0  0  0
   11.1007   -4.1096   22.9189 O   0  0  0  0  0  0  0  0  0  0  0  0
   10.2028   -5.6770   19.0469 C   0  0  0  0  0  0  0  0  0  0  0  0
    9.0098    1.1395   24.6515 C   0  0  0  0  0  0  0  0  0  0  0  0
   10.5474   -3.6256   18.0974 C   0  0  0  0  0  0  0  0  0  0  0  0
   10.8575   -3.3787   21.8003 C   0  0  0  0  0  0  0  0  0  0  0  0
    9.6025   -7.1915   18.6868 F   0  0  0  0  0  0  0  0  0  0  0  0
    9.3239   -1.3389   25.8016 C   0  0  0  0  0  0  0  0  0  0  0  0
   10.8624   -3.8681   20.4266 C   0  0  0  0  0  0  0  0  0  0  0  0
  1  8  1  0
  1 12  4  0
  1 14  4  0
  2  3  1  0
  2  6  2  0
  2 17  4  0
  3 20  4  0
  3 22  4  0
  4 11  4  0
  4 21  4  0
  5 16  4  0
  7 22  4  0
  7 26  4  0
  8 10  4  0
  8 25  4  0
  9 16  4  0
 10 21  4  0
 11 25  4  0
 12 23  4  0
 13 20  4  0
 13 26  4  0
 14 19  4  0
 15 18  4  0
 17 18  4  0
 19 23  4  0
 20 24  1  0
 23 26  1  0
M  END
$$$$

 Created by Python create_sdf_string function

 26 38  0  0  0  0  0  0  0  0999 V2000
    9.2846   -5.5161   17.0971 O   0  0  0  0  0  0  0  0  0  0  0  0
    8.5278    0.4172   25.9138 N   0  0  0  0  0  0  0  0  0  0  0  0
    8.1110   -8.5109   16.1553 I   0  0  0  0  0  0  0  0  0  0  0  0
   11.1758   -3.1879   19.8734 C   0  0  0  0  0  0  0  0  0  0  0  0
    9.7219   -1.3283   24.3703 C   0  0  0  0  0  0  0  0  0  0  0  0
    8.2818   -8.1319   15.8168 O   0  0  0  0  0  0  0  0  0  0  0  0
    9.6404   -0.1067   24.2766 C   0  0  0  0  0  0  0  0  0  0  0  0
    8.5578   -0.4715   26.0481 C   0  0  0  0  0  0  0  0  0  0  0  0
   10.4882   -2.5969   22.5178 N   0  0  0  0  0  0  0  0  0  0  0  0
   11.1957   -5.0053   20.4765 C   0  0  0  0  0  0  0  0  0  0  0  0
   10.3656   -3.3103   24.1162 C   0  0  0  0  0  0  0  0  0  0  0  0
    6.3755   -5.8162   18.0427 I   0  0  0  0  0  0  0  0  0  0  0  0
   11.2043   -3.8892   23.0047 O   0  0  0  0  0  0  0  0  0  0  0  0
    8.9780    1.0814   24.5329 Cl  0  0  0  0  0  0  0  0  0  0  0  0
   10.3137   -4.1612   18.4108 C   0  0  0  0  0  0  0  0  0  0  0  0
    8.8437   -1.3954   25.7403 C   0  0  0  0  0  0  0  0  0  0  0  0
   10.4377   -3.8149   20.7307 C   0  0  0  0  0  0  0  0  0  0  0  0
   10.4959   -2.2291   22.9178 He  0  0  0  0  0  0  0  0  0  0  0  0
   10.1027   -5.0337   18.0547 He  0  0  0  0  0  0  0  0  0  0  0  0
    8.2076   -6.7183   14.6429 He  0  0  0  0  0  0  0  0  0  0  0  0
    7.3026   -7.4545   17.0514 He  0  0  0  0  0  0  0  0  0  0  0  0
    9.0408   -6.1237   15.9997 He  0  0  0  0  0  0  0  0  0  0  0  0
    7.6752   -5.9352   18.0712 He  0  0  0  0  0  0  0  0  0  0  0  0
    9.9013   -5.7007   19.2011 He  0  0  0  0  0  0  0  0  0  0  0  0
   10.6456   -2.8949   21.9519 He  0  0  0  0  0  0  0  0  0  0  0  0
   10.0686   -7.1686   19.2258 He  0  0  0  0  0  0  0  0  0  0  0  0
  1  2  3  0
  1  5  4  0
  1  7  1  0
  1 12  2  0
  1 16  2  0
  2  3  2  0
  2  6  2  0
  2  8  4  0
  2 14  2  0
  3  5  1  0
  3  7  4  0
  3  8  1  0
  3 10  4  0
  3 14  3  0
  3 17  2  0
  4 17  4  0
  5  6  1  0
  5  7  2  0
  5  8  2  0
  5 12  3  0
  6 10  1  0
  6 13  1  0
  6 16  2  0
  7  9  2  0
  7 12  4  0
  7 14  4  0
  7 17  1  0
  8 16  4  0
 10 17  4  0
 11 12  1  0
 11 13  4  0
 11 14  3  0
 11 15  1  0
 12 16  1  0
 12 17  3  0
 13 14  4  0
 14 16  4  0
 15 16  2  0
M  END
$$$$

 Created by Python create_sdf_string function

 26 25  0  0  0  0  0  0  0  0999 V2000
   10.2171   -2.2574   23.7080 C   0  0  0  0  0  0  0  0  0  0  0  0
    9.5140   -5.4326   17.0013 O   0  0  0  0  0  0  0  0  0  0  0  0
   10.0643   -5.0336   18.1238 C   0  0  0  0  0  0  0  0  0  0  0  0
    8.3489    0.7576   25.8837 N   0  0  0  0  0  0  0  0  0  0  0  0
    7.7442   -8.2732   16.1932 C   0  0  0  0  0  0  0  0  0  0  0  0
    8.3009   -7.1264   15.5257 C   0  0  0  0  0  0  0  0  0  0  0  0
   10.7913   -3.2085   19.5471 C   0  0  0  0  0  0  0  0  0  0  0  0
    9.6333   -1.2407   24.4436 C   0  0  0  0  0  0  0  0  0  0  0  0
    7.8952   -8.1406   15.9536 C   0  0  0  0  0  0  0  0  0  0  0  0
    9.6233    0.0493   23.9627 C   0  0  0  0  0  0  0  0  0  0  0  0
    8.3586   -0.5169   26.3609 C   0  0  0  0  0  0  0  0  0  0  0  0
   10.4492   -2.2483   22.3812 N   0  0  0  0  0  0  0  0  0  0  0  0
   10.7074   -5.3603   20.4403 C   0  0  0  0  0  0  0  0  0  0  0  0
   10.6208   -3.4610   24.1487 N   0  0  0  0  0  0  0  0  0  0  0  0
    7.2176   -7.0089   17.7786 C   0  0  0  0  0  0  0  0  0  0  0  0
    7.3342   -7.8670   17.0811 C   0  0  0  0  0  0  0  0  0  0  0  0
    8.8700   -6.0244   16.2559 C   0  0  0  0  0  0  0  0  0  0  0  0
    8.0267   -6.6936   17.5191 C   0  0  0  0  0  0  0  0  0  0  0  0
   10.9707   -4.2375   23.0305 O   0  0  0  0  0  0  0  0  0  0  0  0
   10.2802   -5.8578   19.1944 C   0  0  0  0  0  0  0  0  0  0  0  0
    8.9803    1.0493   24.7180 C   0  0  0  0  0  0  0  0  0  0  0  0
   10.4406   -3.7046   18.2720 C   0  0  0  0  0  0  0  0  0  0  0  0
   10.7896   -3.4656   21.9455 C   0  0  0  0  0  0  0  0  0  0  0  0
    9.9146   -7.3405   19.0085 F   0  0  0  0  0  0  0  0  0  0  0  0
    9.0306   -1.5658   25.6930 C   0  0  0  0  0  0  0  0  0  0  0  0
   10.7788   -3.9753   20.5367 C   0  0  0  0  0  0  0  0  0  0  0  0
  1  8  1  0
  1 12  4  0
  1 14  4  0
  2  3  1  0
  2 17  1  0
  3 20  4  0
  3 22  4  0
  4 11  4  0
  4 21  4  0
  5  9  4  0
  6 17  4  0
  7 22  4  0
  7 26  4  0
  8 10  4  0
  8 25  4  0
 10 21  4  0
 11 25  4  0
 12 23  4  0
 13 20  4  0
 13 26  4  0
 14 19  4  0
 15 18  1  0
 19 23  4  0
 20 24  1  0
 23 26  1  0
M  END
$$$$

 Created by Python create_sdf_string function

 26 62  0  0  0  0  0  0  0  0999 V2000
   10.4178   -1.9687   23.7811 C   0  0  0  0  0  0  0  0  0  0  0  0
    9.4516   -5.2802   17.3117 O   0  0  0  0  0  0  0  0  0  0  0  0
   10.5236   -4.9198   17.8738 C   0  0  0  0  0  0  0  0  0  0  0  0
    8.3039    1.1006   25.9360 C   0  0  0  0  0  0  0  0  0  0  0  0
   10.3382   -8.7631   16.1472 Se  0  0  0  0  0  0  0  0  0  0  0  0
    6.6458   -6.6734   13.6308 F   0  0  0  0  0  0  0  0  0  0  0  0
   11.1046   -2.7783   19.8123 C   0  0  0  0  0  0  0  0  0  0  0  0
   10.0847   -1.3238   25.1125 C   0  0  0  0  0  0  0  0  0  0  0  0
    6.9489   -8.3598   16.3022 F   0  0  0  0  0  0  0  0  0  0  0  0
    9.7940    0.3348   24.5390 C   0  0  0  0  0  0  0  0  0  0  0  0
    7.7520   -0.4897   26.6795 C   0  0  0  0  0  0  0  0  0  0  0  0
   10.2750   -2.1302   21.9405 N   0  0  0  0  0  0  0  0  0  0  0  0
   11.0075   -3.2844   24.4568 N   0  0  0  0  0  0  0  0  0  0  0  0
    6.6542   -7.8383   16.4522 N   0  0  0  0  0  0  0  0  0  0  0  0
    9.3254   -5.9602   16.6686 C   0  0  0  0  0  0  0  0  0  0  0  0
    7.6679   -5.8743   18.8448 N   0  0  0  0  0  0  0  0  0  0  0  0
   10.9861   -4.3623   22.5524 Cl  0  0  0  0  0  0  0  0  0  0  0  0
   10.4248   -6.0614   19.0257 C   0  0  0  0  0  0  0  0  0  0  0  0
    8.9844    0.9229   24.8668 C   0  0  0  0  0  0  0  0  0  0  0  0
    9.8274   -3.8071   18.6979 C   0  0  0  0  0  0  0  0  0  0  0  0
   10.0757   -7.1409   19.1699 O   0  0  0  0  0  0  0  0  0  0  0  0
    9.1969   -1.3546   25.4916 C   0  0  0  0  0  0  0  0  0  0  0  0
   10.4240   -3.7512   20.4280 C   0  0  0  0  0  0  0  0  0  0  0  0
    9.9960   -5.2542   20.3479 He  0  0  0  0  0  0  0  0  0  0  0  0
    7.5788   -6.6516   16.5666 He  0  0  0  0  0  0  0  0  0  0  0  0
   11.1211   -3.3618   21.5885 He  0  0  0  0  0  0  0  0  0  0  0  0
  1  4  4  0
  1  5  4  0
  1  6  4  0
  1 12  4  0
  1 13  4  0
  1 16  4  0
  1 22  1  0
  2  3  1  0
  2  5  2  0
  2  7  3  0
  2  9  4  0
  2 11  4  0
  2 14  3  0
  2 15  1  0
  2 16  1  0
  2 22  4  0
  2 23  1  0
  3  7  2  0
  3 14  3  0
  3 18  4  0
  3 19  4  0
  3 20  4  0
  4  5  1  0
  4  6  4  0
  4 11  4  0
  4 13  4  0
  4 18  1  0
  4 22  4  0
  5  6  4  0
  5 11  1  0
  5 23  3  0
  6  8  1  0
  6 16  1  0
  6 21  2  0
  6 23  1  0
  7  9  2  0
  7 17  3  0
  7 23  4  0
  8  9  1  0
  8 10  4  0
  8 13  2  0
  8 16  3  0
  8 22  4  0
  9 10  1  0
  9 11  1  0
  9 12  3  0
  9 22  4  0
  9 23  1  0
 10 19  4  0
 11 14  3  0
 11 18  2  0
 11 22  4  0
 12 13  2  0
 12 22  3  0
 13 16  4  0
 13 17  4  0
 14 19  2  0
 14 20  2  0
 16 18  4  0
 16 21  1  0
 18 21  1  0
 22 23  1  0
M  END
$$$$

 Created by Python create_sdf_string function

 26 24  0  0  0  0  0  0  0  0999 V2000
   10.3266   -2.1296   23.7813 C   0  0  0  0  0  0  0  0  0  0  0  0
    9.6738   -5.2941   17.0369 O   0  0  0  0  0  0  0  0  0  0  0  0
   10.1134   -4.8654   18.2358 C   0  0  0  0  0  0  0  0  0  0  0  0
    8.1884    0.6892   25.9139 C   0  0  0  0  0  0  0  0  0  0  0  0
    8.5251   -8.3838   16.7326 C   0  0  0  0  0  0  0  0  0  0  0  0
    6.9712   -7.1483   15.4338 C   0  0  0  0  0  0  0  0  0  0  0  0
   10.8084   -3.0677   19.5685 C   0  0  0  0  0  0  0  0  0  0  0  0
    9.7374   -1.1168   24.5934 C   0  0  0  0  0  0  0  0  0  0  0  0
    7.1119   -8.2803   16.2940 C   0  0  0  0  0  0  0  0  0  0  0  0
    9.8131    0.1801   24.2244 C   0  0  0  0  0  0  0  0  0  0  0  0
    8.2366   -0.5751   26.3722 C   0  0  0  0  0  0  0  0  0  0  0  0
   10.5017   -2.1410   22.4464 N   0  0  0  0  0  0  0  0  0  0  0  0
   10.5699   -5.2435   20.4863 C   0  0  0  0  0  0  0  0  0  0  0  0
   10.7221   -3.3486   24.2331 N   0  0  0  0  0  0  0  0  0  0  0  0
    7.6439   -6.9025   16.3093 C   0  0  0  0  0  0  0  0  0  0  0  0
    7.0076   -7.9752   16.5340 C   0  0  0  0  0  0  0  0  0  0  0  0
    8.9987   -5.9614   16.5623 C   0  0  0  0  0  0  0  0  0  0  0  0
    8.2448   -6.8692   17.6685 C   0  0  0  0  0  0  0  0  0  0  0  0
   11.0286   -4.2408   23.0581 O   0  0  0  0  0  0  0  0  0  0  0  0
   10.1604   -5.7163   19.2269 C   0  0  0  0  0  0  0  0  0  0  0  0
    9.0370    1.0959   24.9263 C   0  0  0  0  0  0  0  0  0  0  0  0
   10.5017   -3.5575   18.2426 C   0  0  0  0  0  0  0  0  0  0  0  0
   10.7707   -3.3740   21.9636 C   0  0  0  0  0  0  0  0  0  0  0  0
    9.9842   -7.0455   19.1219 O   0  0  0  0  0  0  0  0  0  0  0  0
    9.0273   -1.4826   25.7403 C   0  0  0  0  0  0  0  0  0  0  0  0
   10.6828   -3.8690   20.6077 C   0  0  0  0  0  0  0  0  0  0  0  0
  1  8  1  0
  1 12  4  0
  1 14  4  0
  2  3  1  0
  2 17  1  0
  3 20  4  0
  3 22  4  0
  4 11  4  0
  4 21  4  0
  7 22  4  0
  7 26  4  0
  8 10  4  0
  8 25  4  0
  9 16  4  0
 10 21  4  0
 11 25  4  0
 12 23  4  0
 13 20  4  0
 13 26  4  0
 14 19  4  0
 15 17  1  0
 19 23  4  0
 20 24  1  0
 23 26  1  0
M  END
$$$$

 Created by Python create_sdf_string function

 26 44  0  0  0  0  0  0  0  0999 V2000
   10.1063   -2.2490   23.3002 C   0  0  0  0  0  0  0  0  0  0  0  0
    9.3756   -5.3112   17.3463 N   0  0  0  0  0  0  0  0  0  0  0  0
   10.5559   -4.6448   17.7313 Cl  0  0  0  0  0  0  0  0  0  0  0  0
    7.7152    0.8109   25.3935 C   0  0  0  0  0  0  0  0  0  0  0  0
    6.2552   -8.1608   16.0194 Cl  0  0  0  0  0  0  0  0  0  0  0  0
    9.5802   -0.4495   24.6489 C   0  0  0  0  0  0  0  0  0  0  0  0
    9.7233    0.0662   24.6570 B   0  0  0  0  0  0  0  0  0  0  0  0
    8.4299   -0.6926   26.0224 Cl  0  0  0  0  0  0  0  0  0  0  0  0
   10.4939   -5.5832   20.5173 C   0  0  0  0  0  0  0  0  0  0  0  0
   11.0240   -2.8553   24.5899 N   0  0  0  0  0  0  0  0  0  0  0  0
    7.0717   -8.1202   15.1286 C   0  0  0  0  0  0  0  0  0  0  0  0
    8.7236   -6.0996   16.3833 N   0  0  0  0  0  0  0  0  0  0  0  0
    9.2070   -5.6523   16.2983 C   0  0  0  0  0  0  0  0  0  0  0  0
   11.2249   -4.4002   23.3860 O   0  0  0  0  0  0  0  0  0  0  0  0
   10.2972   -5.7800   19.3107 C   0  0  0  0  0  0  0  0  0  0  0  0
    8.8476    1.0286   25.0924 C   0  0  0  0  0  0  0  0  0  0  0  0
   10.9871   -3.4539   18.1046 C   0  0  0  0  0  0  0  0  0  0  0  0
   10.9004   -3.6675   21.1341 C   0  0  0  0  0  0  0  0  0  0  0  0
    9.3489   -6.7145   18.8587 O   0  0  0  0  0  0  0  0  0  0  0  0
   11.1677   -4.2763   20.4865 C   0  0  0  0  0  0  0  0  0  0  0  0
    9.0212   -7.0921   16.7515 He  0  0  0  0  0  0  0  0  0  0  0  0
   10.8311   -3.4050   19.3590 He  0  0  0  0  0  0  0  0  0  0  0  0
    6.2469   -9.1678   16.3396 He  0  0  0  0  0  0  0  0  0  0  0  0
   10.1430   -1.6197   22.4724 He  0  0  0  0  0  0  0  0  0  0  0  0
    7.5760   -7.4070   16.6244 He  0  0  0  0  0  0  0  0  0  0  0  0
    8.6343   -1.4102   25.8399 He  0  0  0  0  0  0  0  0  0  0  0  0
  1  5  2  0
  1 10  4  0
  1 14  2  0
  1 15  4  0
  1 19  4  0
  2  3  1  0
  2 12  1  0
  2 13  1  0
  2 16  4  0
  3  5  4  0
  3 11  4  0
  3 15  4  0
  3 17  4  0
  4  5  4  0
  4  8  2  0
  4 16  4  0
  5  7  1  0
  5 11  4  0
  5 13  4  0
  5 16  2  0
  5 17  3  0
  6  7  4  0
  6 10  2  0
  6 17  2  0
  7 13  4  0
  7 16  2  0
  8 11  1  0
  9 11  2  0
  9 15  4  0
  9 16  1  0
  9 19  1  0
 10 13  2  0
 11 14  3  0
 11 18  1  0
 11 19  3  0
 11 20  2  0
 13 14  3  0
 13 19  2  0
 14 18  4  0
 15 16  3  0
 15 19  1  0
 16 18  3  0
 16 19  4  0
 18 20  1  0
M  END
$$$$

 Created by Python create_sdf_string function

 26 27  0  0  0  0  0  0  0  0999 V2000
   10.2638   -2.1284   23.7074 C   0  0  0  0  0  0  0  0  0  0  0  0
    9.7080   -5.1127   16.8691 N   0  0  0  0  0  0  0  0  0  0  0  0
   10.2634   -4.7495   18.1108 C   0  0  0  0  0  0  0  0  0  0  0  0
    7.9812    0.7381   25.7539 C   0  0  0  0  0  0  0  0  0  0  0  0
    8.5307   -7.1847   17.1475 C   0  0  0  0  0  0  0  0  0  0  0  0
    6.7840   -8.3915   16.1167 C   0  0  0  0  0  0  0  0  0  0  0  0
   11.0725   -3.1028   19.5779 C   0  0  0  0  0  0  0  0  0  0  0  0
    9.6283   -1.0944   24.5231 C   0  0  0  0  0  0  0  0  0  0  0  0
    6.5516   -8.5242   16.6030 C   0  0  0  0  0  0  0  0  0  0  0  0
    9.6896    0.1935   24.1388 C   0  0  0  0  0  0  0  0  0  0  0  0
    7.9897   -0.5710   26.1790 C   0  0  0  0  0  0  0  0  0  0  0  0
   10.4376   -2.1761   22.3774 N   0  0  0  0  0  0  0  0  0  0  0  0
   10.5910   -5.2259   20.4013 C   0  0  0  0  0  0  0  0  0  0  0  0
   10.6928   -3.2637   24.1959 N   0  0  0  0  0  0  0  0  0  0  0  0
    7.4332   -7.6321   17.2290 C   0  0  0  0  0  0  0  0  0  0  0  0
    7.5270   -8.1089   15.6213 C   0  0  0  0  0  0  0  0  0  0  0  0
    8.7693   -6.0007   16.3894 C   0  0  0  0  0  0  0  0  0  0  0  0
    8.4112   -6.4318   16.6254 C   0  0  0  0  0  0  0  0  0  0  0  0
   11.0207   -4.1295   23.0847 O   0  0  0  0  0  0  0  0  0  0  0  0
   10.2131   -5.6427   19.1086 C   0  0  0  0  0  0  0  0  0  0  0  0
    8.8805    1.1219   24.8133 C   0  0  0  0  0  0  0  0  0  0  0  0
   10.8361   -3.5096   18.2217 C   0  0  0  0  0  0  0  0  0  0  0  0
   10.8040   -3.4297   21.9250 C   0  0  0  0  0  0  0  0  0  0  0  0
    9.8285   -6.9393   18.9426 O   0  0  0  0  0  0  0  0  0  0  0  0
    8.8634   -1.4763   25.6544 C   0  0  0  0  0  0  0  0  0  0  0  0
   10.8446   -3.9249   20.5597 C   0  0  0  0  0  0  0  0  0  0  0  0
  1  8  1  0
  1 12  4  0
  1 14  4  0
  2  3  1  0
  2 17  1  0
  3 20  4  0
  3 22  4  0
  4 11  4  0
  4 21  4  0
  5 18  4  0
  6  9  4  0
  6 16  4  0
  7 22  4  0
  7 26  4  0
  8 10  4  0
  8 25  4  0
  9 15  4  0
 10 21  4  0
 11 25  4  0
 12 23  4  0
 13 20  4  0
 13 26  4  0
 14 19  4  0
 17 18  1  0
 19 23  4  0
 20 24  1  0
 23 26  1  0
M  END
$$$$

 Created by Python create_sdf_string function

 26 28  0  0  0  0  0  0  0  0999 V2000
   10.0426   -1.7793   23.4798 C   0  0  0  0  0  0  0  0  0  0  0  0
    9.9611   -5.2903   17.1077 N   0  0  0  0  0  0  0  0  0  0  0  0
    7.8549    1.4907   25.2756 N   0  0  0  0  0  0  0  0  0  0  0  0
   10.3405   -2.9785   19.1517 C   0  0  0  0  0  0  0  0  0  0  0  0
    7.0872   -8.3790   16.6231 C   0  0  0  0  0  0  0  0  0  0  0  0
   10.0659   -0.4953   24.4030 C   0  0  0  0  0  0  0  0  0  0  0  0
    8.3224   -0.2986   26.1974 C   0  0  0  0  0  0  0  0  0  0  0  0
   10.7351   -5.0096   20.4711 C   0  0  0  0  0  0  0  0  0  0  0  0
   11.2614   -2.8547   23.8203 N   0  0  0  0  0  0  0  0  0  0  0  0
    9.0839   -5.8802   15.7912 C   0  0  0  0  0  0  0  0  0  0  0  0
   10.8415   -4.4362   23.2421 O   0  0  0  0  0  0  0  0  0  0  0  0
   10.5534   -4.0207   18.0873 C   0  0  0  0  0  0  0  0  0  0  0  0
   10.6516   -4.1558   21.9913 C   0  0  0  0  0  0  0  0  0  0  0  0
    8.8152   -1.3632   25.6695 C   0  0  0  0  0  0  0  0  0  0  0  0
   10.6932   -2.9283   20.8052 C   0  0  0  0  0  0  0  0  0  0  0  0
   10.4603   -4.8295   17.8081 He  0  0  0  0  0  0  0  0  0  0  0  0
    8.5711   -6.1127   18.1468 He  0  0  0  0  0  0  0  0  0  0  0  0
    6.0989   -8.3595   18.0196 He  0  0  0  0  0  0  0  0  0  0  0  0
    9.5566   -0.8343   24.2166 He  0  0  0  0  0  0  0  0  0  0  0  0
   11.2570   -2.1850   22.5142 He  0  0  0  0  0  0  0  0  0  0  0  0
    6.7600   -6.9178   16.2991 He  0  0  0  0  0  0  0  0  0  0  0  0
    7.6836   -7.5926   15.9542 He  0  0  0  0  0  0  0  0  0  0  0  0
    6.7829   -4.8428   16.9680 He  0  0  0  0  0  0  0  0  0  0  0  0
    9.8470   -5.1975   19.2563 He  0  0  0  0  0  0  0  0  0  0  0  0
    8.4819    0.9828   24.9405 He  0  0  0  0  0  0  0  0  0  0  0  0
    9.7588   -6.9540   19.4086 He  0  0  0  0  0  0  0  0  0  0  0  0
  1  5  4  0
  2  4  2  0
  2  5  3  0
  2  7  1  0
  2 10  1  0
  3  9  2  0
  3 10  1  0
  3 12  2  0
  3 15  2  0
  4  8  2  0
  4 10  2  0
  4 11  2  0
  4 12  4  0
  4 14  4  0
  4 15  4  0
  5  7  3  0
  5  9  3  0
  5 10  3  0
  5 12  3  0
  6  7  3  0
  6  8  4  0
  6 15  3  0
  7  9  3  0
  7 14  4  0
  8 14  3  0
  9 11  4  0
 11 13  4  0
 13 15  1  0
M  END
$$$$

 Created by Python create_sdf_string function

 26 26  0  0  0  0  0  0  0  0999 V2000
   10.3176   -2.0709   23.7594 C   0  0  0  0  0  0  0  0  0  0  0  0
    9.7784   -5.3055   16.8889 N   0  0  0  0  0  0  0  0  0  0  0  0
   10.1728   -4.7966   18.1090 C   0  0  0  0  0  0  0  0  0  0  0  0
    8.1029    0.8612   25.6449 N   0  0  0  0  0  0  0  0  0  0  0  0
    8.4229   -6.9256   17.6494 C   0  0  0  0  0  0  0  0  0  0  0  0
    6.9661   -8.0384   17.7055 C   0  0  0  0  0  0  0  0  0  0  0  0
   10.9337   -3.0384   19.5054 C   0  0  0  0  0  0  0  0  0  0  0  0
    9.6982   -1.0352   24.4640 C   0  0  0  0  0  0  0  0  0  0  0  0
    7.1914   -8.2675   16.7706 C   0  0  0  0  0  0  0  0  0  0  0  0
    9.6801    0.2503   23.9627 C   0  0  0  0  0  0  0  0  0  0  0  0
    8.1493   -0.3854   26.1462 C   0  0  0  0  0  0  0  0  0  0  0  0
   10.5897   -2.1192   22.4282 N   0  0  0  0  0  0  0  0  0  0  0  0
   10.5216   -5.1295   20.4246 C   0  0  0  0  0  0  0  0  0  0  0  0
   10.6574   -3.3357   24.1658 N   0  0  0  0  0  0  0  0  0  0  0  0
    6.9636   -7.3700   16.4443 C   0  0  0  0  0  0  0  0  0  0  0  0
    7.9850   -7.6861   16.1492 C   0  0  0  0  0  0  0  0  0  0  0  0
    9.1799   -5.6835   15.9813 C   0  0  0  0  0  0  0  0  0  0  0  0
    7.8523   -6.5272   16.5655 C   0  0  0  0  0  0  0  0  0  0  0  0
   10.9430   -4.0981   23.0189 O   0  0  0  0  0  0  0  0  0  0  0  0
   10.1339   -5.5549   19.1668 C   0  0  0  0  0  0  0  0  0  0  0  0
    8.8571    1.2098   24.5774 C   0  0  0  0  0  0  0  0  0  0  0  0
   10.6234   -3.4854   18.2084 C   0  0  0  0  0  0  0  0  0  0  0  0
   10.8209   -3.3180   21.9411 C   0  0  0  0  0  0  0  0  0  0  0  0
    9.7549   -7.0847   19.0718 F   0  0  0  0  0  0  0  0  0  0  0  0
    8.9728   -1.3449   25.6164 C   0  0  0  0  0  0  0  0  0  0  0  0
   10.7671   -3.8115   20.5393 C   0  0  0  0  0  0  0  0  0  0  0  0
  1  8  1  0
  1 12  4  0
  1 14  4  0
  2  3  1  0
  2 17  1  0
  3 20  4  0
  3 22  4  0
  4 11  4  0
  4 21  4  0
  5  6  4  0
  6  9  4  0
  7 22  4  0
  7 26  4  0
  8 10  4  0
  8 25  4  0
  9 16  4  0
 10 21  4  0
 11 25  4  0
 12 23  4  0
 13 20  4  0
 13 26  4  0
 14 19  4  0
 15 18  4  0
 19 23  4  0
 20 24  1  0
 23 26  1  0
M  END
$$$$

 Created by Python create_sdf_string function

 26 35  0  0  0  0  0  0  0  0999 V2000
   10.3111   -2.1855   23.4660 C   0  0  0  0  0  0  0  0  0  0  0  0
    9.9495   -5.7855   17.1185 N   0  0  0  0  0  0  0  0  0  0  0  0
    8.3930    1.1774   25.7042 N   0  0  0  0  0  0  0  0  0  0  0  0
   10.4992   -3.3140   19.4861 F   0  0  0  0  0  0  0  0  0  0  0  0
    9.6113   -0.4884   24.1881 C   0  0  0  0  0  0  0  0  0  0  0  0
    7.7546   -6.2644   16.5837 F   0  0  0  0  0  0  0  0  0  0  0  0
    9.1752    0.6373   24.4170 C   0  0  0  0  0  0  0  0  0  0  0  0
    8.4198   -0.0949   26.2076 C   0  0  0  0  0  0  0  0  0  0  0  0
   10.5944   -2.2075   22.4750 N   0  0  0  0  0  0  0  0  0  0  0  0
   10.9294   -3.2092   24.3133 N   0  0  0  0  0  0  0  0  0  0  0  0
    9.3264   -8.3247   17.1034 F   0  0  0  0  0  0  0  0  0  0  0  0
    9.2871   -5.4488   16.2131 C   0  0  0  0  0  0  0  0  0  0  0  0
    6.4805   -7.3435   16.5117 Cl  0  0  0  0  0  0  0  0  0  0  0  0
   10.6602   -3.8315   22.9514 C   0  0  0  0  0  0  0  0  0  0  0  0
   10.3362   -4.8691   18.8745 C   0  0  0  0  0  0  0  0  0  0  0  0
   10.3006   -3.5762   18.1651 F   0  0  0  0  0  0  0  0  0  0  0  0
   10.4443   -3.2674   21.8856 C   0  0  0  0  0  0  0  0  0  0  0  0
    9.2401   -7.0784   18.9532 F   0  0  0  0  0  0  0  0  0  0  0  0
    8.3742   -0.9251   25.3789 C   0  0  0  0  0  0  0  0  0  0  0  0
   10.3991   -4.1916   20.4851 C   0  0  0  0  0  0  0  0  0  0  0  0
   10.3847   -5.2291   18.0971 He  0  0  0  0  0  0  0  0  0  0  0  0
    8.0739   -6.8386   17.3963 He  0  0  0  0  0  0  0  0  0  0  0  0
    8.5293   -8.0522   16.6421 He  0  0  0  0  0  0  0  0  0  0  0  0
   10.8700   -4.6215   20.6901 He  0  0  0  0  0  0  0  0  0  0  0  0
    7.4319   -7.1484   16.7495 He  0  0  0  0  0  0  0  0  0  0  0  0
    8.4000    0.8708   23.9647 He  0  0  0  0  0  0  0  0  0  0  0  0
  1  5  3  0
  1  6  3  0
  2  3  2  0
  2  6  2  0
  2  7  4  0
  2  8  3  0
  2  9  3  0
  2 13  3  0
  3  4  4  0
  3  8  4  0
  3 11  3  0
  3 15  4  0
  4  6  3  0
  4  7  1  0
  4 16  4  0
  4 17  3  0
  5  6  3  0
  5  7  4  0
  5 13  2  0
  5 14  3  0
  5 15  3  0
  5 19  4  0
  6 15  4  0
  7 13  1  0
  7 17  1  0
  8 14  3  0
  9 11  4  0
  9 13  4  0
 10 13  2  0
 11 13  3  0
 11 15  4  0
 12 15  4  0
 14 17  4  0
 15 18  1  0
 17 20  3  0
M  END
$$$$

 Created by Python create_sdf_string function

 26 28  0  0  0  0  0  0  0  0999 V2000
   10.1542   -1.9552   23.7127 C   0  0  0  0  0  0  0  0  0  0  0  0
    9.8845   -5.3660   17.0320 N   0  0  0  0  0  0  0  0  0  0  0  0
   10.2429   -4.8736   18.2063 C   0  0  0  0  0  0  0  0  0  0  0  0
    8.1019    1.1465   25.5790 N   0  0  0  0  0  0  0  0  0  0  0  0
    8.5646   -6.3749   16.6564 C   0  0  0  0  0  0  0  0  0  0  0  0
    7.8472   -8.4006   16.6460 C   0  0  0  0  0  0  0  0  0  0  0  0
   10.7802   -3.1101   19.6194 C   0  0  0  0  0  0  0  0  0  0  0  0
    9.5234   -0.8579   24.3772 C   0  0  0  0  0  0  0  0  0  0  0  0
    7.7475   -6.3606   16.3495 C   0  0  0  0  0  0  0  0  0  0  0  0
    9.4294    0.3430   23.7540 C   0  0  0  0  0  0  0  0  0  0  0  0
    8.2048   -0.0681   26.1981 C   0  0  0  0  0  0  0  0  0  0  0  0
   10.3037   -2.0452   22.3861 N   0  0  0  0  0  0  0  0  0  0  0  0
   10.5403   -5.2005   20.5656 C   0  0  0  0  0  0  0  0  0  0  0  0
   10.5902   -3.0864   24.2932 N   0  0  0  0  0  0  0  0  0  0  0  0
    6.7651   -7.4043   16.6248 C   0  0  0  0  0  0  0  0  0  0  0  0
    8.7179   -8.2699   17.1383 C   0  0  0  0  0  0  0  0  0  0  0  0
    9.1498   -5.0782   16.1412 C   0  0  0  0  0  0  0  0  0  0  0  0
    6.6823   -7.9008   16.6081 C   0  0  0  0  0  0  0  0  0  0  0  0
   10.8779   -4.0524   23.2035 O   0  0  0  0  0  0  0  0  0  0  0  0
   10.2766   -5.7374   19.2639 C   0  0  0  0  0  0  0  0  0  0  0  0
    8.7186    1.3592   24.3745 C   0  0  0  0  0  0  0  0  0  0  0  0
   10.4841   -3.6414   18.3131 C   0  0  0  0  0  0  0  0  0  0  0  0
   10.6549   -3.3352   22.0413 C   0  0  0  0  0  0  0  0  0  0  0  0
   10.1065   -7.0713   19.0823 F   0  0  0  0  0  0  0  0  0  0  0  0
    8.9573   -1.0899   25.6331 C   0  0  0  0  0  0  0  0  0  0  0  0
   10.6432   -3.8460   20.6847 C   0  0  0  0  0  0  0  0  0  0  0  0
  1  8  1  0
  1 12  4  0
  1 14  4  0
  2  3  1  0
  2 17  1  0
  3 20  4  0
  3 22  4  0
  4 11  4  0
  4 21  4  0
  5  9  4  0
  5 16  4  0
  5 17  1  0
  6 16  4  0
  6 18  4  0
  7 22  4  0
  7 26  4  0
  8 10  4  0
  8 25  4  0
 10 21  4  0
 11 25  4  0
 12 23  4  0
 13 20  4  0
 13 26  4  0
 14 19  4  0
 15 18  4  0
 19 23  4  0
 20 24  1  0
 23 26  1  0
M  END
$$$$

 Created by Python create_sdf_string function

 26 75  0  0  0  0  0  0  0  0999 V2000
   10.4614   -2.3115   24.1208 C   0  0  0  0  0  0  0  0  0  0  0  0
    9.3208   -5.5929   17.1429 N   0  0  0  0  0  0  0  0  0  0  0  0
    9.9648   -4.8308   17.9358 C   0  0  0  0  0  0  0  0  0  0  0  0
    8.1451    1.5595   25.3387 N   0  0  0  0  0  0  0  0  0  0  0  0
    9.5010   -7.0650   18.1580 C   0  0  0  0  0  0  0  0  0  0  0  0
   10.9348   -3.5366   19.2737 C   0  0  0  0  0  0  0  0  0  0  0  0
    9.6859   -1.0700   24.2885 O   0  0  0  0  0  0  0  0  0  0  0  0
    7.2435   -6.3262   15.7611 C   0  0  0  0  0  0  0  0  0  0  0  0
    9.4641    0.3860   23.5130 C   0  0  0  0  0  0  0  0  0  0  0  0
    8.6744    0.0563   26.1845 C   0  0  0  0  0  0  0  0  0  0  0  0
   10.7831   -2.2874   22.3901 N   0  0  0  0  0  0  0  0  0  0  0  0
   10.0731   -5.2983   20.3705 C   0  0  0  0  0  0  0  0  0  0  0  0
   10.3273   -2.9141   23.8300 N   0  0  0  0  0  0  0  0  0  0  0  0
    6.7957   -7.9991   15.9018 N   0  0  0  0  0  0  0  0  0  0  0  0
    9.0205   -8.4157   18.7104 C   0  0  0  0  0  0  0  0  0  0  0  0
    9.4450   -4.9469   15.9930 C   0  0  0  0  0  0  0  0  0  0  0  0
    5.3676   -7.9349   15.6287 C   0  0  0  0  0  0  0  0  0  0  0  0
   10.8590   -3.9685   23.2744 O   0  0  0  0  0  0  0  0  0  0  0  0
   10.6451   -5.4752   18.8011 C   0  0  0  0  0  0  0  0  0  0  0  0
    8.8173    2.0210   24.4094 N   0  0  0  0  0  0  0  0  0  0  0  0
   10.5353   -3.6286   18.7669 C   0  0  0  0  0  0  0  0  0  0  0  0
   10.4093   -3.5906   22.0422 C   0  0  0  0  0  0  0  0  0  0  0  0
    9.3646   -7.2553   18.5942 F   0  0  0  0  0  0  0  0  0  0  0  0
    8.8702   -1.0609   25.8902 C   0  0  0  0  0  0  0  0  0  0  0  0
   10.3471   -3.5114   20.3049 C   0  0  0  0  0  0  0  0  0  0  0  0
    7.2452   -7.8673   15.3696 He  0  0  0  0  0  0  0  0  0  0  0  0
  1  5  2  0
  1  7  1  0
  1 11  4  0
  1 13  4  0
  1 16  3  0
  2  4  3  0
  2 16  1  0
  3 15  2  0
  3 18  2  0
  3 19  4  0
  3 21  4  0
  3 23  3  0
  3 25  1  0
  4 15  3  0
  4 20  4  0
  5  6  2  0
  5  7  1  0
  5  8  2  0
  5  9  4  0
  5 15  3  0
  5 17  4  0
  5 19  3  0
  5 21  1  0
  5 23  2  0
  5 24  4  0
  6  8  1  0
  6 11  1  0
  6 20  3  0
  6 21  4  0
  6 23  2  0
  6 25  4  0
  7  9  4  0
  7 12  3  0
  7 14  3  0
  7 15  3  0
  8 17  4  0
  8 18  3  0
  8 19  1  0
  9 14  3  0
  9 17  3  0
  9 20  4  0
  9 23  1  0
 10 14  1  0
 10 15  3  0
 10 20  1  0
 10 24  4  0
 11 14  2  0
 11 15  1  0
 11 17  2  0
 11 18  3  0
 11 24  2  0
 12 14  3  0
 12 19  4  0
 12 24  3  0
 12 25  4  0
 13 16  2  0
 13 18  1  0
 13 25  3  0
 14 19  2  0
 15 18  3  0
 15 19  3  0
 15 20  3  0
 15 21  3  0
 15 23  3  0
 16 23  2  0
 17 19  1  0
 17 20  4  0
 18 22  4  0
 19 21  1  0
 19 23  1  0
 19 25  2  0
 22 23  4  0
 22 24  1  0
 22 25  1  0
 23 24  2  0
M  END
$$$$

 Created by Python create_sdf_string function

 26 27  0  0  0  0  0  0  0  0999 V2000
   10.1420   -1.9929   23.6700 C   0  0  0  0  0  0  0  0  0  0  0  0
    9.4957   -5.3298   16.9448 N   0  0  0  0  0  0  0  0  0  0  0  0
   10.0486   -4.8715   18.0781 C   0  0  0  0  0  0  0  0  0  0  0  0
    8.3479    1.3598   25.4163 N   0  0  0  0  0  0  0  0  0  0  0  0
    8.8307   -7.1785   17.5653 C   0  0  0  0  0  0  0  0  0  0  0  0
    7.3657   -8.2064   15.9990 C   0  0  0  0  0  0  0  0  0  0  0  0
   10.8818   -3.1094   19.6011 C   0  0  0  0  0  0  0  0  0  0  0  0
    9.6082   -0.8480   24.3616 C   0  0  0  0  0  0  0  0  0  0  0  0
    7.2612   -6.8709   15.8877 C   0  0  0  0  0  0  0  0  0  0  0  0
    9.5798    0.3129   23.6698 C   0  0  0  0  0  0  0  0  0  0  0  0
    8.3801    0.1965   26.1533 C   0  0  0  0  0  0  0  0  0  0  0  0
   10.4442   -2.1217   22.3696 N   0  0  0  0  0  0  0  0  0  0  0  0
   10.4338   -5.2264   20.4087 C   0  0  0  0  0  0  0  0  0  0  0  0
   10.3541   -3.1865   24.2162 N   0  0  0  0  0  0  0  0  0  0  0  0
    7.0176   -8.1408   16.0352 C   0  0  0  0  0  0  0  0  0  0  0  0
    8.5818   -8.0314   17.5491 C   0  0  0  0  0  0  0  0  0  0  0  0
    9.1155   -4.7961   15.9732 C   0  0  0  0  0  0  0  0  0  0  0  0
    6.5859   -8.0116   16.1443 C   0  0  0  0  0  0  0  0  0  0  0  0
   10.6264   -4.1609   23.0806 O   0  0  0  0  0  0  0  0  0  0  0  0
   10.0861   -5.6450   19.1152 C   0  0  0  0  0  0  0  0  0  0  0  0
    8.9011    1.4266   24.1633 N   0  0  0  0  0  0  0  0  0  0  0  0
   10.5924   -3.5386   18.2175 C   0  0  0  0  0  0  0  0  0  0  0  0
   10.6502   -3.4103   22.0012 C   0  0  0  0  0  0  0  0  0  0  0  0
    9.5150   -7.1077   18.5000 S   0  0  0  0  0  0  0  0  0  0  0  0
    9.0692   -0.9556   25.6493 C   0  0  0  0  0  0  0  0  0  0  0  0
   10.6920   -3.8889   20.6261 C   0  0  0  0  0  0  0  0  0  0  0  0
  1  8  1  0
  1 12  4  0
  1 14  4  0
  2  3  1  0
  2 17  1  0
  3 20  4  0
  3 22  4  0
  4 11  4  0
  4 21  4  0
  5 16  4  0
  5 24  4  0
  6 15  4  0
  7 22  4  0
  7 26  4  0
  8 10  4  0
  8 25  4  0
  9 18  4  0
 10 21  4  0
 11 25  4  0
 12 23  4  0
 13 20  4  0
 13 26  4  0
 14 19  4  0
 15 18  4  0
 19 23  4  0
 20 24  1  0
 23 26  1  0
M  END
$$$$

 Created by Python create_sdf_string function

 26 69  0  0  0  0  0  0  0  0999 V2000
    9.9905   -1.9562   24.0959 C   0  0  0  0  0  0  0  0  0  0  0  0
    9.5356   -4.9579   17.2621 N   0  0  0  0  0  0  0  0  0  0  0  0
   10.1122   -5.2775   18.2406 C   0  0  0  0  0  0  0  0  0  0  0  0
    9.2489   -8.2671   17.5291 P   0  0  0  0  0  0  0  0  0  0  0  0
    8.8591   -7.6804   16.7449 Cl  0  0  0  0  0  0  0  0  0  0  0  0
   10.9090   -3.2122   20.1835 C   0  0  0  0  0  0  0  0  0  0  0  0
    9.9658   -0.7700   24.4908 P   0  0  0  0  0  0  0  0  0  0  0  0
    8.4647   -7.7903   16.7285 C   0  0  0  0  0  0  0  0  0  0  0  0
    9.3015    0.2094   23.5217 C   0  0  0  0  0  0  0  0  0  0  0  0
    8.8618    0.6549   26.1967 C   0  0  0  0  0  0  0  0  0  0  0  0
   10.1984   -2.2266   22.5263 N   0  0  0  0  0  0  0  0  0  0  0  0
   10.0672   -5.6299   20.2150 O   0  0  0  0  0  0  0  0  0  0  0  0
   10.4303   -3.1032   24.2213 N   0  0  0  0  0  0  0  0  0  0  0  0
    7.0895   -7.5313   15.6553 C   0  0  0  0  0  0  0  0  0  0  0  0
    9.0643   -8.6453   17.3126 B   0  0  0  0  0  0  0  0  0  0  0  0
    9.4529   -5.0059   15.9272 C   0  0  0  0  0  0  0  0  0  0  0  0
   10.5177   -4.1954   22.7125 Cl  0  0  0  0  0  0  0  0  0  0  0  0
    9.6920   -6.2144   18.7595 C   0  0  0  0  0  0  0  0  0  0  0  0
    8.9020    0.9358   24.1227 S   0  0  0  0  0  0  0  0  0  0  0  0
   11.1542   -3.3958   21.5176 C   0  0  0  0  0  0  0  0  0  0  0  0
    9.2549   -7.1311   18.6749 S   0  0  0  0  0  0  0  0  0  0  0  0
    9.3026   -1.2740   25.7803 C   0  0  0  0  0  0  0  0  0  0  0  0
    8.0913    1.8006   24.6968 He  0  0  0  0  0  0  0  0  0  0  0  0
    7.8963   -6.7795   17.1016 He  0  0  0  0  0  0  0  0  0  0  0  0
   10.3440   -3.3141   18.2934 He  0  0  0  0  0  0  0  0  0  0  0  0
   11.0478   -4.4101   20.2041 He  0  0  0  0  0  0  0  0  0  0  0  0
  1  2  3  0
  1  6  2  0
  1  8  1  0
  1 13  3  0
  1 15  1  0
  1 19  4  0
  2  6  4  0
  2 11  3  0
  2 15  2  0
  2 16  1  0
  2 20  1  0
  3  4  3  0
  3  6  1  0
  3 14  3  0
  3 18  4  0
  4 11  2  0
  4 14  3  0
  4 15  1  0
  4 20  3  0
  4 21  1  0
  5  6  1  0
  5  7  2  0
  5  8  4  0
  5  9  1  0
  5 11  4  0
  5 14  3  0
  5 20  3  0
  6  7  2  0
  6 13  4  0
  7 10  4  0
  7 13  2  0
  7 15  3  0
  7 18  2  0
  7 22  4  0
  8  9  4  0
  8 10  3  0
  8 13  4  0
  8 16  1  0
  8 19  4  0
  8 20  2  0
  8 21  1  0
  8 22  4  0
  9 11  4  0
  9 14  1  0
 10 14  4  0
 10 17  4  0
 10 22  4  0
 11 14  4  0
 11 16  2  0
 11 20  4  0
 11 22  3  0
 12 14  4  0
 12 15  3  0
 12 17  1  0
 12 18  1  0
 13 15  3  0
 13 17  4  0
 13 21  2  0
 14 15  4  0
 14 16  1  0
 14 17  2  0
 14 18  2  0
 14 21  4  0
 15 17  2  0
 15 18  2  0
 16 21  1  0
 17 20  4  0
 18 21  1  0
 19 22  3  0
M  END
$$$$

 Created by Python create_sdf_string function

 26 26  0  0  0  0  0  0  0  0999 V2000
   10.1503   -2.1355   23.6795 C   0  0  0  0  0  0  0  0  0  0  0  0
    9.5113   -5.0401   16.9403 N   0  0  0  0  0  0  0  0  0  0  0  0
   10.0417   -4.7840   18.1072 C   0  0  0  0  0  0  0  0  0  0  0  0
    8.4257    1.3587   25.2008 C   0  0  0  0  0  0  0  0  0  0  0  0
    8.9465   -7.9920   17.8012 C   0  0  0  0  0  0  0  0  0  0  0  0
    8.1712   -7.5402   16.3305 C   0  0  0  0  0  0  0  0  0  0  0  0
   10.8540   -3.1617   19.6312 C   0  0  0  0  0  0  0  0  0  0  0  0
    9.7023   -0.9085   24.2850 C   0  0  0  0  0  0  0  0  0  0  0  0
    8.1350   -7.4665   16.5259 C   0  0  0  0  0  0  0  0  0  0  0  0
    9.6442    0.1937   23.5286 C   0  0  0  0  0  0  0  0  0  0  0  0
    8.6602    0.2927   26.0300 C   0  0  0  0  0  0  0  0  0  0  0  0
   10.4172   -2.2987   22.3681 N   0  0  0  0  0  0  0  0  0  0  0  0
   10.4109   -5.3317   20.3814 C   0  0  0  0  0  0  0  0  0  0  0  0
   10.3584   -3.2683   24.2550 N   0  0  0  0  0  0  0  0  0  0  0  0
    7.2732   -8.0142   15.9409 C   0  0  0  0  0  0  0  0  0  0  0  0
    8.2374   -8.4255   17.1759 C   0  0  0  0  0  0  0  0  0  0  0  0
    9.1177   -4.7362   15.9851 C   0  0  0  0  0  0  0  0  0  0  0  0
    8.0071   -6.8385   16.7010 C   0  0  0  0  0  0  0  0  0  0  0  0
   10.7377   -4.3437   23.1348 O   0  0  0  0  0  0  0  0  0  0  0  0
   10.0612   -5.7115   19.0745 C   0  0  0  0  0  0  0  0  0  0  0  0
    8.9441    1.3259   23.9476 C   0  0  0  0  0  0  0  0  0  0  0  0
   10.5530   -3.5343   18.2473 C   0  0  0  0  0  0  0  0  0  0  0  0
   10.6270   -3.5750   21.9598 C   0  0  0  0  0  0  0  0  0  0  0  0
    9.6180   -7.1308   18.6709 S   0  0  0  0  0  0  0  0  0  0  0  0
    9.2896   -0.8713   25.5831 C   0  0  0  0  0  0  0  0  0  0  0  0
   10.6385   -4.0066   20.6170 C   0  0  0  0  0  0  0  0  0  0  0  0
  1  8  1  0
  1 12  4  0
  1 14  4  0
  2  3  1  0
  2 17  1  0
  3 20  4  0
  3 22  4  0
  4 11  4  0
  4 21  4  0
  5 16  4  0
  5 24  1  0
  6  9  4  0
  7 22  4  0
  7 26  4  0
  8 10  4  0
  8 25  4  0
  9 18  4  0
 10 21  4  0
 11 25  4  0
 12 23  4  0
 13 20  4  0
 13 26  4  0
 14 19  4  0
 19 23  4  0
 20 24  1  0
 23 26  1  0
M  END
$$$$

 Created by Python create_sdf_string function

 26 52  0  0  0  0  0  0  0  0999 V2000
    9.9256   -2.5579   23.7755 C   0  0  0  0  0  0  0  0  0  0  0  0
    9.5471   -5.4551   17.5711 N   0  0  0  0  0  0  0  0  0  0  0  0
   10.3603   -4.6046   18.1185 Cl  0  0  0  0  0  0  0  0  0  0  0  0
    9.9813   -8.3115   17.0081 O   0  0  0  0  0  0  0  0  0  0  0  0
    8.0271   -7.9572   16.6308 Cl  0  0  0  0  0  0  0  0  0  0  0  0
   10.3743   -3.6027   19.0945 F   0  0  0  0  0  0  0  0  0  0  0  0
    9.8466    0.3590   23.3901 C   0  0  0  0  0  0  0  0  0  0  0  0
    8.8031   -0.0992   25.5409 C   0  0  0  0  0  0  0  0  0  0  0  0
   10.4194   -5.5640   20.5880 C   0  0  0  0  0  0  0  0  0  0  0  0
   10.1881   -3.0462   24.2723 N   0  0  0  0  0  0  0  0  0  0  0  0
    6.6311   -8.2733   15.4690 N   0  0  0  0  0  0  0  0  0  0  0  0
    8.3506   -8.2738   17.1954 S   0  0  0  0  0  0  0  0  0  0  0  0
    8.9540   -5.3121   16.3395 C   0  0  0  0  0  0  0  0  0  0  0  0
   10.9112   -4.4185   22.9613 C   0  0  0  0  0  0  0  0  0  0  0  0
    8.7700    1.6626   23.3768 C   0  0  0  0  0  0  0  0  0  0  0  0
   10.4212   -3.4453   18.2249 C   0  0  0  0  0  0  0  0  0  0  0  0
   10.7503   -3.6227   22.2784 O   0  0  0  0  0  0  0  0  0  0  0  0
    9.9084   -6.7248   18.7955 S   0  0  0  0  0  0  0  0  0  0  0  0
    9.5788   -1.2154   25.6695 C   0  0  0  0  0  0  0  0  0  0  0  0
   10.4763   -3.6917   20.0641 C   0  0  0  0  0  0  0  0  0  0  0  0
    8.3526    1.8334   25.1428 He  0  0  0  0  0  0  0  0  0  0  0  0
   10.4223   -0.8091   24.7058 He  0  0  0  0  0  0  0  0  0  0  0  0
    7.9924   -7.1441   18.2147 He  0  0  0  0  0  0  0  0  0  0  0  0
   10.9950   -1.8879   22.6326 He  0  0  0  0  0  0  0  0  0  0  0  0
    6.6722   -6.0711   16.7632 He  0  0  0  0  0  0  0  0  0  0  0  0
   10.6081   -5.4333   19.1484 He  0  0  0  0  0  0  0  0  0  0  0  0
  1  2  2  0
  1  4  1  0
  1  9  1  0
  1 10  4  0
  1 16  3  0
  1 18  3  0
  2  3  1  0
  2  5  4  0
  2 13  1  0
  3  4  4  0
  3  5  1  0
  3 12  3  0
  3 18  3  0
  4  6  3  0
  4  8  3  0
  4  9  4  0
  4 12  3  0
  4 18  3  0
  5  7  2  0
  5 10  4  0
  5 12  1  0
  5 15  2  0
  5 18  4  0
  6 11  3  0
  6 15  2  0
  6 16  4  0
  6 18  2  0
  6 20  4  0
  7 10  3  0
  7 15  4  0
  7 18  1  0
  7 20  2  0
  8  9  2  0
  8 11  4  0
  8 19  4  0
  9 10  2  0
  9 12  4  0
  9 20  4  0
 10 12  2  0
 10 13  4  0
 10 14  4  0
 10 16  2  0
 10 20  3  0
 11 17  1  0
 11 18  3  0
 11 19  2  0
 11 20  2  0
 12 13  1  0
 12 20  1  0
 13 19  1  0
 14 20  2  0
 17 20  1  0
M  END
$$$$

 Created by Python create_sdf_string function

 26 24  0  0  0  0  0  0  0  0999 V2000
   10.2870   -2.0562   23.6349 C   0  0  0  0  0  0  0  0  0  0  0  0
    9.5935   -5.2458   16.9793 N   0  0  0  0  0  0  0  0  0  0  0  0
   10.1149   -4.8464   18.1572 C   0  0  0  0  0  0  0  0  0  0  0  0
    8.4730    1.3722   25.0094 N   0  0  0  0  0  0  0  0  0  0  0  0
    8.9740   -7.9763   17.5169 C   0  0  0  0  0  0  0  0  0  0  0  0
    7.8697   -7.9509   16.6035 C   0  0  0  0  0  0  0  0  0  0  0  0
   10.8299   -3.1376   19.6163 C   0  0  0  0  0  0  0  0  0  0  0  0
    9.8078   -0.8680   24.2386 C   0  0  0  0  0  0  0  0  0  0  0  0
    7.6129   -7.1357   17.5577 C   0  0  0  0  0  0  0  0  0  0  0  0
    9.8675    0.2778   23.4318 C   0  0  0  0  0  0  0  0  0  0  0  0
    8.6246    0.3188   25.8780 C   0  0  0  0  0  0  0  0  0  0  0  0
   10.5876   -2.2102   22.3666 N   0  0  0  0  0  0  0  0  0  0  0  0
   10.6407   -5.3129   20.4399 C   0  0  0  0  0  0  0  0  0  0  0  0
   10.4499   -3.2975   24.1838 N   0  0  0  0  0  0  0  0  0  0  0  0
    6.9635   -8.3101   15.9228 C   0  0  0  0  0  0  0  0  0  0  0  0
    7.9808   -8.3243   16.8262 C   0  0  0  0  0  0  0  0  0  0  0  0
    8.6518   -5.3610   16.3118 C   0  0  0  0  0  0  0  0  0  0  0  0
    7.3666   -6.5496   16.2051 C   0  0  0  0  0  0  0  0  0  0  0  0
   10.7198   -4.2160   23.1680 O   0  0  0  0  0  0  0  0  0  0  0  0
   10.2800   -5.7178   19.1561 C   0  0  0  0  0  0  0  0  0  0  0  0
    9.1614    1.3724   23.8287 C   0  0  0  0  0  0  0  0  0  0  0  0
   10.4705   -3.5376   18.3388 C   0  0  0  0  0  0  0  0  0  0  0  0
   10.7233   -3.4698   21.9788 C   0  0  0  0  0  0  0  0  0  0  0  0
   10.1489   -7.2430   18.8625 S   0  0  0  0  0  0  0  0  0  0  0  0
    9.2863   -0.8567   25.5126 C   0  0  0  0  0  0  0  0  0  0  0  0
   10.7235   -3.9607   20.6568 C   0  0  0  0  0  0  0  0  0  0  0  0
  1  8  1  0
  1 12  4  0
  1 14  4  0
  2  3  1  0
  2 17  1  0
  3 20  4  0
  3 22  4  0
  4 11  4  0
  4 21  4  0
  7 22  4  0
  7 26  4  0
  8 10  4  0
  8 25  4  0
  9 18  4  0
 10 21  4  0
 11 25  4  0
 12 23  4  0
 13 20  4  0
 13 26  4  0
 14 19  4  0
 17 18  1  0
 19 23  4  0
 20 24  1  0
 23 26  1  0
M  END
$$$$

 Created by Python create_sdf_string function

 26 30  0  0  0  0  0  0  0  0999 V2000
   10.6225   -1.6563   23.6918 C   0  0  0  0  0  0  0  0  0  0  0  0
   10.7849   -5.0536   18.0778 N   0  0  0  0  0  0  0  0  0  0  0  0
   10.5715   -3.3680   19.9090 C   0  0  0  0  0  0  0  0  0  0  0  0
   10.2816    0.5713   23.6886 C   0  0  0  0  0  0  0  0  0  0  0  0
    8.3331    0.3542   25.9923 C   0  0  0  0  0  0  0  0  0  0  0  0
   10.5700   -2.3373   22.8972 F   0  0  0  0  0  0  0  0  0  0  0  0
   10.7781   -5.3579   20.0926 F   0  0  0  0  0  0  0  0  0  0  0  0
    7.8936   -8.4710   16.1190 C   0  0  0  0  0  0  0  0  0  0  0  0
    8.6722   -5.4309   16.4472 C   0  0  0  0  0  0  0  0  0  0  0  0
    7.9377   -5.8207   14.4523 C   0  0  0  0  0  0  0  0  0  0  0  0
   10.7890   -4.0067   22.9965 O   0  0  0  0  0  0  0  0  0  0  0  0
    9.9424   -5.7877   19.4813 C   0  0  0  0  0  0  0  0  0  0  0  0
    8.8712    0.9761   23.7907 C   0  0  0  0  0  0  0  0  0  0  0  0
   10.5843   -3.6557   18.1760 C   0  0  0  0  0  0  0  0  0  0  0  0
   11.0613   -3.4334   22.0637 C   0  0  0  0  0  0  0  0  0  0  0  0
   10.3704   -6.9126   18.8664 S   0  0  0  0  0  0  0  0  0  0  0  0
    9.0740   -1.1547   25.4638 C   0  0  0  0  0  0  0  0  0  0  0  0
   10.4146   -3.9784   20.6885 C   0  0  0  0  0  0  0  0  0  0  0  0
    9.8016   -5.5709   17.0152 He  0  0  0  0  0  0  0  0  0  0  0  0
    8.3817    1.5529   25.0121 He  0  0  0  0  0  0  0  0  0  0  0  0
    9.4491   -7.9159   17.9443 He  0  0  0  0  0  0  0  0  0  0  0  0
    8.0074   -7.2816   15.7825 He  0  0  0  0  0  0  0  0  0  0  0  0
   10.2001   -0.4495   23.8518 He  0  0  0  0  0  0  0  0  0  0  0  0
    7.5972   -7.3304   16.0989 He  0  0  0  0  0  0  0  0  0  0  0  0
   10.2551   -3.2458   23.5534 He  0  0  0  0  0  0  0  0  0  0  0  0
    5.9898   -8.1490   14.0837 He  0  0  0  0  0  0  0  0  0  0  0  0
  1  6  4  0
  1 10  2  0
  1 12  2  0
  2  7  4  0
  2  8  3  0
  2 12  4  0
  2 14  4  0
  2 15  2  0
  2 17  1  0
  3 10  2  0
  3 14  4  0
  3 18  4  0
  4 10  4  0
  4 11  3  0
  4 13  4  0
  5 12  1  0
  5 15  4  0
  6 14  3  0
  6 15  4  0
  7 12  4  0
  7 15  1  0
  7 18  4  0
  8 12  4  0
  8 14  4  0
  8 16  3  0
  8 17  2  0
 11 14  4  0
 12 13  4  0
 12 16  1  0
 15 18  2  0
M  END
$$$$

 Created by Python create_sdf_string function

 26 27  0  0  0  0  0  0  0  0999 V2000
   10.3278   -1.9983   23.5654 C   0  0  0  0  0  0  0  0  0  0  0  0
    9.8514   -5.3371   16.8556 C   0  0  0  0  0  0  0  0  0  0  0  0
   10.2610   -4.8557   18.1535 C   0  0  0  0  0  0  0  0  0  0  0  0
    8.3871    1.3846   25.0466 N   0  0  0  0  0  0  0  0  0  0  0  0
    8.8918   -7.4419   17.4627 C   0  0  0  0  0  0  0  0  0  0  0  0
    7.7917   -7.0479   16.0158 C   0  0  0  0  0  0  0  0  0  0  0  0
   10.8396   -3.1306   19.6039 C   0  0  0  0  0  0  0  0  0  0  0  0
    9.8109   -0.7745   24.1608 C   0  0  0  0  0  0  0  0  0  0  0  0
    7.5429   -7.8183   16.1604 C   0  0  0  0  0  0  0  0  0  0  0  0
    9.9397    0.4358   23.4928 C   0  0  0  0  0  0  0  0  0  0  0  0
    8.3579    0.2493   25.7820 C   0  0  0  0  0  0  0  0  0  0  0  0
   10.6560   -2.1792   22.2834 N   0  0  0  0  0  0  0  0  0  0  0  0
   10.6368   -5.3249   20.4617 C   0  0  0  0  0  0  0  0  0  0  0  0
   10.4156   -3.2256   24.1779 N   0  0  0  0  0  0  0  0  0  0  0  0
    6.7879   -8.2688   15.5663 C   0  0  0  0  0  0  0  0  0  0  0  0
    7.8258   -8.4521   16.6735 C   0  0  0  0  0  0  0  0  0  0  0  0
    8.8522   -5.7011   16.4159 C   0  0  0  0  0  0  0  0  0  0  0  0
    7.3009   -6.5064   15.4030 C   0  0  0  0  0  0  0  0  0  0  0  0
   10.7182   -4.1591   23.0912 O   0  0  0  0  0  0  0  0  0  0  0  0
   10.3381   -5.7594   19.1563 C   0  0  0  0  0  0  0  0  0  0  0  0
    9.2072    1.5237   23.9673 C   0  0  0  0  0  0  0  0  0  0  0  0
   10.5740   -3.5808   18.3070 C   0  0  0  0  0  0  0  0  0  0  0  0
   10.7470   -3.4716   21.9855 C   0  0  0  0  0  0  0  0  0  0  0  0
   10.1780   -7.2854   18.9286 S   0  0  0  0  0  0  0  0  0  0  0  0
    9.1126   -0.8596   25.3782 C   0  0  0  0  0  0  0  0  0  0  0  0
   10.7573   -3.9518   20.6273 C   0  0  0  0  0  0  0  0  0  0  0  0
  1  8  1  0
  1 12  4  0
  1 14  4  0
  2  3  1  0
  2 17  1  0
  3 20  4  0
  3 22  4  0
  4 11  4  0
  4 21  4  0
  5 16  4  0
  5 17  4  0
  6 18  4  0
  7 22  4  0
  7 26  4  0
  8 10  4  0
  8 25  4  0
  9 16  4  0
 10 21  4  0
 11 25  4  0
 12 23  4  0
 13 20  4  0
 13 26  4  0
 14 19  4  0
 15 16  4  0
 19 23  4  0
 20 24  1  0
 23 26  1  0
M  END
$$$$

 Created by Python create_sdf_string function

 26 48  0  0  0  0  0  0  0  0999 V2000
    9.6961   -1.8695   23.5499 C   0  0  0  0  0  0  0  0  0  0  0  0
   10.3636   -4.9537   18.0517 O   0  0  0  0  0  0  0  0  0  0  0  0
    6.5583   -7.7555   17.4505 C   0  0  0  0  0  0  0  0  0  0  0  0
    6.9091   -7.7694   16.3282 C   0  0  0  0  0  0  0  0  0  0  0  0
   10.9840   -2.6052   18.8979 C   0  0  0  0  0  0  0  0  0  0  0  0
    7.9222   -7.3264   16.9614 C   0  0  0  0  0  0  0  0  0  0  0  0
   10.0655    0.4905   23.4730 C   0  0  0  0  0  0  0  0  0  0  0  0
    8.7755   -0.0810   25.7117 C   0  0  0  0  0  0  0  0  0  0  0  0
   10.9459   -1.9250   22.2899 Cl  0  0  0  0  0  0  0  0  0  0  0  0
   10.4480   -4.8772   20.3791 C   0  0  0  0  0  0  0  0  0  0  0  0
    9.9760   -3.0634   23.9097 N   0  0  0  0  0  0  0  0  0  0  0  0
    7.2886   -8.9705   18.0061 N   0  0  0  0  0  0  0  0  0  0  0  0
    8.8890   -5.8317   16.3272 C   0  0  0  0  0  0  0  0  0  0  0  0
   10.5926   -4.1023   22.9777 O   0  0  0  0  0  0  0  0  0  0  0  0
   10.1914   -5.6629   19.1697 P   0  0  0  0  0  0  0  0  0  0  0  0
    9.5360    1.2562   24.0837 C   0  0  0  0  0  0  0  0  0  0  0  0
   10.6289   -3.4802   18.0205 C   0  0  0  0  0  0  0  0  0  0  0  0
   10.9347   -3.6579   21.4644 C   0  0  0  0  0  0  0  0  0  0  0  0
   10.3413   -6.6920   18.6488 S   0  0  0  0  0  0  0  0  0  0  0  0
    9.2501   -0.7712   25.1469 C   0  0  0  0  0  0  0  0  0  0  0  0
   10.8275   -3.7826   20.8236 C   0  0  0  0  0  0  0  0  0  0  0  0
    9.9928   -5.2528   16.6486 He  0  0  0  0  0  0  0  0  0  0  0  0
    8.7989    1.4811   25.1515 He  0  0  0  0  0  0  0  0  0  0  0  0
    9.4537   -1.0889   23.7368 He  0  0  0  0  0  0  0  0  0  0  0  0
    6.3091   -8.1269   13.6096 He  0  0  0  0  0  0  0  0  0  0  0  0
    7.3043   -7.4715   15.2994 He  0  0  0  0  0  0  0  0  0  0  0  0
  1  4  3  0
  1  9  4  0
  1 11  4  0
  1 12  4  0
  1 17  2  0
  2  4  1  0
  2 10  3  0
  2 11  3  0
  2 12  1  0
  2 14  3  0
  2 15  4  0
  2 17  4  0
  3  4  2  0
  3  6  4  0
  3 10  2  0
  3 12  4  0
  3 13  2  0
  3 17  1  0
  3 21  2  0
  4  6  2  0
  4  7  1  0
  4 13  3  0
  4 14  2  0
  4 15  1  0
  4 19  3  0
  5  6  1  0
  5 17  4  0
  5 21  4  0
  6 10  2  0
  6 16  3  0
  6 20  2  0
  7  9  1  0
  7 16  3  0
  8 20  1  0
  9 12  4  0
  9 18  4  0
 10 14  3  0
 10 15  4  0
 10 21  4  0
 11 14  4  0
 11 17  4  0
 12 15  3  0
 12 16  4  0
 12 19  4  0
 13 18  1  0
 14 18  4  0
 15 19  4  0
 17 19  2  0
M  END
$$$$

 Created by Python create_sdf_string function

 26 27  0  0  0  0  0  0  0  0999 V2000
   10.2211   -1.9804   23.3976 C   0  0  0  0  0  0  0  0  0  0  0  0
    9.8237   -5.1689   16.7071 N   0  0  0  0  0  0  0  0  0  0  0  0
   10.2363   -4.7262   17.9334 C   0  0  0  0  0  0  0  0  0  0  0  0
    8.7997    1.4237   25.2164 N   0  0  0  0  0  0  0  0  0  0  0  0
    6.9735   -8.0262   17.7260 C   0  0  0  0  0  0  0  0  0  0  0  0
    6.6674   -8.3866   16.4866 C   0  0  0  0  0  0  0  0  0  0  0  0
   10.9720   -3.0204   19.3581 C   0  0  0  0  0  0  0  0  0  0  0  0
    9.7740   -0.8054   24.0438 C   0  0  0  0  0  0  0  0  0  0  0  0
    8.1864   -6.9768   16.6361 C   0  0  0  0  0  0  0  0  0  0  0  0
    9.9853    0.4099   23.4172 C   0  0  0  0  0  0  0  0  0  0  0  0
    8.5852    0.2374   25.8185 C   0  0  0  0  0  0  0  0  0  0  0  0
   10.6579   -2.0874   22.1622 N   0  0  0  0  0  0  0  0  0  0  0  0
   10.5868   -5.1558   20.2656 C   0  0  0  0  0  0  0  0  0  0  0  0
   10.1714   -3.1798   23.8994 N   0  0  0  0  0  0  0  0  0  0  0  0
    6.8551   -8.2748   15.5695 C   0  0  0  0  0  0  0  0  0  0  0  0
    7.1858   -8.0874   17.8625 C   0  0  0  0  0  0  0  0  0  0  0  0
    9.0033   -5.8714   16.2818 C   0  0  0  0  0  0  0  0  0  0  0  0
    7.6464   -7.4987   15.5494 C   0  0  0  0  0  0  0  0  0  0  0  0
   10.5619   -4.1090   22.8319 O   0  0  0  0  0  0  0  0  0  0  0  0
   10.2082   -5.5491   18.9930 C   0  0  0  0  0  0  0  0  0  0  0  0
    9.4611    1.5190   24.0298 C   0  0  0  0  0  0  0  0  0  0  0  0
   10.6977   -3.4838   18.0519 C   0  0  0  0  0  0  0  0  0  0  0  0
   10.7411   -3.3578   21.7434 C   0  0  0  0  0  0  0  0  0  0  0  0
    9.8746   -7.0598   18.8843 S   0  0  0  0  0  0  0  0  0  0  0  0
    9.0626   -0.9258   25.2566 C   0  0  0  0  0  0  0  0  0  0  0  0
   10.8027   -3.8347   20.3905 C   0  0  0  0  0  0  0  0  0  0  0  0
  1  8  1  0
  1 12  4  0
  1 14  4  0
  2  3  1  0
  2 17  4  0
  3 20  4  0
  3 22  4  0
  4 11  4  0
  4 21  4  0
  5 16  4  0
  6 15  4  0
  7 22  4  0
  7 26  4  0
  8 10  4  0
  8 25  4  0
  9 17  1  0
  9 18  4  0
 10 21  4  0
 11 25  4  0
 12 23  4  0
 13 20  4  0
 13 26  4  0
 14 19  4  0
 15 18  4  0
 19 23  4  0
 20 24  1  0
 23 26  1  0
M  END
$$$$

 Created by Python create_sdf_string function

 26 51  0  0  0  0  0  0  0  0999 V2000
   10.0410   -5.0663   16.9191 N   0  0  0  0  0  0  0  0  0  0  0  0
   10.0921   -5.1155   17.6124 C   0  0  0  0  0  0  0  0  0  0  0  0
    8.7366    2.0113   25.1969 N   0  0  0  0  0  0  0  0  0  0  0  0
    7.7689   -9.0319   14.3948 P   0  0  0  0  0  0  0  0  0  0  0  0
   11.0243   -3.0299   19.4136 C   0  0  0  0  0  0  0  0  0  0  0  0
   10.1133   -0.8656   24.1806 C   0  0  0  0  0  0  0  0  0  0  0  0
    7.7575   -8.7303   14.9773 O   0  0  0  0  0  0  0  0  0  0  0  0
    9.8952    0.6501   23.4551 C   0  0  0  0  0  0  0  0  0  0  0  0
   10.9566   -1.6896   22.0281 N   0  0  0  0  0  0  0  0  0  0  0  0
   10.9431   -5.2350   20.4739 C   0  0  0  0  0  0  0  0  0  0  0  0
   10.0632   -3.0913   24.2716 N   0  0  0  0  0  0  0  0  0  0  0  0
    7.0021   -9.6869   15.4108 C   0  0  0  0  0  0  0  0  0  0  0  0
    6.3257   -8.3335   17.3984 N   0  0  0  0  0  0  0  0  0  0  0  0
    9.4930   -6.1689   16.3929 C   0  0  0  0  0  0  0  0  0  0  0  0
    8.0536   -6.0254   14.4568 C   0  0  0  0  0  0  0  0  0  0  0  0
    9.4913    1.5418   24.0768 C   0  0  0  0  0  0  0  0  0  0  0  0
   10.4749   -3.1959   17.4592 C   0  0  0  0  0  0  0  0  0  0  0  0
   10.5234   -3.3055   22.0676 C   0  0  0  0  0  0  0  0  0  0  0  0
    9.7880   -6.7573   18.5972 S   0  0  0  0  0  0  0  0  0  0  0  0
    8.9115   -1.1232   25.5162 C   0  0  0  0  0  0  0  0  0  0  0  0
   10.4051   -3.6661   20.4956 C   0  0  0  0  0  0  0  0  0  0  0  0
   10.5192   -2.5765   22.8552 He  0  0  0  0  0  0  0  0  0  0  0  0
    8.6542   -8.0175   18.3071 He  0  0  0  0  0  0  0  0  0  0  0  0
    8.6239   -0.0346   26.0618 He  0  0  0  0  0  0  0  0  0  0  0  0
   10.6475   -3.6518   22.4260 He  0  0  0  0  0  0  0  0  0  0  0  0
   10.1246   -5.1401   18.7511 He  0  0  0  0  0  0  0  0  0  0  0  0
  1  4  4  0
  1  5  3  0
  1 11  4  0
  1 12  3  0
  1 14  4  0
  2  7  2  0
  2 17  4  0
  2 18  4  0
  3  4  3  0
  3  6  4  0
  3 12  2  0
  3 16  4  0
  4  7  1  0
  4 11  2  0
  4 12  2  0
  4 13  3  0
  4 16  4  0
  5  9  4  0
  5 16  2  0
  6  8  4  0
  6 14  2  0
  6 15  3  0
  6 20  4  0
  7  8  2  0
  7 15  4  0
  7 17  4  0
  7 20  4  0
  7 21  3  0
  8  9  1  0
  8 16  4  0
  9 11  1  0
  9 12  1  0
  9 15  3  0
  9 17  4  0
  9 19  4  0
 10 11  2  0
 10 12  4  0
 10 17  1  0
 10 20  3  0
 10 21  4  0
 11 19  2  0
 12 16  3  0
 12 19  3  0
 12 20  1  0
 13 15  1  0
 13 16  1  0
 13 17  3  0
 13 19  4  0
 13 21  4  0
 18 20  4  0
 18 21  1  0
M  END
$$$$

 Created by Python create_sdf_string function

 26 29  0  0  0  0  0  0  0  0999 V2000
   10.2265   -1.9787   23.4280 C   0  0  0  0  0  0  0  0  0  0  0  0
    9.6376   -5.0798   16.5888 N   0  0  0  0  0  0  0  0  0  0  0  0
   10.1895   -4.6798   17.7361 C   0  0  0  0  0  0  0  0  0  0  0  0
    8.7232    1.4538   25.2252 N   0  0  0  0  0  0  0  0  0  0  0  0
    8.4076   -7.7551   18.0319 C   0  0  0  0  0  0  0  0  0  0  0  0
    7.4788   -8.5888   15.2737 C   0  0  0  0  0  0  0  0  0  0  0  0
   10.9376   -3.0049   19.3732 C   0  0  0  0  0  0  0  0  0  0  0  0
    9.8145   -0.8023   24.1092 C   0  0  0  0  0  0  0  0  0  0  0  0
    7.8124   -8.1654   15.3452 C   0  0  0  0  0  0  0  0  0  0  0  0
   10.0183    0.3888   23.4799 C   0  0  0  0  0  0  0  0  0  0  0  0
    8.5858    0.2206   25.8087 C   0  0  0  0  0  0  0  0  0  0  0  0
   10.5391   -2.1344   22.1565 N   0  0  0  0  0  0  0  0  0  0  0  0
   10.5236   -5.1152   20.1174 C   0  0  0  0  0  0  0  0  0  0  0  0
   10.2995   -3.1461   24.0035 N   0  0  0  0  0  0  0  0  0  0  0  0
    7.0270   -8.7841   16.0893 C   0  0  0  0  0  0  0  0  0  0  0  0
    7.2392   -8.3798   17.3513 C   0  0  0  0  0  0  0  0  0  0  0  0
    8.9784   -6.1239   16.4819 C   0  0  0  0  0  0  0  0  0  0  0  0
    8.3715   -6.7003   15.6056 C   0  0  0  0  0  0  0  0  0  0  0  0
   10.6466   -4.1444   22.7899 O   0  0  0  0  0  0  0  0  0  0  0  0
   10.1583   -5.5258   18.8803 C   0  0  0  0  0  0  0  0  0  0  0  0
    9.4559    1.5299   24.0505 C   0  0  0  0  0  0  0  0  0  0  0  0
   10.6857   -3.4551   17.9512 C   0  0  0  0  0  0  0  0  0  0  0  0
   10.7194   -3.3738   21.7385 C   0  0  0  0  0  0  0  0  0  0  0  0
    9.7502   -6.8419   18.5640 S   0  0  0  0  0  0  0  0  0  0  0  0
    9.1471   -0.8985   25.2741 C   0  0  0  0  0  0  0  0  0  0  0  0
   10.7595   -3.8168   20.3820 C   0  0  0  0  0  0  0  0  0  0  0  0
  1  8  1  0
  1 12  4  0
  1 14  4  0
  2  3  4  0
  2 17  4  0
  3 20  4  0
  3 22  4  0
  4 11  4  0
  4 21  4  0
  5 16  4  0
  6  9  1  0
  6 15  4  0
  7 22  4  0
  7 26  4  0
  8 10  4  0
  8 25  4  0
  9 18  4  0
 10 21  4  0
 11 25  4  0
 12 23  4  0
 13 20  4  0
 13 26  4  0
 14 19  4  0
 15 16  4  0
 17 18  4  0
 17 24  4  0
 19 23  4  0
 20 24  4  0
 23 26  1  0
M  END
$$$$

 Created by Python create_sdf_string function

 26 60  0  0  0  0  0  0  0  0999 V2000
    9.2683   -4.4214   16.8891 N   0  0  0  0  0  0  0  0  0  0  0  0
   10.2868   -4.6251   17.5167 C   0  0  0  0  0  0  0  0  0  0  0  0
    8.1534    1.2911   24.9563 C   0  0  0  0  0  0  0  0  0  0  0  0
    8.0898   -8.5903   18.3505 F   0  0  0  0  0  0  0  0  0  0  0  0
    6.3438   -7.5867   17.2869 N   0  0  0  0  0  0  0  0  0  0  0  0
   11.0980   -2.5396   19.3921 C   0  0  0  0  0  0  0  0  0  0  0  0
    9.9638   -0.2995   24.0442 C   0  0  0  0  0  0  0  0  0  0  0  0
    6.2867   -8.4292   15.6774 C   0  0  0  0  0  0  0  0  0  0  0  0
   10.1191    0.3456   23.0488 F   0  0  0  0  0  0  0  0  0  0  0  0
    9.6219   -2.3224   22.1011 N   0  0  0  0  0  0  0  0  0  0  0  0
   10.5829   -5.0370   20.2623 C   0  0  0  0  0  0  0  0  0  0  0  0
   10.0234   -3.0259   24.2861 N   0  0  0  0  0  0  0  0  0  0  0  0
    8.5451   -8.0794   15.7135 O   0  0  0  0  0  0  0  0  0  0  0  0
    6.6385  -10.1765   18.1019 Cl  0  0  0  0  0  0  0  0  0  0  0  0
    8.5791   -6.1685   16.0194 C   0  0  0  0  0  0  0  0  0  0  0  0
    7.6109   -5.3783   16.3122 C   0  0  0  0  0  0  0  0  0  0  0  0
   10.2597   -5.5797   19.0263 C   0  0  0  0  0  0  0  0  0  0  0  0
   10.5597   -3.4292   18.0088 C   0  0  0  0  0  0  0  0  0  0  0  0
   10.3634   -3.5337   22.2668 C   0  0  0  0  0  0  0  0  0  0  0  0
    9.3755   -6.7577   18.6688 S   0  0  0  0  0  0  0  0  0  0  0  0
   10.9374   -3.7076   20.4396 O   0  0  0  0  0  0  0  0  0  0  0  0
   10.2771   -1.8712   23.4370 He  0  0  0  0  0  0  0  0  0  0  0  0
    8.4705    0.0015   26.0003 He  0  0  0  0  0  0  0  0  0  0  0  0
   10.3876   -4.1874   22.9889 He  0  0  0  0  0  0  0  0  0  0  0  0
    9.3135    1.9202   24.1474 He  0  0  0  0  0  0  0  0  0  0  0  0
    9.0959   -1.1040   24.8194 He  0  0  0  0  0  0  0  0  0  0  0  0
  1  2  2  0
  1  4  1  0
  1  8  4  0
  1 13  1  0
  1 15  4  0
  2 11  3  0
  2 16  3  0
  2 17  4  0
  2 18  4  0
  3 10  4  0
  3 13  3  0
  3 16  3  0
  3 20  2  0
  3 21  1  0
  4  5  1  0
  4  7  4  0
  4 10  4  0
  4 14  4  0
  4 15  4  0
  4 17  2  0
  4 21  2  0
  5  8  1  0
  5 10  4  0
  5 11  3  0
  5 16  1  0
  5 20  4  0
  6 13  4  0
  6 18  4  0
  6 21  4  0
  7  9  4  0
  7 12  4  0
  7 15  4  0
  8 10  3  0
  8 14  2  0
  8 16  2  0
  8 17  3  0
  8 19  2  0
  8 20  1  0
  9 13  2  0
  9 14  1  0
 10 12  4  0
 10 13  3  0
 11 14  4  0
 11 17  4  0
 11 19  4  0
 12 14  2  0
 12 16  2  0
 12 19  2  0
 12 20  3  0
 13 20  3  0
 13 21  1  0
 14 16  4  0
 14 18  3  0
 14 21  1  0
 15 16  4  0
 15 20  4  0
 16 18  3  0
 16 20  3  0
 17 20  2  0
 19 21  1  0
M  END
$$$$

 Created by Python create_sdf_string function

 26 27  0  0  0  0  0  0  0  0999 V2000
   10.0725   -1.9668   23.4268 C   0  0  0  0  0  0  0  0  0  0  0  0
    9.4186   -4.7131   16.6746 N   0  0  0  0  0  0  0  0  0  0  0  0
   10.0507   -4.4242   17.8578 C   0  0  0  0  0  0  0  0  0  0  0  0
    8.4883    1.4157   25.0736 C   0  0  0  0  0  0  0  0  0  0  0  0
    7.6234   -8.3968   17.5428 C   0  0  0  0  0  0  0  0  0  0  0  0
    6.9144   -7.4339   16.7840 C   0  0  0  0  0  0  0  0  0  0  0  0
   10.9790   -2.9380   19.4675 C   0  0  0  0  0  0  0  0  0  0  0  0
    9.6583   -0.7488   24.0458 C   0  0  0  0  0  0  0  0  0  0  0  0
    6.3760   -8.3830   16.2805 C   0  0  0  0  0  0  0  0  0  0  0  0
    9.8565    0.4647   23.4143 C   0  0  0  0  0  0  0  0  0  0  0  0
    8.3771    0.2430   25.7153 N   0  0  0  0  0  0  0  0  0  0  0  0
   10.4192   -2.1133   22.2177 N   0  0  0  0  0  0  0  0  0  0  0  0
   10.4296   -5.1095   20.0944 C   0  0  0  0  0  0  0  0  0  0  0  0
   10.1701   -3.1315   24.0611 N   0  0  0  0  0  0  0  0  0  0  0  0
    7.9913   -8.2618   15.8540 C   0  0  0  0  0  0  0  0  0  0  0  0
    6.5663   -9.0828   17.2799 C   0  0  0  0  0  0  0  0  0  0  0  0
    8.8018   -5.9135   16.7825 C   0  0  0  0  0  0  0  0  0  0  0  0
    7.8985   -6.3595   16.2387 C   0  0  0  0  0  0  0  0  0  0  0  0
   10.5299   -4.2412   22.8062 O   0  0  0  0  0  0  0  0  0  0  0  0
    9.9800   -5.3784   18.7961 C   0  0  0  0  0  0  0  0  0  0  0  0
    9.2387    1.5450   23.9514 N   0  0  0  0  0  0  0  0  0  0  0  0
   10.7160   -3.2233   18.1371 C   0  0  0  0  0  0  0  0  0  0  0  0
   10.5751   -3.4403   21.7931 C   0  0  0  0  0  0  0  0  0  0  0  0
    9.3756   -6.7262   18.3562 S   0  0  0  0  0  0  0  0  0  0  0  0
    9.0079   -0.8682   25.2473 N   0  0  0  0  0  0  0  0  0  0  0  0
   10.7070   -3.8170   20.4255 C   0  0  0  0  0  0  0  0  0  0  0  0
  1  8  1  0
  1 12  4  0
  1 14  4  0
  2  3  4  0
  2 17  4  0
  3 20  4  0
  3 22  4  0
  4 11  4  0
  4 21  4  0
  5  6  1  0
  6  9  1  0
  6 18  1  0
  7 22  4  0
  7 26  4  0
  8 10  4  0
  8 25  4  0
 10 21  4  0
 11 25  4  0
 12 23  4  0
 13 20  4  0
 13 26  4  0
 14 19  4  0
 17 18  4  0
 17 24  4  0
 19 23  4  0
 20 24  4  0
 23 26  1  0
M  END
$$$$

 Created by Python create_sdf_string function

 26 43  0  0  0  0  0  0  0  0999 V2000
   10.0304   -1.5222   23.0947 C   0  0  0  0  0  0  0  0  0  0  0  0
    8.9620   -4.1026   16.1559 N   0  0  0  0  0  0  0  0  0  0  0  0
    9.7260   -3.9147   18.0628 C   0  0  0  0  0  0  0  0  0  0  0  0
    8.3772    1.8668   25.3323 C   0  0  0  0  0  0  0  0  0  0  0  0
   11.4104   -2.7273   19.6182 C   0  0  0  0  0  0  0  0  0  0  0  0
   10.0341   -0.7182   24.2917 C   0  0  0  0  0  0  0  0  0  0  0  0
    6.5536   -6.8469   15.8936 C   0  0  0  0  0  0  0  0  0  0  0  0
   10.1095    0.7984   23.0286 C   0  0  0  0  0  0  0  0  0  0  0  0
    8.8119    0.1167   25.4858 O   0  0  0  0  0  0  0  0  0  0  0  0
   10.5064   -2.6201   22.0416 N   0  0  0  0  0  0  0  0  0  0  0  0
   10.7431   -4.8802   20.1579 C   0  0  0  0  0  0  0  0  0  0  0  0
   10.3758   -3.1050   23.8810 N   0  0  0  0  0  0  0  0  0  0  0  0
    6.5776  -11.3258   17.8263 S   0  0  0  0  0  0  0  0  0  0  0  0
    8.5286   -5.9683   17.1092 F   0  0  0  0  0  0  0  0  0  0  0  0
    9.8096   -4.0327   22.8866 O   0  0  0  0  0  0  0  0  0  0  0  0
    9.9928   -5.4917   18.7965 C   0  0  0  0  0  0  0  0  0  0  0  0
    9.5175    1.9902   24.1236 N   0  0  0  0  0  0  0  0  0  0  0  0
   10.3244   -3.0685   21.6222 C   0  0  0  0  0  0  0  0  0  0  0  0
    9.5951   -6.8442   18.8029 S   0  0  0  0  0  0  0  0  0  0  0  0
    9.0654   -1.1319   24.8208 N   0  0  0  0  0  0  0  0  0  0  0  0
   10.9186   -4.2070   20.7358 C   0  0  0  0  0  0  0  0  0  0  0  0
    6.5369  -10.1389   17.4100 He  0  0  0  0  0  0  0  0  0  0  0  0
    5.5613   -7.2927   17.4122 He  0  0  0  0  0  0  0  0  0  0  0  0
    7.8694   -8.4381   16.2872 He  0  0  0  0  0  0  0  0  0  0  0  0
    8.3896   -7.2525   15.3366 He  0  0  0  0  0  0  0  0  0  0  0  0
   10.7362   -2.9727   18.0901 He  0  0  0  0  0  0  0  0  0  0  0  0
  1  5  2  0
  1  6  1  0
  1  8  3  0
  1 10  1  0
  1 12  4  0
  1 18  2  0
  2  3  4  0
  2  4  3  0
  2 14  4  0
  3 12  1  0
  3 14  3  0
  3 16  1  0
  4  9  4  0
  4 13  4  0
  4 17  3  0
  4 19  4  0
  5 11  2  0
  5 13  1  0
  5 21  4  0
  6  8  4  0
  6  9  2  0
  6 18  2  0
  7  8  3  0
  7 16  4  0
  7 21  4  0
  8 17  4  0
  9 13  4  0
  9 17  4  0
  9 20  4  0
  9 21  2  0
 10 18  4  0
 10 21  2  0
 11 13  2  0
 11 16  4  0
 12 15  4  0
 12 18  3  0
 13 17  1  0
 13 21  2  0
 14 19  4  0
 15 18  4  0
 15 20  1  0
 16 19  4  0
 18 21  1  0
M  END
$$$$

 Created by Python create_sdf_string function

 26 29  0  0  0  0  0  0  0  0999 V2000
   10.1826   -1.8421   23.3269 C   0  0  0  0  0  0  0  0  0  0  0  0
    9.2319   -4.6244   16.7600 N   0  0  0  0  0  0  0  0  0  0  0  0
    9.9909   -4.3210   17.8727 C   0  0  0  0  0  0  0  0  0  0  0  0
    8.6977    1.5919   25.0793 C   0  0  0  0  0  0  0  0  0  0  0  0
    6.4615   -9.0276   16.9899 C   0  0  0  0  0  0  0  0  0  0  0  0
    6.1731   -7.4983   17.1244 C   0  0  0  0  0  0  0  0  0  0  0  0
   11.0063   -2.8673   19.4348 C   0  0  0  0  0  0  0  0  0  0  0  0
    9.7720   -0.6171   23.9594 C   0  0  0  0  0  0  0  0  0  0  0  0
    6.8977   -7.1925   16.4673 C   0  0  0  0  0  0  0  0  0  0  0  0
   10.0222    0.5970   23.3922 C   0  0  0  0  0  0  0  0  0  0  0  0
    8.4785    0.3860   25.6094 C   0  0  0  0  0  0  0  0  0  0  0  0
   10.6103   -1.9924   22.0840 N   0  0  0  0  0  0  0  0  0  0  0  0
   10.3929   -5.0447   20.1272 C   0  0  0  0  0  0  0  0  0  0  0  0
   10.1293   -3.0025   23.9140 N   0  0  0  0  0  0  0  0  0  0  0  0
    7.8702   -8.4411   16.3176 C   0  0  0  0  0  0  0  0  0  0  0  0
    6.3474   -9.6252   16.9613 N   0  0  0  0  0  0  0  0  0  0  0  0
    8.7624   -6.0172   17.0272 C   0  0  0  0  0  0  0  0  0  0  0  0
    8.0062   -7.0983   16.1798 C   0  0  0  0  0  0  0  0  0  0  0  0
   10.4607   -4.0667   22.8489 O   0  0  0  0  0  0  0  0  0  0  0  0
    9.9778   -5.3179   18.8116 C   0  0  0  0  0  0  0  0  0  0  0  0
    9.4505    1.7112   24.0066 N   0  0  0  0  0  0  0  0  0  0  0  0
   10.6761   -3.1448   18.0921 C   0  0  0  0  0  0  0  0  0  0  0  0
   10.6328   -3.3194   21.7533 C   0  0  0  0  0  0  0  0  0  0  0  0
    9.4212   -6.6787   18.3691 S   0  0  0  0  0  0  0  0  0  0  0  0
    9.0323   -0.7388   25.0937 N   0  0  0  0  0  0  0  0  0  0  0  0
   10.7198   -3.7323   20.4131 C   0  0  0  0  0  0  0  0  0  0  0  0
  1  8  1  0
  1 12  4  0
  1 14  4  0
  2  3  4  0
  2 17  4  0
  3 20  4  0
  3 22  4  0
  4 11  4  0
  4 21  4  0
  5  6  4  0
  5 16  4  0
  6  9  4  0
  7 22  4  0
  7 26  4  0
  8 10  4  0
  8 25  4  0
  9 18  4  0
 10 21  4  0
 11 25  4  0
 12 23  4  0
 13 20  4  0
 13 26  4  0
 14 19  4  0
 15 18  4  0
 17 18  1  0
 17 24  4  0
 19 23  4  0
 20 24  4  0
 23 26  1  0
M  END
$$$$

 Created by Python create_sdf_string function

 26 56  0  0  0  0  0  0  0  0999 V2000
    9.9198   -1.4398   23.0846 C   0  0  0  0  0  0  0  0  0  0  0  0
    9.2206   -4.3069   16.7944 N   0  0  0  0  0  0  0  0  0  0  0  0
   10.2086   -3.7489   17.4689 C   0  0  0  0  0  0  0  0  0  0  0  0
    9.0310    1.7452   24.8036 C   0  0  0  0  0  0  0  0  0  0  0  0
    5.0963   -7.2213   18.9226 C   0  0  0  0  0  0  0  0  0  0  0  0
   10.6093   -3.1255   19.4784 C   0  0  0  0  0  0  0  0  0  0  0  0
    9.7750   -0.3789   23.9297 O   0  0  0  0  0  0  0  0  0  0  0  0
    8.6546    0.2353   25.0683 C   0  0  0  0  0  0  0  0  0  0  0  0
   10.9670   -1.7382   21.9653 N   0  0  0  0  0  0  0  0  0  0  0  0
    9.7308   -5.0226   20.2732 C   0  0  0  0  0  0  0  0  0  0  0  0
   10.2246   -3.3272   23.5881 N   0  0  0  0  0  0  0  0  0  0  0  0
    7.6424   -7.9929   16.3789 C   0  0  0  0  0  0  0  0  0  0  0  0
    6.6258   -9.3280   15.9800 C   0  0  0  0  0  0  0  0  0  0  0  0
    8.9450   -5.6986   17.1700 C   0  0  0  0  0  0  0  0  0  0  0  0
    7.6892   -7.6493   16.5696 O   0  0  0  0  0  0  0  0  0  0  0  0
   10.2817   -4.4514   22.6890 O   0  0  0  0  0  0  0  0  0  0  0  0
    9.6730   -5.6973   18.9117 C   0  0  0  0  0  0  0  0  0  0  0  0
    9.7559    1.5343   23.7522 C   0  0  0  0  0  0  0  0  0  0  0  0
   10.4827   -2.9822   17.5857 C   0  0  0  0  0  0  0  0  0  0  0  0
   10.4054   -3.4876   21.7522 C   0  0  0  0  0  0  0  0  0  0  0  0
    9.3260   -6.1185   18.4049 C   0  0  0  0  0  0  0  0  0  0  0  0
    9.0969   -0.4519   24.9918 N   0  0  0  0  0  0  0  0  0  0  0  0
   10.8930   -3.7223   20.2443 C   0  0  0  0  0  0  0  0  0  0  0  0
    6.0463   -8.1945   17.3335 He  0  0  0  0  0  0  0  0  0  0  0  0
    8.2794   -7.0013   17.8080 He  0  0  0  0  0  0  0  0  0  0  0  0
    9.8747    0.8050   23.1669 He  0  0  0  0  0  0  0  0  0  0  0  0
  1  7  1  0
  1  9  2  0
  1 10  1  0
  1 11  4  0
  1 12  2  0
  1 19  3  0
  1 23  2  0
  2  3  4  0
  2  5  2  0
  2 10  3  0
  2 14  4  0
  3  5  4  0
  3 15  3  0
  3 17  4  0
  3 19  3  0
  4  8  1  0
  4 16  2  0
  4 18  4  0
  5  6  1  0
  5 14  1  0
  6 15  3  0
  6 16  2  0
  6 19  4  0
  6 23  4  0
  7  8  3  0
  7  9  3  0
  7 21  1  0
  7 22  4  0
  8 15  4  0
  9 20  4  0
  9 22  4  0
 10 12  3  0
 10 17  4  0
 10 23  4  0
 11 12  1  0
 11 16  4  0
 11 19  4  0
 11 23  1  0
 12 13  2  0
 12 15  4  0
 12 17  4  0
 12 23  4  0
 13 14  1  0
 13 17  2  0
 13 19  4  0
 13 20  2  0
 14 17  4  0
 14 21  2  0
 15 18  4  0
 15 19  1  0
 15 20  2  0
 15 21  4  0
 15 23  1  0
 16 20  4  0
 16 21  4  0
 20 23  3  0
M  END
$$$$

 Created by Python create_sdf_string function

 26 29  0  0  0  0  0  0  0  0999 V2000
   10.2199   -1.8000   23.2279 C   0  0  0  0  0  0  0  0  0  0  0  0
    9.5033   -4.5631   16.5891 N   0  0  0  0  0  0  0  0  0  0  0  0
   10.0155   -4.2640   17.7488 C   0  0  0  0  0  0  0  0  0  0  0  0
    8.8886    1.7745   24.8106 C   0  0  0  0  0  0  0  0  0  0  0  0
    5.8279   -8.4540   17.4091 C   0  0  0  0  0  0  0  0  0  0  0  0
    6.1742   -7.8078   18.0783 C   0  0  0  0  0  0  0  0  0  0  0  0
   10.9773   -2.8471   19.3518 C   0  0  0  0  0  0  0  0  0  0  0  0
    9.7984   -0.5405   23.8184 C   0  0  0  0  0  0  0  0  0  0  0  0
    7.5189   -7.2389   17.6912 C   0  0  0  0  0  0  0  0  0  0  0  0
   10.1567    0.5938   23.1616 C   0  0  0  0  0  0  0  0  0  0  0  0
    8.5668    0.6034   25.4312 C   0  0  0  0  0  0  0  0  0  0  0  0
   10.6337   -1.9566   21.9948 N   0  0  0  0  0  0  0  0  0  0  0  0
   10.1739   -4.9725   20.0112 C   0  0  0  0  0  0  0  0  0  0  0  0
   10.1693   -2.9601   23.8228 N   0  0  0  0  0  0  0  0  0  0  0  0
    7.7092   -8.1597   16.0187 C   0  0  0  0  0  0  0  0  0  0  0  0
    6.4702   -8.9711   16.2367 C   0  0  0  0  0  0  0  0  0  0  0  0
    8.9285   -5.8506   16.6598 C   0  0  0  0  0  0  0  0  0  0  0  0
    7.9835   -7.3704   16.7849 C   0  0  0  0  0  0  0  0  0  0  0  0
   10.4418   -4.0326   22.7606 O   0  0  0  0  0  0  0  0  0  0  0  0
    9.7946   -5.2259   18.6944 C   0  0  0  0  0  0  0  0  0  0  0  0
    9.6727    1.7816   23.6646 C   0  0  0  0  0  0  0  0  0  0  0  0
   10.7037   -3.1249   17.9992 C   0  0  0  0  0  0  0  0  0  0  0  0
   10.6080   -3.2956   21.6436 C   0  0  0  0  0  0  0  0  0  0  0  0
    9.1945   -6.3456   18.0616 C   0  0  0  0  0  0  0  0  0  0  0  0
    8.9985   -0.5658   24.9403 N   0  0  0  0  0  0  0  0  0  0  0  0
   10.5971   -3.7308   20.2972 C   0  0  0  0  0  0  0  0  0  0  0  0
  1  8  1  0
  1 12  4  0
  1 14  4  0
  2  3  4  0
  2 17  4  0
  3 20  4  0
  3 22  4  0
  4 11  4  0
  4 21  4  0
  5  6  4  0
  5 16  4  0
  6  9  4  0
  7 22  4  0
  7 26  4  0
  8 10  4  0
  8 25  4  0
  9 18  4  0
 10 21  4  0
 11 25  4  0
 12 23  4  0
 13 20  4  0
 13 26  4  0
 14 19  4  0
 15 16  4  0
 15 18  4  0
 17 24  4  0
 19 23  4  0
 20 24  4  0
 23 26  1  0
M  END
$$$$

 Created by Python create_sdf_string function

 26 50  0  0  0  0  0  0  0  0999 V2000
   10.4784   -1.5349   23.1132 C   0  0  0  0  0  0  0  0  0  0  0  0
    9.9983   -5.1059   16.1696 N   0  0  0  0  0  0  0  0  0  0  0  0
    9.7431   -4.3112   17.3777 F   0  0  0  0  0  0  0  0  0  0  0  0
    8.7224    1.6895   24.4292 C   0  0  0  0  0  0  0  0  0  0  0  0
    4.7457   -8.9000   16.8553 C   0  0  0  0  0  0  0  0  0  0  0  0
   10.4184   -2.6649   19.4584 C   0  0  0  0  0  0  0  0  0  0  0  0
   10.3196   -0.2869   23.9084 F   0  0  0  0  0  0  0  0  0  0  0  0
   10.5680   -1.9853   22.0094 N   0  0  0  0  0  0  0  0  0  0  0  0
    9.8080   -4.9253   19.6955 C   0  0  0  0  0  0  0  0  0  0  0  0
   10.0513   -3.0422   23.5661 N   0  0  0  0  0  0  0  0  0  0  0  0
    6.3602   -6.8884   16.7864 C   0  0  0  0  0  0  0  0  0  0  0  0
    6.0504   -8.7171   14.8727 C   0  0  0  0  0  0  0  0  0  0  0  0
    9.2812   -6.1632   16.7559 C   0  0  0  0  0  0  0  0  0  0  0  0
    7.9849   -6.4309   15.7541 C   0  0  0  0  0  0  0  0  0  0  0  0
   10.2109   -3.9957   22.9942 O   0  0  0  0  0  0  0  0  0  0  0  0
    9.6435   -5.3146   18.8253 C   0  0  0  0  0  0  0  0  0  0  0  0
    9.5265    1.4469   23.5114 N   0  0  0  0  0  0  0  0  0  0  0  0
   11.3005   -3.4989   17.8560 C   0  0  0  0  0  0  0  0  0  0  0  0
    9.3352   -6.8053   18.3200 C   0  0  0  0  0  0  0  0  0  0  0  0
    8.7090   -0.3463   25.2782 N   0  0  0  0  0  0  0  0  0  0  0  0
   10.1653   -3.5781   20.9274 C   0  0  0  0  0  0  0  0  0  0  0  0
    6.2106   -7.0613   18.0105 He  0  0  0  0  0  0  0  0  0  0  0  0
    6.5351   -8.1988   17.9031 He  0  0  0  0  0  0  0  0  0  0  0  0
    9.9069    0.5305   22.4476 He  0  0  0  0  0  0  0  0  0  0  0  0
    8.8194    0.8844   25.9020 He  0  0  0  0  0  0  0  0  0  0  0  0
   10.7906   -3.0744   21.5741 He  0  0  0  0  0  0  0  0  0  0  0  0
  1  8  4  0
  1 10  4  0
  1 15  4  0
  1 16  4  0
  1 19  3  0
  1 21  4  0
  2  3  4  0
  2  9  2  0
  2 12  4  0
  2 17  3  0
  2 19  4  0
  3 12  1  0
  3 18  4  0
  4  6  4  0
  4 16  2  0
  4 17  4  0
  4 20  2  0
  5  9  2  0
  5 12  4  0
  5 17  1  0
  5 19  4  0
  5 20  1  0
  5 21  3  0
  6 17  3  0
  6 18  4  0
  7 13  3  0
  7 16  1  0
  7 20  4  0
  8  9  1  0
  8 10  1  0
  8 11  1  0
  8 12  4  0
  8 14  4  0
  8 21  1  0
  9 16  4  0
  9 21  4  0
 10 15  2  0
 10 20  2  0
 10 21  2  0
 11 12  4  0
 11 19  2  0
 13 19  4  0
 14 15  4  0
 14 17  3  0
 14 19  1  0
 14 20  4  0
 14 21  2  0
 15 21  4  0
 16 19  4  0
 18 19  4  0
M  END
$$$$

 Created by Python create_sdf_string function

 26 29  0  0  0  0  0  0  0  0999 V2000
   10.2265   -1.7322   23.2616 C   0  0  0  0  0  0  0  0  0  0  0  0
    9.6841   -5.0482   16.4778 N   0  0  0  0  0  0  0  0  0  0  0  0
   10.1455   -4.5153   17.6991 C   0  0  0  0  0  0  0  0  0  0  0  0
    8.7819    1.8335   24.6245 C   0  0  0  0  0  0  0  0  0  0  0  0
    5.4140   -8.3377   16.8721 C   0  0  0  0  0  0  0  0  0  0  0  0
    6.4572   -7.7046   17.8738 C   0  0  0  0  0  0  0  0  0  0  0  0
   10.9738   -2.8980   19.1937 C   0  0  0  0  0  0  0  0  0  0  0  0
    9.8494   -0.4665   23.7773 C   0  0  0  0  0  0  0  0  0  0  0  0
    6.6209   -7.6338   17.6682 C   0  0  0  0  0  0  0  0  0  0  0  0
    9.9989    0.6612   22.9825 C   0  0  0  0  0  0  0  0  0  0  0  0
    8.7108    0.7465   25.4132 C   0  0  0  0  0  0  0  0  0  0  0  0
   10.6298   -1.9273   22.0408 N   0  0  0  0  0  0  0  0  0  0  0  0
   10.0889   -4.9809   19.9832 C   0  0  0  0  0  0  0  0  0  0  0  0
   10.1447   -2.8942   23.8832 N   0  0  0  0  0  0  0  0  0  0  0  0
    7.1575   -7.3923   15.8000 C   0  0  0  0  0  0  0  0  0  0  0  0
    5.9346   -8.1087   15.7362 C   0  0  0  0  0  0  0  0  0  0  0  0
    8.9168   -6.1551   16.8498 C   0  0  0  0  0  0  0  0  0  0  0  0
    7.8763   -6.8476   16.3430 C   0  0  0  0  0  0  0  0  0  0  0  0
   10.4243   -3.9245   22.8329 O   0  0  0  0  0  0  0  0  0  0  0  0
    9.8453   -5.3287   18.6845 C   0  0  0  0  0  0  0  0  0  0  0  0
    9.3956    1.8061   23.4324 N   0  0  0  0  0  0  0  0  0  0  0  0
   10.7892   -3.3493   17.9643 C   0  0  0  0  0  0  0  0  0  0  0  0
   10.5836   -3.2587   21.6761 C   0  0  0  0  0  0  0  0  0  0  0  0
    9.1876   -6.4643   18.1206 C   0  0  0  0  0  0  0  0  0  0  0  0
    9.2555   -0.4524   25.0296 N   0  0  0  0  0  0  0  0  0  0  0  0
   10.5685   -3.6842   20.3148 C   0  0  0  0  0  0  0  0  0  0  0  0
  1  8  1  0
  1 12  4  0
  1 14  4  0
  2  3  4  0
  2 17  4  0
  3 20  4  0
  3 22  4  0
  4 11  4  0
  4 21  4  0
  5  6  4  0
  5 16  4  0
  6  9  4  0
  7 22  4  0
  7 26  4  0
  8 10  4  0
  8 25  4  0
 10 21  4  0
 11 25  4  0
 12 23  4  0
 13 20  4  0
 13 26  4  0
 14 19  4  0
 15 16  4  0
 15 18  4  0
 17 18  4  0
 17 24  4  0
 19 23  4  0
 20 24  4  0
 23 26  1  0
M  END
$$$$

 Created by Python create_sdf_string function

 26 58  0  0  0  0  0  0  0  0999 V2000
    9.9286   -1.4730   23.2699 C   0  0  0  0  0  0  0  0  0  0  0  0
    9.7453   -4.9752   16.3440 N   0  0  0  0  0  0  0  0  0  0  0  0
    8.4178    1.7370   24.5717 Se  0  0  0  0  0  0  0  0  0  0  0  0
    5.2828   -6.8269   16.5334 Cl  0  0  0  0  0  0  0  0  0  0  0  0
   10.0985   -0.0316   23.7548 C   0  0  0  0  0  0  0  0  0  0  0  0
    5.5393   -7.3168   16.8941 F   0  0  0  0  0  0  0  0  0  0  0  0
   10.2911    0.4710   22.5875 C   0  0  0  0  0  0  0  0  0  0  0  0
    8.5006    0.8656   24.7778 C   0  0  0  0  0  0  0  0  0  0  0  0
   10.5157   -2.3918   21.4103 N   0  0  0  0  0  0  0  0  0  0  0  0
   10.0813   -4.5998   20.1967 C   0  0  0  0  0  0  0  0  0  0  0  0
   10.2964   -2.7825   23.7230 N   0  0  0  0  0  0  0  0  0  0  0  0
    7.3244   -7.2915   14.7971 C   0  0  0  0  0  0  0  0  0  0  0  0
    6.8433   -8.3487   16.8707 Br  0  0  0  0  0  0  0  0  0  0  0  0
    8.8713   -6.2803   17.1192 C   0  0  0  0  0  0  0  0  0  0  0  0
    7.2718   -6.6530   15.6091 C   0  0  0  0  0  0  0  0  0  0  0  0
    9.2117   -5.5000   18.9129 C   0  0  0  0  0  0  0  0  0  0  0  0
    8.7764    2.0616   23.9115 C   0  0  0  0  0  0  0  0  0  0  0  0
   10.3771   -3.4444   17.9360 Cl  0  0  0  0  0  0  0  0  0  0  0  0
   10.8802   -3.0051   22.2371 C   0  0  0  0  0  0  0  0  0  0  0  0
    9.5325   -6.9193   17.8652 C   0  0  0  0  0  0  0  0  0  0  0  0
   10.1471   -3.3814   20.0651 C   0  0  0  0  0  0  0  0  0  0  0  0
    9.7504   -4.6610   17.5785 He  0  0  0  0  0  0  0  0  0  0  0  0
    6.7042   -6.8934   17.0041 He  0  0  0  0  0  0  0  0  0  0  0  0
   10.7658   -2.6666   19.0774 He  0  0  0  0  0  0  0  0  0  0  0  0
   10.4218   -3.5489   22.8439 He  0  0  0  0  0  0  0  0  0  0  0  0
    9.5511   -0.7544   25.1910 He  0  0  0  0  0  0  0  0  0  0  0  0
  1  4  1  0
  1  6  3  0
  1  9  4  0
  1 10  1  0
  1 11  4  0
  1 13  4  0
  1 21  2  0
  2  6  4  0
  2  7  2  0
  2 14  4  0
  2 15  2  0
  2 19  2  0
  3  7  2  0
  3  8  4  0
  3 14  1  0
  3 15  2  0
  3 17  1  0
  3 18  2  0
  3 19  2  0
  4  7  2  0
  4 10  2  0
  4 12  2  0
  4 20  4  0
  4 21  4  0
  5  6  1  0
  5  7  4  0
  5 11  4  0
  6  7  1  0
  6  9  4  0
  6 16  1  0
  6 18  2  0
  6 19  2  0
  7 15  2  0
  7 17  4  0
  8 15  3  0
  9 10  3  0
  9 12  1  0
  9 15  2  0
  9 16  3  0
  9 19  4  0
 10 14  2  0
 10 16  4  0
 10 21  4  0
 11 15  2  0
 11 17  2  0
 12 13  4  0
 12 15  3  0
 12 16  4  0
 12 21  1  0
 13 14  3  0
 13 19  4  0
 14 15  4  0
 14 20  4  0
 15 17  3  0
 15 18  4  0
 15 19  3  0
 16 20  4  0
 19 21  1  0
M  END
$$$$

 Created by Python create_sdf_string function

 26 29  0  0  0  0  0  0  0  0999 V2000
   10.2670   -1.6018   23.1763 C   0  0  0  0  0  0  0  0  0  0  0  0
    9.5012   -5.1192   16.5122 N   0  0  0  0  0  0  0  0  0  0  0  0
   10.0044   -4.5667   17.6616 C   0  0  0  0  0  0  0  0  0  0  0  0
    8.5124    1.8055   24.5432 N   0  0  0  0  0  0  0  0  0  0  0  0
    5.7732   -7.6800   16.6925 C   0  0  0  0  0  0  0  0  0  0  0  0
    6.3031   -7.2656   17.3317 C   0  0  0  0  0  0  0  0  0  0  0  0
   10.8223   -2.8845   19.1753 C   0  0  0  0  0  0  0  0  0  0  0  0
    9.8175   -0.3733   23.7505 C   0  0  0  0  0  0  0  0  0  0  0  0
    5.5502   -7.8319   17.0506 C   0  0  0  0  0  0  0  0  0  0  0  0
    9.9749    0.7342   23.0082 C   0  0  0  0  0  0  0  0  0  0  0  0
    8.5262    0.7342   25.3386 C   0  0  0  0  0  0  0  0  0  0  0  0
   10.5514   -1.8303   21.9156 N   0  0  0  0  0  0  0  0  0  0  0  0
   10.1193   -4.9348   20.0325 C   0  0  0  0  0  0  0  0  0  0  0  0
   10.3119   -2.7627   23.8158 N   0  0  0  0  0  0  0  0  0  0  0  0
    7.6715   -7.6823   15.5610 C   0  0  0  0  0  0  0  0  0  0  0  0
    7.0414   -8.1931   16.4316 C   0  0  0  0  0  0  0  0  0  0  0  0
    8.8915   -6.2445   16.9104 C   0  0  0  0  0  0  0  0  0  0  0  0
    7.9880   -6.9207   16.1373 C   0  0  0  0  0  0  0  0  0  0  0  0
   10.5074   -3.8695   22.6828 O   0  0  0  0  0  0  0  0  0  0  0  0
    9.8310   -5.4310   18.7524 C   0  0  0  0  0  0  0  0  0  0  0  0
    9.2662    1.8685   23.4136 C   0  0  0  0  0  0  0  0  0  0  0  0
   10.5857   -3.3379   17.8352 C   0  0  0  0  0  0  0  0  0  0  0  0
   10.5560   -3.1877   21.5775 C   0  0  0  0  0  0  0  0  0  0  0  0
    9.2917   -6.5356   18.2158 C   0  0  0  0  0  0  0  0  0  0  0  0
    9.1934   -0.4125   24.9454 C   0  0  0  0  0  0  0  0  0  0  0  0
   10.5214   -3.6603   20.2257 C   0  0  0  0  0  0  0  0  0  0  0  0
  1  8  1  0
  1 12  4  0
  1 14  4  0
  2  3  4  0
  2 17  4  0
  3 20  4  0
  3 22  4  0
  4 11  4  0
  4 21  4  0
  5  6  4  0
  5  9  4  0
  6  9  4  0
  7 22  4  0
  7 26  4  0
  8 10  4  0
  8 25  4  0
 10 21  4  0
 11 25  4  0
 12 23  4  0
 13 20  4  0
 13 26  4  0
 14 19  4  0
 15 16  4  0
 15 18  4  0
 17 18  4  0
 17 24  4  0
 19 23  4  0
 20 24  4  0
 23 26  1  0
M  END
$$$$

 Created by Python create_sdf_string function

 26 73  0  0  0  0  0  0  0  0999 V2000
   10.2593   -1.4347   23.4767 C   0  0  0  0  0  0  0  0  0  0  0  0
    9.3935   -4.7662   16.2880 N   0  0  0  0  0  0  0  0  0  0  0  0
    9.3293   -4.6353   17.9816 F   0  0  0  0  0  0  0  0  0  0  0  0
    8.1379    1.6941   24.4307 N   0  0  0  0  0  0  0  0  0  0  0  0
    5.1394   -8.7702   15.8934 Br  0  0  0  0  0  0  0  0  0  0  0  0
    7.2952   -6.0524   17.2998 C   0  0  0  0  0  0  0  0  0  0  0  0
   10.7794   -2.7307   19.4929 C   0  0  0  0  0  0  0  0  0  0  0  0
    9.9039   -0.2925   23.7268 S   0  0  0  0  0  0  0  0  0  0  0  0
    9.9642    0.4104   22.5364 C   0  0  0  0  0  0  0  0  0  0  0  0
    8.8520    0.5943   25.4351 C   0  0  0  0  0  0  0  0  0  0  0  0
   10.1664   -1.7554   22.0667 N   0  0  0  0  0  0  0  0  0  0  0  0
   10.0507   -5.2032   20.0601 C   0  0  0  0  0  0  0  0  0  0  0  0
   10.5510   -2.6612   24.1210 N   0  0  0  0  0  0  0  0  0  0  0  0
    6.4082   -8.5992   16.0908 O   0  0  0  0  0  0  0  0  0  0  0  0
    8.8478   -6.3322   16.5438 C   0  0  0  0  0  0  0  0  0  0  0  0
    8.3103   -7.6201   17.1577 N   0  0  0  0  0  0  0  0  0  0  0  0
    9.6615   -5.0123   18.0587 O   0  0  0  0  0  0  0  0  0  0  0  0
    8.8460    1.8713   23.5690 I   0  0  0  0  0  0  0  0  0  0  0  0
   10.6774   -3.5347   17.6589 C   0  0  0  0  0  0  0  0  0  0  0  0
   10.5134   -3.2369   21.5950 C   0  0  0  0  0  0  0  0  0  0  0  0
    9.6045   -6.8831   18.4106 P   0  0  0  0  0  0  0  0  0  0  0  0
    9.4418   -0.1559   24.8297 C   0  0  0  0  0  0  0  0  0  0  0  0
   10.8007   -3.7304   20.0901 C   0  0  0  0  0  0  0  0  0  0  0  0
    5.3753   -7.1641   15.6452 He  0  0  0  0  0  0  0  0  0  0  0  0
    8.3696   -8.0473   15.7937 He  0  0  0  0  0  0  0  0  0  0  0  0
   10.4354   -3.9189   22.3741 He  0  0  0  0  0  0  0  0  0  0  0  0
  1  5  2  0
  1  6  2  0
  1  8  3  0
  1 10  4  0
  1 11  4  0
  1 13  4  0
  1 18  4  0
  1 22  3  0
  2  3  4  0
  2 15  4  0
  2 18  2  0
  2 21  4  0
  3  5  4  0
  3  7  3  0
  3  8  4  0
  3 16  2  0
  3 17  4  0
  3 19  4  0
  4  9  4  0
  4 10  4  0
  4 14  2  0
  5  6  4  0
  5  7  1  0
  5  8  3  0
  5 10  2  0
  5 18  2  0
  5 20  1  0
  5 22  1  0
  6  8  2  0
  6  9  2  0
  6 10  4  0
  6 13  1  0
  6 19  4  0
  6 20  3  0
  7 15  1  0
  7 23  4  0
  8  9  4  0
  8 12  4  0
  8 14  1  0
  8 16  3  0
  8 22  4  0
  9 11  4  0
  9 14  4  0
  9 18  4  0
  9 21  1  0
 10 13  3  0
 10 14  4  0
 10 15  2  0
 10 16  3  0
 10 18  1  0
 10 22  2  0
 11 13  1  0
 11 16  1  0
 11 20  4  0
 11 21  2  0
 12 16  4  0
 12 17  4  0
 12 23  4  0
 13 14  1  0
 13 19  3  0
 13 20  4  0
 14 17  4  0
 14 18  3  0
 14 22  1  0
 15 18  2  0
 16 19  2  0
 16 21  3  0
 16 22  1  0
 16 23  3  0
 17 19  1  0
 17 21  4  0
 18 20  4  0
 19 23  1  0
M  END
$$$$

 Created by Python create_sdf_string function

 26 29  0  0  0  0  0  0  0  0999 V2000
   10.2589   -1.6416   23.2415 C   0  0  0  0  0  0  0  0  0  0  0  0
    9.2873   -4.9092   16.5580 N   0  0  0  0  0  0  0  0  0  0  0  0
    9.9650   -4.4889   17.6706 C   0  0  0  0  0  0  0  0  0  0  0  0
    8.4227    1.8572   24.5251 N   0  0  0  0  0  0  0  0  0  0  0  0
    5.6672   -8.2904   16.1667 C   0  0  0  0  0  0  0  0  0  0  0  0
    7.2411   -6.4745   16.2870 C   0  0  0  0  0  0  0  0  0  0  0  0
   10.8250   -2.9434   19.2456 C   0  0  0  0  0  0  0  0  0  0  0  0
    9.8299   -0.3735   23.8017 C   0  0  0  0  0  0  0  0  0  0  0  0
    5.9586   -7.2639   16.1907 C   0  0  0  0  0  0  0  0  0  0  0  0
    9.8646    0.7131   22.9922 C   0  0  0  0  0  0  0  0  0  0  0  0
    8.5398    0.8078   25.3929 C   0  0  0  0  0  0  0  0  0  0  0  0
   10.5630   -1.9284   21.9742 N   0  0  0  0  0  0  0  0  0  0  0  0
   10.2401   -5.0813   20.0064 C   0  0  0  0  0  0  0  0  0  0  0  0
   10.3530   -2.7883   23.8789 N   0  0  0  0  0  0  0  0  0  0  0  0
    8.0009   -8.3771   16.2012 C   0  0  0  0  0  0  0  0  0  0  0  0
    6.7850   -8.7619   16.0019 C   0  0  0  0  0  0  0  0  0  0  0  0
    8.6348   -6.0521   16.5693 C   0  0  0  0  0  0  0  0  0  0  0  0
    8.4458   -7.5170   16.9062 C   0  0  0  0  0  0  0  0  0  0  0  0
   10.5604   -3.9286   22.7855 O   0  0  0  0  0  0  0  0  0  0  0  0
    9.9422   -5.4772   18.6628 C   0  0  0  0  0  0  0  0  0  0  0  0
    9.0663    1.8222   23.3342 C   0  0  0  0  0  0  0  0  0  0  0  0
   10.5107   -3.3081   17.9045 C   0  0  0  0  0  0  0  0  0  0  0  0
   10.6128   -3.2323   21.6501 C   0  0  0  0  0  0  0  0  0  0  0  0
    9.4953   -6.7403   18.2859 S   0  0  0  0  0  0  0  0  0  0  0  0
    9.2916   -0.3231   25.0470 C   0  0  0  0  0  0  0  0  0  0  0  0
   10.5946   -3.7687   20.2679 C   0  0  0  0  0  0  0  0  0  0  0  0
  1  8  1  0
  1 12  4  0
  1 14  4  0
  2  3  4  0
  2 17  4  0
  3 20  4  0
  3 22  4  0
  4 11  4  0
  4 21  4  0
  5  9  4  0
  5 16  4  0
  6  9  4  0
  6 17  4  0
  7 22  4  0
  7 26  4  0
  8 10  4  0
  8 25  4  0
 10 21  4  0
 11 25  4  0
 12 23  4  0
 13 20  4  0
 13 26  4  0
 14 19  4  0
 15 16  4  0
 15 18  4  0
 17 24  4  0
 19 23  4  0
 20 24  4  0
 23 26  1  0
M  END
$$$$

 Created by Python create_sdf_string function

 26 35  0  0  0  0  0  0  0  0999 V2000
   10.4192   -1.2069   23.1746 C   0  0  0  0  0  0  0  0  0  0  0  0
    9.4567   -4.7446   16.5081 N   0  0  0  0  0  0  0  0  0  0  0  0
   10.0823   -4.6678   17.6221 C   0  0  0  0  0  0  0  0  0  0  0  0
    8.0701    1.6119   24.4679 N   0  0  0  0  0  0  0  0  0  0  0  0
    7.9260   -6.0791   15.9722 C   0  0  0  0  0  0  0  0  0  0  0  0
   10.5170   -2.6781   18.6712 C   0  0  0  0  0  0  0  0  0  0  0  0
    9.8716   -0.9972   23.4627 C   0  0  0  0  0  0  0  0  0  0  0  0
    9.8936    0.5666   23.0746 C   0  0  0  0  0  0  0  0  0  0  0  0
    8.7108    0.8933   25.5346 C   0  0  0  0  0  0  0  0  0  0  0  0
   10.9527   -1.9712   21.2779 Cl  0  0  0  0  0  0  0  0  0  0  0  0
   10.6352   -4.6297   19.7651 C   0  0  0  0  0  0  0  0  0  0  0  0
   10.2911   -2.7712   24.0938 N   0  0  0  0  0  0  0  0  0  0  0  0
    9.0387   -7.8751   15.7168 O   0  0  0  0  0  0  0  0  0  0  0  0
    8.8020   -6.1226   16.7479 Br  0  0  0  0  0  0  0  0  0  0  0  0
   10.7467   -4.2223   22.5058 O   0  0  0  0  0  0  0  0  0  0  0  0
    8.7170    1.8761   23.4629 C   0  0  0  0  0  0  0  0  0  0  0  0
   10.3039   -3.1347   17.8907 C   0  0  0  0  0  0  0  0  0  0  0  0
    9.3806   -6.5244   18.6044 S   0  0  0  0  0  0  0  0  0  0  0  0
   10.6901   -3.7623   19.7441 C   0  0  0  0  0  0  0  0  0  0  0  0
    4.9654   -8.0082   16.0468 He  0  0  0  0  0  0  0  0  0  0  0  0
    4.7262   -7.3642   18.1078 He  0  0  0  0  0  0  0  0  0  0  0  0
    5.2273   -8.8418   15.8503 He  0  0  0  0  0  0  0  0  0  0  0  0
    8.2106   -7.6664   17.4431 He  0  0  0  0  0  0  0  0  0  0  0  0
    9.8249   -5.5349   18.5166 He  0  0  0  0  0  0  0  0  0  0  0  0
   10.8431   -2.8207   21.6995 He  0  0  0  0  0  0  0  0  0  0  0  0
    9.5583   -0.2530   24.8232 He  0  0  0  0  0  0  0  0  0  0  0  0
  1  7  1  0
  1 10  4  0
  1 12  4  0
  1 13  3  0
  2  3  4  0
  2  5  2  0
  2  8  4  0
  3  5  2  0
  3 17  4  0
  4  6  2  0
  4  9  4  0
  4 16  4  0
  5  7  4  0
  5  9  1  0
  5 11  3  0
  5 13  3  0
  5 14  3  0
  5 16  3  0
  5 17  1  0
  5 18  3  0
  6  8  3  0
  6 17  4  0
  6 19  3  0
  7  8  4  0
  7 18  1  0
  8 16  4  0
 11 14  3  0
 12 15  4  0
 12 16  3  0
 12 18  1  0
 13 15  1  0
 13 19  1  0
 14 18  4  0
 15 18  1  0
 15 19  1  0
M  END
$$$$

 Created by Python create_sdf_string function

 26 29  0  0  0  0  0  0  0  0999 V2000
   10.3540   -1.6540   23.1542 C   0  0  0  0  0  0  0  0  0  0  0  0
    9.3229   -4.9279   16.5460 N   0  0  0  0  0  0  0  0  0  0  0  0
    9.9983   -4.4312   17.5998 C   0  0  0  0  0  0  0  0  0  0  0  0
    8.3967    1.7300   24.6022 N   0  0  0  0  0  0  0  0  0  0  0  0
    5.5319   -8.1918   16.7907 C   0  0  0  0  0  0  0  0  0  0  0  0
    7.6640   -6.8128   16.5127 C   0  0  0  0  0  0  0  0  0  0  0  0
   10.9634   -2.7869   19.0804 C   0  0  0  0  0  0  0  0  0  0  0  0
    9.8648   -0.4263   23.7366 C   0  0  0  0  0  0  0  0  0  0  0  0
    5.6874   -7.7356   17.3836 C   0  0  0  0  0  0  0  0  0  0  0  0
    9.8003    0.7181   22.9355 C   0  0  0  0  0  0  0  0  0  0  0  0
    8.5884    0.6670   25.4226 C   0  0  0  0  0  0  0  0  0  0  0  0
   10.7327   -1.8495   21.9076 N   0  0  0  0  0  0  0  0  0  0  0  0
   10.4067   -4.9270   19.8916 C   0  0  0  0  0  0  0  0  0  0  0  0
   10.3943   -2.8713   23.7111 N   0  0  0  0  0  0  0  0  0  0  0  0
    7.8296   -8.0207   16.1479 C   0  0  0  0  0  0  0  0  0  0  0  0
    6.0854   -8.5457   16.2227 C   0  0  0  0  0  0  0  0  0  0  0  0
    8.8076   -6.1602   16.9382 C   0  0  0  0  0  0  0  0  0  0  0  0
    7.4896   -8.1054   17.1172 C   0  0  0  0  0  0  0  0  0  0  0  0
   10.6730   -3.8847   22.5868 O   0  0  0  0  0  0  0  0  0  0  0  0
    9.9768   -5.3274   18.6281 C   0  0  0  0  0  0  0  0  0  0  0  0
    8.9937    1.7843   23.3696 C   0  0  0  0  0  0  0  0  0  0  0  0
   10.5907   -3.2100   17.7629 C   0  0  0  0  0  0  0  0  0  0  0  0
   10.7881   -3.1594   21.4933 C   0  0  0  0  0  0  0  0  0  0  0  0
    9.4424   -6.6998   18.2959 S   0  0  0  0  0  0  0  0  0  0  0  0
    9.3406   -0.4397   25.0080 C   0  0  0  0  0  0  0  0  0  0  0  0
   10.7715   -3.6257   20.1302 C   0  0  0  0  0  0  0  0  0  0  0  0
  1  8  1  0
  1 12  4  0
  1 14  4  0
  2  3  4  0
  2 17  4  0
  3 20  4  0
  3 22  4  0
  4 11  4  0
  4 21  4  0
  5  9  4  0
  5 16  4  0
  6 15  4  0
  6 17  1  0
  7 22  4  0
  7 26  4  0
  8 10  4  0
  8 25  4  0
 10 21  4  0
 11 25  4  0
 12 23  4  0
 13 20  4  0
 13 26  4  0
 14 19  4  0
 15 16  4  0
 15 18  4  0
 17 24  4  0
 19 23  4  0
 20 24  4  0
 23 26  1  0
M  END
$$$$

 Created by Python create_sdf_string function

 26 43  0  0  0  0  0  0  0  0999 V2000
   10.0680   -1.9377   23.3855 N   0  0  0  0  0  0  0  0  0  0  0  0
    9.0770   -4.9761   16.3764 N   0  0  0  0  0  0  0  0  0  0  0  0
   10.1361   -4.5420   17.5541 C   0  0  0  0  0  0  0  0  0  0  0  0
    8.7786    1.5429   24.4967 N   0  0  0  0  0  0  0  0  0  0  0  0
    7.9342   -6.2976   17.0453 N   0  0  0  0  0  0  0  0  0  0  0  0
   10.7462   -2.6949   18.8971 C   0  0  0  0  0  0  0  0  0  0  0  0
    9.8153   -0.2862   23.3643 C   0  0  0  0  0  0  0  0  0  0  0  0
    9.9350    0.7173   23.2086 C   0  0  0  0  0  0  0  0  0  0  0  0
    8.6504    0.9252   25.4694 C   0  0  0  0  0  0  0  0  0  0  0  0
   11.2675   -1.8726   21.9130 N   0  0  0  0  0  0  0  0  0  0  0  0
   10.4514   -4.8800   19.8717 C   0  0  0  0  0  0  0  0  0  0  0  0
   10.4906   -2.6943   24.3098 N   0  0  0  0  0  0  0  0  0  0  0  0
    8.8640   -6.4068   17.0308 C   0  0  0  0  0  0  0  0  0  0  0  0
    7.7015   -8.2574   17.2849 Cl  0  0  0  0  0  0  0  0  0  0  0  0
   10.5802   -3.3967   22.7442 O   0  0  0  0  0  0  0  0  0  0  0  0
    9.6314   -5.0088   18.3586 C   0  0  0  0  0  0  0  0  0  0  0  0
    9.3565    2.0590   23.0090 C   0  0  0  0  0  0  0  0  0  0  0  0
   10.1278   -3.3920   17.8677 C   0  0  0  0  0  0  0  0  0  0  0  0
   10.6304   -3.5866   21.1244 C   0  0  0  0  0  0  0  0  0  0  0  0
    9.4212   -6.7284   18.3266 S   0  0  0  0  0  0  0  0  0  0  0  0
    9.8454   -0.5089   25.3892 C   0  0  0  0  0  0  0  0  0  0  0  0
    5.3893   -8.0846   16.5987 He  0  0  0  0  0  0  0  0  0  0  0  0
    7.0384   -7.3079   18.4570 He  0  0  0  0  0  0  0  0  0  0  0  0
    8.4379   -7.4866   17.6373 He  0  0  0  0  0  0  0  0  0  0  0  0
    5.5407   -8.5175   15.2869 He  0  0  0  0  0  0  0  0  0  0  0  0
   10.9606   -3.7651   19.7007 He  0  0  0  0  0  0  0  0  0  0  0  0
  1  9  2  0
  1 10  4  0
  1 12  4  0
  1 21  2  0
  2  3  4  0
  2 14  2  0
  2 15  2  0
  2 17  1  0
  2 21  3  0
  3  6  1  0
  3 11  1  0
  3 18  4  0
  4  9  4  0
  4 11  2  0
  4 15  2  0
  4 17  4  0
  4 19  2  0
  5  8  1  0
  5 12  2  0
  5 14  4  0
  5 16  4  0
  6 18  4  0
  7  8  4  0
  7 13  2  0
  7 21  4  0
  8 12  2  0
  8 14  4  0
  8 17  4  0
  9 13  3  0
  9 14  1  0
  9 21  4  0
 10 18  2  0
 10 19  4  0
 11 13  1  0
 11 16  4  0
 12 15  2  0
 13 17  2  0
 13 18  3  0
 13 20  4  0
 14 16  1  0
 15 19  3  0
 16 20  4  0
 17 21  4  0
M  END
$$$$

 Created by Python create_sdf_string function

 26 28  0  0  0  0  0  0  0  0999 V2000
   10.4139   -1.7153   23.1562 C   0  0  0  0  0  0  0  0  0  0  0  0
    9.2269   -5.0188   16.5627 N   0  0  0  0  0  0  0  0  0  0  0  0
    9.9303   -4.4615   17.5890 C   0  0  0  0  0  0  0  0  0  0  0  0
    8.7463    1.8465   24.5454 N   0  0  0  0  0  0  0  0  0  0  0  0
    5.6181   -8.2381   16.8198 C   0  0  0  0  0  0  0  0  0  0  0  0
    7.7545   -6.8777   16.5026 C   0  0  0  0  0  0  0  0  0  0  0  0
   10.8964   -2.8194   19.0416 C   0  0  0  0  0  0  0  0  0  0  0  0
    9.9726   -0.4689   23.7317 C   0  0  0  0  0  0  0  0  0  0  0  0
    6.3509   -7.5644   17.8182 C   0  0  0  0  0  0  0  0  0  0  0  0
    9.9985    0.6513   22.9126 C   0  0  0  0  0  0  0  0  0  0  0  0
    8.8083    0.8153   25.4091 C   0  0  0  0  0  0  0  0  0  0  0  0
   10.7418   -1.9037   21.8693 N   0  0  0  0  0  0  0  0  0  0  0  0
   10.3675   -4.9595   19.9139 C   0  0  0  0  0  0  0  0  0  0  0  0
   10.4455   -2.8956   23.7704 N   0  0  0  0  0  0  0  0  0  0  0  0
    7.5973   -8.1364   17.2729 C   0  0  0  0  0  0  0  0  0  0  0  0
    5.9903   -8.5302   16.1596 C   0  0  0  0  0  0  0  0  0  0  0  0
    8.7739   -6.2318   16.9862 C   0  0  0  0  0  0  0  0  0  0  0  0
    7.6282   -8.3786   16.4972 C   0  0  0  0  0  0  0  0  0  0  0  0
   10.6647   -3.9246   22.6875 O   0  0  0  0  0  0  0  0  0  0  0  0
    9.9422   -5.3425   18.6365 C   0  0  0  0  0  0  0  0  0  0  0  0
    9.3205    1.8056   23.3160 C   0  0  0  0  0  0  0  0  0  0  0  0
   10.4994   -3.2359   17.7224 C   0  0  0  0  0  0  0  0  0  0  0  0
   10.7673   -3.1992   21.4949 C   0  0  0  0  0  0  0  0  0  0  0  0
    9.3984   -6.7097   18.3194 S   0  0  0  0  0  0  0  0  0  0  0  0
    9.4320   -0.3896   25.0110 C   0  0  0  0  0  0  0  0  0  0  0  0
   10.7041   -3.6709   20.1107 C   0  0  0  0  0  0  0  0  0  0  0  0
  1  8  1  0
  1 12  4  0
  1 14  4  0
  2  3  4  0
  2 17  4  0
  3 20  4  0
  3 22  4  0
  4 11  4  0
  4 21  4  0
  5  9  4  0
  5 16  4  0
  6 17  4  0
  7 22  4  0
  7 26  4  0
  8 10  4  0
  8 25  4  0
  9 15  4  0
 10 21  4  0
 11 25  4  0
 12 23  4  0
 13 20  4  0
 13 26  4  0
 14 19  4  0
 15 18  1  0
 17 24  4  0
 19 23  4  0
 20 24  4  0
 23 26  1  0
M  END
$$$$

 Created by Python create_sdf_string function

 26 48  0  0  0  0  0  0  0  0999 V2000
   10.6924   -1.9584   22.9510 O   0  0  0  0  0  0  0  0  0  0  0  0
    9.9873   -4.9060   16.7524 N   0  0  0  0  0  0  0  0  0  0  0  0
    9.7277   -4.6081   17.5047 Se  0  0  0  0  0  0  0  0  0  0  0  0
    8.7487    1.4304   24.6123 N   0  0  0  0  0  0  0  0  0  0  0  0
    6.7909   -7.5759   16.9643 C   0  0  0  0  0  0  0  0  0  0  0  0
   10.9042   -3.1073   19.0995 C   0  0  0  0  0  0  0  0  0  0  0  0
    6.1265   -8.0942   18.1304 N   0  0  0  0  0  0  0  0  0  0  0  0
   10.2762    1.1104   23.0541 C   0  0  0  0  0  0  0  0  0  0  0  0
   10.4986   -1.9496   21.9661 N   0  0  0  0  0  0  0  0  0  0  0  0
   10.2246   -5.0379   20.0476 N   0  0  0  0  0  0  0  0  0  0  0  0
   10.1529   -2.9850   24.0036 O   0  0  0  0  0  0  0  0  0  0  0  0
    7.5687   -7.9492   15.9864 C   0  0  0  0  0  0  0  0  0  0  0  0
    7.3027   -8.0047   16.4378 C   0  0  0  0  0  0  0  0  0  0  0  0
    9.0373   -6.1108   16.7121 N   0  0  0  0  0  0  0  0  0  0  0  0
    7.2865   -7.3638   16.6348 C   0  0  0  0  0  0  0  0  0  0  0  0
   10.8653   -3.4908   22.8221 O   0  0  0  0  0  0  0  0  0  0  0  0
   10.1188   -5.1188   18.7805 C   0  0  0  0  0  0  0  0  0  0  0  0
   10.4672   -3.0483   17.9905 C   0  0  0  0  0  0  0  0  0  0  0  0
   10.9395   -3.3211   21.7351 C   0  0  0  0  0  0  0  0  0  0  0  0
    9.2355   -6.5427   18.1349 S   0  0  0  0  0  0  0  0  0  0  0  0
    9.4109   -0.3831   25.0394 C   0  0  0  0  0  0  0  0  0  0  0  0
   10.6043   -3.8966   20.0574 C   0  0  0  0  0  0  0  0  0  0  0  0
    7.3049   -6.6485   16.7699 He  0  0  0  0  0  0  0  0  0  0  0  0
    9.7641   -0.2875   23.8531 He  0  0  0  0  0  0  0  0  0  0  0  0
    8.8515    0.4501   25.5743 He  0  0  0  0  0  0  0  0  0  0  0  0
    8.9970    1.4929   23.4984 He  0  0  0  0  0  0  0  0  0  0  0  0
  1  9  4  0
  1 11  4  0
  1 21  2  0
  2  3  2  0
  2  4  4  0
  2  5  4  0
  2  7  3  0
  2 14  4  0
  2 21  4  0
  3 12  4  0
  3 18  4  0
  5  6  2  0
  5 10  1  0
  5 11  1  0
  5 12  3  0
  5 15  1  0
  5 19  2  0
  5 21  1  0
  6  7  2  0
  6 12  4  0
  6 15  4  0
  6 22  4  0
  7  9  3  0
  7 12  4  0
  7 15  4  0
  7 19  4  0
  8 10  2  0
  8 15  2  0
  9 11  1  0
  9 12  1  0
  9 19  1  0
 10 12  3  0
 10 13  1  0
 10 17  4  0
 10 22  4  0
 11 12  4  0
 11 13  3  0
 11 15  2  0
 12 18  1  0
 13 14  1  0
 13 22  1  0
 14 20  1  0
 15 20  1  0
 16 19  4  0
 17 20  4  0
 19 22  1  0
 20 22  3  0
 21 22  4  0
M  END
$$$$

 Created by Python create_sdf_string function

 26 28  0  0  0  0  0  0  0  0999 V2000
   10.3552   -1.7549   23.2028 C   0  0  0  0  0  0  0  0  0  0  0  0
    9.6001   -4.8187   16.5056 N   0  0  0  0  0  0  0  0  0  0  0  0
   10.1007   -4.4257   17.6986 C   0  0  0  0  0  0  0  0  0  0  0  0
    8.6163    1.6817   24.7087 N   0  0  0  0  0  0  0  0  0  0  0  0
    6.4221   -8.3809   16.9084 C   0  0  0  0  0  0  0  0  0  0  0  0
    8.1712   -6.8352   16.6809 C   0  0  0  0  0  0  0  0  0  0  0  0
   10.9280   -2.8396   19.2739 C   0  0  0  0  0  0  0  0  0  0  0  0
    9.9077   -0.5350   23.7884 C   0  0  0  0  0  0  0  0  0  0  0  0
    6.1811   -8.1793   17.6700 C   0  0  0  0  0  0  0  0  0  0  0  0
    9.9616    0.6505   23.0394 C   0  0  0  0  0  0  0  0  0  0  0  0
    8.6631    0.6126   25.5101 C   0  0  0  0  0  0  0  0  0  0  0  0
   10.7106   -1.9392   21.9743 N   0  0  0  0  0  0  0  0  0  0  0  0
   10.2849   -4.9961   20.0348 C   0  0  0  0  0  0  0  0  0  0  0  0
   10.4132   -2.9258   23.8260 N   0  0  0  0  0  0  0  0  0  0  0  0
    7.1676   -8.1976   16.2134 C   0  0  0  0  0  0  0  0  0  0  0  0
    7.3903   -7.7562   16.2863 C   0  0  0  0  0  0  0  0  0  0  0  0
    8.9695   -5.8833   16.4539 C   0  0  0  0  0  0  0  0  0  0  0  0
    6.6331   -7.8311   17.2712 C   0  0  0  0  0  0  0  0  0  0  0  0
   10.6371   -3.9500   22.7881 O   0  0  0  0  0  0  0  0  0  0  0  0
    9.9053   -5.3014   18.7120 C   0  0  0  0  0  0  0  0  0  0  0  0
    9.2716    1.7626   23.5224 C   0  0  0  0  0  0  0  0  0  0  0  0
   10.6977   -3.2176   17.9254 C   0  0  0  0  0  0  0  0  0  0  0  0
   10.7173   -3.2848   21.6466 C   0  0  0  0  0  0  0  0  0  0  0  0
    9.2111   -6.5691   18.3277 S   0  0  0  0  0  0  0  0  0  0  0  0
    9.3637   -0.5299   25.0884 C   0  0  0  0  0  0  0  0  0  0  0  0
   10.6748   -3.7041   20.3024 C   0  0  0  0  0  0  0  0  0  0  0  0
  1  8  1  0
  1 12  4  0
  1 14  4  0
  2  3  4  0
  2 17  4  0
  3 20  4  0
  3 22  4  0
  4 11  4  0
  4 21  4  0
  5  9  4  0
  6 16  4  0
  6 17  4  0
  6 24  4  0
  7 22  4  0
  7 26  4  0
  8 10  4  0
  8 25  4  0
  9 18  4  0
 10 21  4  0
 11 25  4  0
 12 23  4  0
 13 20  4  0
 13 26  4  0
 14 19  4  0
 17 24  4  0
 19 23  4  0
 20 24  4  0
 23 26  1  0
M  END
$$$$

 Created by Python create_sdf_string function

 26 49  0  0  0  0  0  0  0  0999 V2000
   10.4162   -1.6950   23.6366 C   0  0  0  0  0  0  0  0  0  0  0  0
    9.3261   -4.3746   16.3649 N   0  0  0  0  0  0  0  0  0  0  0  0
    9.8241   -4.4665   17.3565 C   0  0  0  0  0  0  0  0  0  0  0  0
    8.6894    1.9319   25.1740 N   0  0  0  0  0  0  0  0  0  0  0  0
    7.8399   -9.2440   17.3362 C   0  0  0  0  0  0  0  0  0  0  0  0
   10.7476   -2.9566   18.9916 C   0  0  0  0  0  0  0  0  0  0  0  0
    9.5689    0.3399   22.8915 C   0  0  0  0  0  0  0  0  0  0  0  0
    8.7070    0.8225   25.5315 C   0  0  0  0  0  0  0  0  0  0  0  0
   10.2148   -4.6296   20.1885 C   0  0  0  0  0  0  0  0  0  0  0  0
   10.7015   -2.6023   23.9436 N   0  0  0  0  0  0  0  0  0  0  0  0
    6.3118   -8.6233   15.6546 C   0  0  0  0  0  0  0  0  0  0  0  0
    6.9689   -7.1135   16.5526 O   0  0  0  0  0  0  0  0  0  0  0  0
    9.0944   -6.0321   16.7119 C   0  0  0  0  0  0  0  0  0  0  0  0
   10.6402   -3.8095   22.7241 O   0  0  0  0  0  0  0  0  0  0  0  0
    9.5728   -5.0293   18.3773 C   0  0  0  0  0  0  0  0  0  0  0  0
    9.4888    1.6688   23.2174 C   0  0  0  0  0  0  0  0  0  0  0  0
   10.5512   -3.2384   17.7776 C   0  0  0  0  0  0  0  0  0  0  0  0
   11.0532   -3.0564   21.4558 C   0  0  0  0  0  0  0  0  0  0  0  0
    9.8780   -6.3833   18.2123 S   0  0  0  0  0  0  0  0  0  0  0  0
    9.8069   -0.8817   25.0336 C   0  0  0  0  0  0  0  0  0  0  0  0
   10.7334   -3.8747   20.3513 C   0  0  0  0  0  0  0  0  0  0  0  0
    6.7825   -5.6393   17.3592 He  0  0  0  0  0  0  0  0  0  0  0  0
    9.6747   -0.9489   23.6309 He  0  0  0  0  0  0  0  0  0  0  0  0
    5.8662   -8.0700   17.5432 He  0  0  0  0  0  0  0  0  0  0  0  0
   10.4839   -1.6671   22.2684 He  0  0  0  0  0  0  0  0  0  0  0  0
    6.4850   -7.2830   16.2515 He  0  0  0  0  0  0  0  0  0  0  0  0
  1 10  4  0
  1 11  4  0
  2  3  4  0
  2  5  2  0
  2 10  1  0
  2 18  2  0
  3  5  3  0
  3 12  3  0
  3 17  4  0
  3 19  4  0
  4  5  2  0
  4  6  1  0
  4  8  4  0
  4 10  3  0
  4 11  2  0
  4 12  4  0
  4 16  4  0
  5  6  2  0
  5  9  2  0
  5 14  2  0
  5 16  3  0
  5 18  4  0
  5 21  2  0
  6  7  4  0
  6 16  3  0
  6 17  4  0
  6 21  4  0
  7 16  2  0
  8 14  2  0
  8 18  2  0
  8 20  4  0
  9 11  2  0
  9 15  4  0
  9 21  4  0
 10 12  1  0
 10 14  4  0
 10 16  1  0
 11 13  4  0
 11 15  2  0
 12 13  1  0
 12 19  2  0
 13 14  3  0
 13 18  4  0
 13 19  4  0
 13 21  2  0
 14 17  2  0
 14 18  4  0
 15 19  4  0
 16 17  2  0
M  END
$$$$

 Created by Python create_sdf_string function

 26 30  0  0  0  0  0  0  0  0999 V2000
   10.3950   -1.7655   23.2608 C   0  0  0  0  0  0  0  0  0  0  0  0
    9.3671   -4.7371   16.5061 N   0  0  0  0  0  0  0  0  0  0  0  0
    9.9966   -4.2964   17.6252 C   0  0  0  0  0  0  0  0  0  0  0  0
    8.7655    1.7240   24.8658 N   0  0  0  0  0  0  0  0  0  0  0  0
    7.6339   -8.3710   17.1330 C   0  0  0  0  0  0  0  0  0  0  0  0
    7.0656   -6.9320   16.5541 C   0  0  0  0  0  0  0  0  0  0  0  0
   10.9791   -2.7669   19.2506 C   0  0  0  0  0  0  0  0  0  0  0  0
    9.8869   -0.5583   23.8440 C   0  0  0  0  0  0  0  0  0  0  0  0
    6.2019   -8.7128   17.2165 C   0  0  0  0  0  0  0  0  0  0  0  0
    9.8288    0.5875   23.0506 C   0  0  0  0  0  0  0  0  0  0  0  0
    8.8646    0.6058   25.6236 C   0  0  0  0  0  0  0  0  0  0  0  0
   10.7110   -1.9088   22.0251 N   0  0  0  0  0  0  0  0  0  0  0  0
   10.2815   -4.8807   19.9194 C   0  0  0  0  0  0  0  0  0  0  0  0
   10.5235   -2.9790   23.8072 N   0  0  0  0  0  0  0  0  0  0  0  0
    6.0840   -8.5786   16.2221 C   0  0  0  0  0  0  0  0  0  0  0  0
    7.7686   -7.0114   16.6815 C   0  0  0  0  0  0  0  0  0  0  0  0
    8.8128   -6.0263   16.8956 C   0  0  0  0  0  0  0  0  0  0  0  0
    6.0128   -7.6278   16.2543 C   0  0  0  0  0  0  0  0  0  0  0  0
   10.7814   -3.9222   22.6885 O   0  0  0  0  0  0  0  0  0  0  0  0
    9.8934   -5.2110   18.5813 C   0  0  0  0  0  0  0  0  0  0  0  0
    9.1979    1.7136   23.5681 C   0  0  0  0  0  0  0  0  0  0  0  0
   10.6061   -3.1171   17.8798 C   0  0  0  0  0  0  0  0  0  0  0  0
   10.7854   -3.1530   21.6027 C   0  0  0  0  0  0  0  0  0  0  0  0
    9.3845   -6.4672   18.2015 S   0  0  0  0  0  0  0  0  0  0  0  0
    9.3928   -0.5691   25.1347 C   0  0  0  0  0  0  0  0  0  0  0  0
   10.7020   -3.6327   20.2463 C   0  0  0  0  0  0  0  0  0  0  0  0
  1  8  1  0
  1 12  4  0
  1 14  4  0
  2  3  4  0
  2 17  4  0
  3 20  4  0
  3 22  4  0
  4 11  4  0
  4 21  4  0
  5  9  4  0
  5 16  4  0
  6 16  4  0
  6 18  4  0
  7 22  4  0
  7 26  4  0
  8 10  4  0
  8 25  4  0
  9 15  4  0
 10 21  4  0
 11 25  4  0
 12 23  4  0
 13 20  4  0
 13 26  4  0
 14 19  4  0
 15 18  4  0
 16 17  1  0
 17 24  4  0
 19 23  4  0
 20 24  4  0
 23 26  1  0
M  END
$$$$

 Created by Python create_sdf_string function

 26 55  0  0  0  0  0  0  0  0999 V2000
   10.7270   -1.5282   23.6257 C   0  0  0  0  0  0  0  0  0  0  0  0
    8.4457    1.8878   25.1259 N   0  0  0  0  0  0  0  0  0  0  0  0
    7.1153   -8.0686   15.8741 C   0  0  0  0  0  0  0  0  0  0  0  0
    7.4917   -7.9162   18.0082 P   0  0  0  0  0  0  0  0  0  0  0  0
   10.4190   -2.2865   18.8282 C   0  0  0  0  0  0  0  0  0  0  0  0
    9.8433   -0.5440   24.1159 C   0  0  0  0  0  0  0  0  0  0  0  0
    4.4243   -9.1137   17.0910 S   0  0  0  0  0  0  0  0  0  0  0  0
    9.1346    0.3804   25.8256 C   0  0  0  0  0  0  0  0  0  0  0  0
   10.7827   -1.7980   22.5061 N   0  0  0  0  0  0  0  0  0  0  0  0
   10.4808   -5.2741   20.0939 C   0  0  0  0  0  0  0  0  0  0  0  0
   10.4963   -3.0017   23.9076 N   0  0  0  0  0  0  0  0  0  0  0  0
    5.5743   -8.1070   15.8472 F   0  0  0  0  0  0  0  0  0  0  0  0
    8.7429   -5.8692   16.8022 C   0  0  0  0  0  0  0  0  0  0  0  0
    6.4779   -8.6632   16.2179 Cl  0  0  0  0  0  0  0  0  0  0  0  0
   11.2813   -3.6780   22.7381 O   0  0  0  0  0  0  0  0  0  0  0  0
   10.0035   -5.2464   17.9481 C   0  0  0  0  0  0  0  0  0  0  0  0
    9.3216    1.5658   23.3485 C   0  0  0  0  0  0  0  0  0  0  0  0
   10.4894   -2.9629   21.5596 C   0  0  0  0  0  0  0  0  0  0  0  0
    9.5197   -6.5590   17.8270 N   0  0  0  0  0  0  0  0  0  0  0  0
    9.7458   -0.2109   24.9222 C   0  0  0  0  0  0  0  0  0  0  0  0
   10.7614   -3.9040   20.0117 C   0  0  0  0  0  0  0  0  0  0  0  0
    9.3199   -4.8515   16.7435 He  0  0  0  0  0  0  0  0  0  0  0  0
    9.9723   -4.5161   17.4889 He  0  0  0  0  0  0  0  0  0  0  0  0
    9.9960    0.6237   23.3782 He  0  0  0  0  0  0  0  0  0  0  0  0
    6.4788   -7.0446   15.5576 He  0  0  0  0  0  0  0  0  0  0  0  0
   10.5730   -2.8316   17.6293 He  0  0  0  0  0  0  0  0  0  0  0  0
  1  6  1  0
  1  9  4  0
  1 11  4  0
  1 17  3  0
  1 18  3  0
  2  3  4  0
  2  7  1  0
  2 17  4  0
  3  4  2  0
  3 10  1  0
  3 13  1  0
  3 16  1  0
  3 18  1  0
  4  5  2  0
  4  6  4  0
  4 11  2  0
  4 14  2  0
  5  6  2  0
  5  9  4  0
  5 12  4  0
  5 21  4  0
  6 12  4  0
  6 14  4  0
  6 18  2  0
  6 20  4  0
  7 11  2  0
  7 13  2  0
  7 14  3  0
  7 15  2  0
  7 17  3  0
  7 19  1  0
  7 20  1  0
  8 12  4  0
  8 14  1  0
  8 19  1  0
  8 20  4  0
  9 15  3  0
  9 16  2  0
  9 18  4  0
 10 16  4  0
 10 21  4  0
 11 14  4  0
 11 15  4  0
 11 21  1  0
 12 13  3  0
 12 14  3  0
 12 19  2  0
 13 14  1  0
 13 19  4  0
 14 16  3  0
 14 21  3  0
 16 19  4  0
 17 19  4  0
 18 21  1  0
 19 21  4  0
M  END
$$$$

 Created by Python create_sdf_string function

 26 29  0  0  0  0  0  0  0  0999 V2000
   10.4547   -1.7667   23.2894 C   0  0  0  0  0  0  0  0  0  0  0  0
    9.2259   -4.9421   16.4843 N   0  0  0  0  0  0  0  0  0  0  0  0
    9.9392   -4.4247   17.5473 C   0  0  0  0  0  0  0  0  0  0  0  0
    8.7248    1.6898   24.9238 N   0  0  0  0  0  0  0  0  0  0  0  0
    7.3899   -7.3147   16.4194 C   0  0  0  0  0  0  0  0  0  0  0  0
    7.0712   -8.1079   17.5765 C   0  0  0  0  0  0  0  0  0  0  0  0
   10.9254   -2.8416   19.1504 C   0  0  0  0  0  0  0  0  0  0  0  0
    9.9907   -0.5492   23.9203 C   0  0  0  0  0  0  0  0  0  0  0  0
    5.3666   -8.6025   17.0915 C   0  0  0  0  0  0  0  0  0  0  0  0
    9.9006    0.5787   23.1586 C   0  0  0  0  0  0  0  0  0  0  0  0
    8.9292    0.6001   25.7242 C   0  0  0  0  0  0  0  0  0  0  0  0
   10.6866   -1.9335   21.9931 N   0  0  0  0  0  0  0  0  0  0  0  0
   10.3660   -4.9593   19.8491 C   0  0  0  0  0  0  0  0  0  0  0  0
   10.6597   -2.9456   23.8340 N   0  0  0  0  0  0  0  0  0  0  0  0
    5.5615   -8.2438   16.1843 C   0  0  0  0  0  0  0  0  0  0  0  0
    7.0012   -7.2232   16.0932 C   0  0  0  0  0  0  0  0  0  0  0  0
    8.7473   -6.1934   16.9061 C   0  0  0  0  0  0  0  0  0  0  0  0
    6.1284   -8.3304   16.4674 C   0  0  0  0  0  0  0  0  0  0  0  0
   10.8239   -3.9381   22.7054 O   0  0  0  0  0  0  0  0  0  0  0  0
    9.8698   -5.3656   18.5071 C   0  0  0  0  0  0  0  0  0  0  0  0
    9.2298    1.6779   23.6382 C   0  0  0  0  0  0  0  0  0  0  0  0
   10.5459   -3.2197   17.7411 C   0  0  0  0  0  0  0  0  0  0  0  0
   10.8120   -3.2174   21.5602 C   0  0  0  0  0  0  0  0  0  0  0  0
    9.2887   -6.4677   18.0375 N   0  0  0  0  0  0  0  0  0  0  0  0
    9.5788   -0.5245   25.2590 C   0  0  0  0  0  0  0  0  0  0  0  0
   10.7470   -3.6701   20.1970 C   0  0  0  0  0  0  0  0  0  0  0  0
  1  8  1  0
  1 12  4  0
  1 14  4  0
  2  3  4  0
  2 17  4  0
  3 20  4  0
  3 22  4  0
  4 11  4  0
  4 21  4  0
  5  6  4  0
  5 16  4  0
  5 17  1  0
  6  9  4  0
  7 22  4  0
  7 26  4  0
  8 10  4  0
  8 25  4  0
  9 15  4  0
 10 21  4  0
 11 25  4  0
 12 23  4  0
 13 20  4  0
 13 26  4  0
 14 19  4  0
 15 18  4  0
 17 24  4  0
 19 23  4  0
 20 24  4  0
 23 26  1  0
M  END
$$$$

 Created by Python create_sdf_string function

 26 48  0  0  0  0  0  0  0  0999 V2000
   10.6606   -1.3871   23.3740 C   0  0  0  0  0  0  0  0  0  0  0  0
    9.1191   -4.8367   16.4241 N   0  0  0  0  0  0  0  0  0  0  0  0
   10.1913   -4.6852   17.8705 C   0  0  0  0  0  0  0  0  0  0  0  0
    8.6867    1.6671   24.8807 N   0  0  0  0  0  0  0  0  0  0  0  0
   11.0937   -3.2624   19.2339 C   0  0  0  0  0  0  0  0  0  0  0  0
   10.2688   -0.3294   23.9258 C   0  0  0  0  0  0  0  0  0  0  0  0
    5.5375   -8.0467   16.3889 N   0  0  0  0  0  0  0  0  0  0  0  0
    9.7263    0.3397   23.0592 C   0  0  0  0  0  0  0  0  0  0  0  0
    8.9934    0.5763   25.4407 C   0  0  0  0  0  0  0  0  0  0  0  0
   11.0461   -2.4871   22.1026 F   0  0  0  0  0  0  0  0  0  0  0  0
    9.9906   -4.9505   19.2154 C   0  0  0  0  0  0  0  0  0  0  0  0
   10.6213   -2.5649   23.9017 F   0  0  0  0  0  0  0  0  0  0  0  0
    5.9739   -9.7763   15.6556 C   0  0  0  0  0  0  0  0  0  0  0  0
    8.7728   -6.2498   16.6706 C   0  0  0  0  0  0  0  0  0  0  0  0
    6.7763   -8.5296   15.3398 O   0  0  0  0  0  0  0  0  0  0  0  0
   11.1680   -4.1052   22.9792 O   0  0  0  0  0  0  0  0  0  0  0  0
    9.8087   -5.6261   18.3599 C   0  0  0  0  0  0  0  0  0  0  0  0
    9.3280    1.8114   23.3751 C   0  0  0  0  0  0  0  0  0  0  0  0
   10.6615   -3.1929   17.7789 C   0  0  0  0  0  0  0  0  0  0  0  0
   10.8462   -3.1572   21.6887 C   0  0  0  0  0  0  0  0  0  0  0  0
    9.1424   -6.7518   18.3204 N   0  0  0  0  0  0  0  0  0  0  0  0
    9.4765   -0.2848   25.4098 P   0  0  0  0  0  0  0  0  0  0  0  0
   10.9424   -4.0755   20.6009 C   0  0  0  0  0  0  0  0  0  0  0  0
    7.0782   -8.2596   16.8939 He  0  0  0  0  0  0  0  0  0  0  0  0
    7.4318   -7.7986   16.8075 He  0  0  0  0  0  0  0  0  0  0  0  0
    8.0885   -6.4440   16.7421 He  0  0  0  0  0  0  0  0  0  0  0  0
  1  6  2  0
  1 12  4  0
  1 13  2  0
  2  3  4  0
  2 11  4  0
  2 14  4  0
  2 16  3  0
  3  6  4  0
  3  7  1  0
  3 12  4  0
  3 15  3  0
  3 17  4  0
  3 19  4  0
  4  7  4  0
  4  9  4  0
  4 10  3  0
  4 11  1  0
  4 12  1  0
  4 18  4  0
  5 19  4  0
  5 22  3  0
  5 23  2  0
  6 13  1  0
  6 15  4  0
  7  9  2  0
  7 13  4  0
  7 20  1  0
  7 21  2  0
  8 13  3  0
  8 18  4  0
  9 20  1  0
  9 22  4  0
 10 15  3  0
 10 20  4  0
 11 15  1  0
 11 17  1  0
 11 23  4  0
 13 16  1  0
 13 17  3  0
 13 21  4  0
 14 16  3  0
 14 21  4  0
 15 16  4  0
 15 18  4  0
 15 21  2  0
 17 21  4  0
 18 20  3  0
 20 23  1  0
M  END
$$$$

 Created by Python create_sdf_string function

 26 30  0  0  0  0  0  0  0  0999 V2000
   10.5463   -1.7478   23.2962 C   0  0  0  0  0  0  0  0  0  0  0  0
    9.3019   -5.0190   16.5758 N   0  0  0  0  0  0  0  0  0  0  0  0
    9.9503   -4.5801   17.6691 C   0  0  0  0  0  0  0  0  0  0  0  0
    8.6929    1.7235   24.7773 N   0  0  0  0  0  0  0  0  0  0  0  0
    6.7909   -7.9476   17.4757 C   0  0  0  0  0  0  0  0  0  0  0  0
    7.6174   -7.5892   16.5120 C   0  0  0  0  0  0  0  0  0  0  0  0
   10.9966   -3.0336   19.2162 C   0  0  0  0  0  0  0  0  0  0  0  0
   10.0227   -0.5240   23.8900 C   0  0  0  0  0  0  0  0  0  0  0  0
    5.8731   -8.7522   16.7955 C   0  0  0  0  0  0  0  0  0  0  0  0
    9.9242    0.5849   23.0538 C   0  0  0  0  0  0  0  0  0  0  0  0
    8.8753    0.7047   25.6316 C   0  0  0  0  0  0  0  0  0  0  0  0
   10.8162   -2.0355   21.9916 N   0  0  0  0  0  0  0  0  0  0  0  0
   10.3152   -5.1143   20.0302 C   0  0  0  0  0  0  0  0  0  0  0  0
   10.7457   -2.9318   23.9332 N   0  0  0  0  0  0  0  0  0  0  0  0
    6.0922   -9.1823   15.8264 C   0  0  0  0  0  0  0  0  0  0  0  0
    8.0187   -6.9251   16.2924 C   0  0  0  0  0  0  0  0  0  0  0  0
    8.7216   -6.3183   17.0057 C   0  0  0  0  0  0  0  0  0  0  0  0
    7.2527   -8.4759   15.6046 C   0  0  0  0  0  0  0  0  0  0  0  0
   10.8772   -4.0299   22.8740 O   0  0  0  0  0  0  0  0  0  0  0  0
    9.8218   -5.4698   18.6872 C   0  0  0  0  0  0  0  0  0  0  0  0
    9.2006    1.7108   23.5054 C   0  0  0  0  0  0  0  0  0  0  0  0
   10.6598   -3.4135   17.8801 C   0  0  0  0  0  0  0  0  0  0  0  0
   10.8572   -3.3645   21.6687 C   0  0  0  0  0  0  0  0  0  0  0  0
    9.1994   -6.5804   18.2850 N   0  0  0  0  0  0  0  0  0  0  0  0
    9.5553   -0.4522   25.2193 C   0  0  0  0  0  0  0  0  0  0  0  0
   10.7436   -3.8514   20.3141 C   0  0  0  0  0  0  0  0  0  0  0  0
  1  8  1  0
  1 12  4  0
  1 14  4  0
  2  3  4  0
  2 17  4  0
  3 20  4  0
  3 22  4  0
  4 11  4  0
  4 21  4  0
  5  6  4  0
  5  9  4  0
  6 18  4  0
  7 22  4  0
  7 26  4  0
  8 10  4  0
  8 25  4  0
  9 15  4  0
 10 21  4  0
 11 25  4  0
 12 23  4  0
 13 20  4  0
 13 26  4  0
 14 19  4  0
 15 18  4  0
 16 17  1  0
 16 18  4  0
 17 24  4  0
 19 23  4  0
 20 24  4  0
 23 26  1  0
M  END
$$$$

 Created by Python create_sdf_string function

 26 59  0  0  0  0  0  0  0  0999 V2000
    9.1486   -4.8304   16.5045 N   0  0  0  0  0  0  0  0  0  0  0  0
    9.9532   -4.4326   17.2608 C   0  0  0  0  0  0  0  0  0  0  0  0
    8.7710    1.5479   25.2820 N   0  0  0  0  0  0  0  0  0  0  0  0
    6.3151   -8.0496   16.6622 C   0  0  0  0  0  0  0  0  0  0  0  0
    7.0696   -6.8992   15.9678 C   0  0  0  0  0  0  0  0  0  0  0  0
   11.1256   -3.1526   19.3339 C   0  0  0  0  0  0  0  0  0  0  0  0
   10.0507   -0.3970   23.9755 C   0  0  0  0  0  0  0  0  0  0  0  0
    6.6495   -9.1797   16.1274 F   0  0  0  0  0  0  0  0  0  0  0  0
    9.9874    0.4605   22.8748 C   0  0  0  0  0  0  0  0  0  0  0  0
    8.6171    0.6970   25.9232 C   0  0  0  0  0  0  0  0  0  0  0  0
   10.9389   -1.9664   21.4190 N   0  0  0  0  0  0  0  0  0  0  0  0
   10.3608   -4.9607   19.9774 C   0  0  0  0  0  0  0  0  0  0  0  0
    8.9484   -7.3757   18.4130 C   0  0  0  0  0  0  0  0  0  0  0  0
    8.8748   -6.5541   17.1638 C   0  0  0  0  0  0  0  0  0  0  0  0
    7.1336   -6.1868   15.7841 P   0  0  0  0  0  0  0  0  0  0  0  0
   11.3214   -3.9327   23.2549 O   0  0  0  0  0  0  0  0  0  0  0  0
    9.7781   -5.4187   18.7444 C   0  0  0  0  0  0  0  0  0  0  0  0
    8.9494    2.0634   23.8628 C   0  0  0  0  0  0  0  0  0  0  0  0
   10.7329   -3.3239   17.7092 C   0  0  0  0  0  0  0  0  0  0  0  0
   11.3259   -3.2908   21.5612 Cl  0  0  0  0  0  0  0  0  0  0  0  0
    9.2764   -6.7486   18.0308 N   0  0  0  0  0  0  0  0  0  0  0  0
    9.5492   -0.3505   25.2140 C   0  0  0  0  0  0  0  0  0  0  0  0
   10.7421   -3.8767   20.1999 C   0  0  0  0  0  0  0  0  0  0  0  0
   10.9453   -1.9323   23.6842 He  0  0  0  0  0  0  0  0  0  0  0  0
   10.8074   -2.6819   24.3982 He  0  0  0  0  0  0  0  0  0  0  0  0
    5.3266   -9.5778   16.1531 He  0  0  0  0  0  0  0  0  0  0  0  0
  1  2  4  0
  1  8  1  0
  1 17  1  0
  2  4  3  0
  2  8  1  0
  2 13  3  0
  2 14  2  0
  2 15  3  0
  2 17  4  0
  2 19  4  0
  3  8  4  0
  3 10  4  0
  3 13  1  0
  3 17  3  0
  3 18  4  0
  4  5  2  0
  4  7  3  0
  4  8  2  0
  4  9  3  0
  4 12  1  0
  4 21  3  0
  5  6  1  0
  5  7  1  0
  5 15  4  0
  5 19  3  0
  5 20  3  0
  5 21  2  0
  6 14  3  0
  6 16  1  0
  6 19  4  0
  6 23  4  0
  7  8  4  0
  7  9  4  0
  7 15  1  0
  7 17  4  0
  7 22  4  0
  8 17  4  0
  8 18  4  0
  9 18  4  0
 10 12  2  0
 10 16  4  0
 10 22  1  0
 11 14  1  0
 11 15  1  0
 11 16  1  0
 12 17  4  0
 12 23  4  0
 13 15  4  0
 13 16  1  0
 13 21  3  0
 14 20  4  0
 14 21  4  0
 15 17  2  0
 15 18  3  0
 15 19  1  0
 16 20  4  0
 16 22  2  0
 19 20  1  0
 20 23  1  0
M  END
$$$$

 Created by Python create_sdf_string function

 26 29  0  0  0  0  0  0  0  0999 V2000
   10.5759   -1.7542   23.3068 C   0  0  0  0  0  0  0  0  0  0  0  0
    9.1813   -4.9152   16.6051 N   0  0  0  0  0  0  0  0  0  0  0  0
    9.9136   -4.5338   17.6566 C   0  0  0  0  0  0  0  0  0  0  0  0
    8.6715    1.6764   25.0130 N   0  0  0  0  0  0  0  0  0  0  0  0
    6.6390   -8.2181   16.4448 C   0  0  0  0  0  0  0  0  0  0  0  0
    7.1256   -6.8960   16.0948 C   0  0  0  0  0  0  0  0  0  0  0  0
   11.0383   -2.9814   19.1281 C   0  0  0  0  0  0  0  0  0  0  0  0
    9.9997   -0.5408   23.9459 C   0  0  0  0  0  0  0  0  0  0  0  0
    6.7595   -8.8159   16.7229 C   0  0  0  0  0  0  0  0  0  0  0  0
    9.8816    0.6151   23.2002 C   0  0  0  0  0  0  0  0  0  0  0  0
    8.8185    0.5861   25.8148 C   0  0  0  0  0  0  0  0  0  0  0  0
   10.8678   -1.9665   21.9786 N   0  0  0  0  0  0  0  0  0  0  0  0
   10.3352   -5.0685   19.9607 C   0  0  0  0  0  0  0  0  0  0  0  0
   10.7795   -2.9848   23.8688 N   0  0  0  0  0  0  0  0  0  0  0  0
    5.8808   -8.8369   16.2344 C   0  0  0  0  0  0  0  0  0  0  0  0
    8.4021   -7.9502   17.7137 C   0  0  0  0  0  0  0  0  0  0  0  0
    8.6824   -6.1832   17.0746 C   0  0  0  0  0  0  0  0  0  0  0  0
    7.1073   -6.9130   16.0166 C   0  0  0  0  0  0  0  0  0  0  0  0
   10.9296   -4.0631   22.8106 O   0  0  0  0  0  0  0  0  0  0  0  0
    9.8428   -5.4758   18.6624 C   0  0  0  0  0  0  0  0  0  0  0  0
    9.1825    1.7500   23.7516 C   0  0  0  0  0  0  0  0  0  0  0  0
   10.6327   -3.3650   17.8127 C   0  0  0  0  0  0  0  0  0  0  0  0
   10.9087   -3.2991   21.5971 C   0  0  0  0  0  0  0  0  0  0  0  0
    9.1922   -6.6495   18.1969 N   0  0  0  0  0  0  0  0  0  0  0  0
    9.5116   -0.5526   25.2781 C   0  0  0  0  0  0  0  0  0  0  0  0
   10.8114   -3.7651   20.2503 C   0  0  0  0  0  0  0  0  0  0  0  0
  1  8  1  0
  1 12  4  0
  1 14  4  0
  2  3  4  0
  2 17  4  0
  3 20  4  0
  3 22  4  0
  4 11  4  0
  4 21  4  0
  5  6  4  0
  5  9  4  0
  5 15  1  0
  6 18  4  0
  7 22  4  0
  7 26  4  0
  8 10  4  0
  8 25  4  0
  9 16  4  0
 10 21  4  0
 11 25  4  0
 12 23  4  0
 13 20  4  0
 13 26  4  0
 14 19  4  0
 16 24  4  0
 17 24  4  0
 19 23  4  0
 20 24  4  0
 23 26  1  0
M  END
$$$$

 Created by Python create_sdf_string function

 26 46  0  0  0  0  0  0  0  0999 V2000
   10.3361   -1.5465   23.3171 C   0  0  0  0  0  0  0  0  0  0  0  0
    9.1570   -5.0696   16.6219 N   0  0  0  0  0  0  0  0  0  0  0  0
   10.0546   -4.0010   17.5922 C   0  0  0  0  0  0  0  0  0  0  0  0
    8.8329    1.8611   24.8061 N   0  0  0  0  0  0  0  0  0  0  0  0
    6.5451   -8.3499   16.1772 C   0  0  0  0  0  0  0  0  0  0  0  0
    5.7438   -7.5760   16.4061 C   0  0  0  0  0  0  0  0  0  0  0  0
   10.2949   -0.5495   24.1270 I   0  0  0  0  0  0  0  0  0  0  0  0
    9.6662    0.8589   22.9437 C   0  0  0  0  0  0  0  0  0  0  0  0
    8.8231    0.5250   25.7545 C   0  0  0  0  0  0  0  0  0  0  0  0
   10.9021   -2.0384   22.0689 N   0  0  0  0  0  0  0  0  0  0  0  0
    9.9833   -4.6638   19.7251 C   0  0  0  0  0  0  0  0  0  0  0  0
    6.5869   -8.5878   15.5080 Se  0  0  0  0  0  0  0  0  0  0  0  0
    8.6354   -6.2428   16.7085 C   0  0  0  0  0  0  0  0  0  0  0  0
    7.5184   -5.9169   16.5413 S   0  0  0  0  0  0  0  0  0  0  0  0
   10.8295   -3.9037   22.6927 O   0  0  0  0  0  0  0  0  0  0  0  0
    9.9447   -5.6403   18.9647 C   0  0  0  0  0  0  0  0  0  0  0  0
    9.3624    1.8419   24.2138 C   0  0  0  0  0  0  0  0  0  0  0  0
   10.3857   -3.4645   18.2181 C   0  0  0  0  0  0  0  0  0  0  0  0
   10.7703   -3.6227   21.4975 O   0  0  0  0  0  0  0  0  0  0  0  0
    8.9996   -6.7422   18.3536 N   0  0  0  0  0  0  0  0  0  0  0  0
    9.4193   -0.3253   25.2217 N   0  0  0  0  0  0  0  0  0  0  0  0
   10.9227   -3.9059   20.0149 C   0  0  0  0  0  0  0  0  0  0  0  0
   11.2159   -2.8113   18.8978 He  0  0  0  0  0  0  0  0  0  0  0  0
    7.4913   -8.8709   17.1932 He  0  0  0  0  0  0  0  0  0  0  0  0
   10.8935   -3.1630   23.8018 He  0  0  0  0  0  0  0  0  0  0  0  0
    6.7574   -8.4703   17.8055 He  0  0  0  0  0  0  0  0  0  0  0  0
  1  3  2  0
  1  7  1  0
  1 10  4  0
  1 12  1  0
  1 14  4  0
  1 21  3  0
  2  3  4  0
  2  5  1  0
  2  6  4  0
  2 13  4  0
  2 16  4  0
  3  4  3  0
  3  6  1  0
  3 14  4  0
  3 18  4  0
  3 21  4  0
  4  9  4  0
  4 21  1  0
  5 11  2  0
  5 19  4  0
  6  8  4  0
  6 13  2  0
  6 17  1  0
  6 19  4  0
  6 22  1  0
  7 15  2  0
  7 18  3  0
  7 21  4  0
  8 17  4  0
  8 20  1  0
  9 21  4  0
 11 22  4  0
 12 15  1  0
 12 16  4  0
 12 17  4  0
 13 20  4  0
 14 15  2  0
 14 21  4  0
 14 22  3  0
 15 19  4  0
 15 20  1  0
 16 17  1  0
 16 20  4  0
 16 21  2  0
 17 22  2  0
 19 22  1  0
M  END
$$$$

 Created by Python create_sdf_string function

 26 31  0  0  0  0  0  0  0  0999 V2000
   10.4358   -1.7533   23.2689 C   0  0  0  0  0  0  0  0  0  0  0  0
    9.2232   -5.0381   16.6616 N   0  0  0  0  0  0  0  0  0  0  0  0
    9.9267   -4.4942   17.7170 C   0  0  0  0  0  0  0  0  0  0  0  0
    8.8007    1.7110   25.0305 N   0  0  0  0  0  0  0  0  0  0  0  0
    6.5342   -8.5144   16.0707 C   0  0  0  0  0  0  0  0  0  0  0  0
    5.9591   -7.5304   16.0195 C   0  0  0  0  0  0  0  0  0  0  0  0
   10.9696   -2.8882   19.1750 C   0  0  0  0  0  0  0  0  0  0  0  0
    9.9643   -0.5486   23.8909 C   0  0  0  0  0  0  0  0  0  0  0  0
    7.5237   -8.6827   17.1246 C   0  0  0  0  0  0  0  0  0  0  0  0
    9.9657    0.6436   23.1869 C   0  0  0  0  0  0  0  0  0  0  0  0
    8.8480    0.5291   25.7350 C   0  0  0  0  0  0  0  0  0  0  0  0
   10.7179   -1.9423   21.9848 N   0  0  0  0  0  0  0  0  0  0  0  0
   10.2770   -4.9915   20.0252 C   0  0  0  0  0  0  0  0  0  0  0  0
   10.6041   -3.0265   23.8167 N   0  0  0  0  0  0  0  0  0  0  0  0
    6.2943   -8.4788   15.7833 C   0  0  0  0  0  0  0  0  0  0  0  0
    7.0382   -7.7993   17.4596 C   0  0  0  0  0  0  0  0  0  0  0  0
    8.6256   -6.1884   17.1004 C   0  0  0  0  0  0  0  0  0  0  0  0
    7.5090   -6.8280   16.6204 C   0  0  0  0  0  0  0  0  0  0  0  0
   10.8150   -4.0034   22.7451 O   0  0  0  0  0  0  0  0  0  0  0  0
    9.8082   -5.3431   18.7724 C   0  0  0  0  0  0  0  0  0  0  0  0
    9.3335    1.7921   23.7744 C   0  0  0  0  0  0  0  0  0  0  0  0
   10.6389   -3.3188   17.8505 C   0  0  0  0  0  0  0  0  0  0  0  0
   10.7775   -3.2528   21.5855 C   0  0  0  0  0  0  0  0  0  0  0  0
    9.1091   -6.4653   18.3543 N   0  0  0  0  0  0  0  0  0  0  0  0
    9.4356   -0.5914   25.1706 N   0  0  0  0  0  0  0  0  0  0  0  0
   10.7038   -3.7148   20.2534 C   0  0  0  0  0  0  0  0  0  0  0  0
  1  8  1  0
  1 12  4  0
  1 14  4  0
  2  3  4  0
  2 17  4  0
  3 20  4  0
  3 22  4  0
  4 11  4  0
  4 21  4  0
  5  6  4  0
  5  9  4  0
  5 15  4  0
  6 15  4  0
  6 18  4  0
  7 22  4  0
  7 26  4  0
  8 10  4  0
  8 25  4  0
  9 16  4  0
 10 21  4  0
 11 25  4  0
 12 23  4  0
 13 20  4  0
 13 26  4  0
 14 19  4  0
 16 18  4  0
 17 18  1  0
 17 24  4  0
 19 23  4  0
 20 24  4  0
 23 26  1  0
M  END
$$$$

 Created by Python create_sdf_string function

 26 57  0  0  0  0  0  0  0  0999 V2000
   10.0903   -1.5515   23.2166 C   0  0  0  0  0  0  0  0  0  0  0  0
    9.1804   -5.1072   16.5250 N   0  0  0  0  0  0  0  0  0  0  0  0
    9.8302   -4.7272   17.5336 C   0  0  0  0  0  0  0  0  0  0  0  0
    8.6373    1.4838   24.8122 N   0  0  0  0  0  0  0  0  0  0  0  0
    5.2275   -7.4093   16.7325 Cl  0  0  0  0  0  0  0  0  0  0  0  0
   10.8381   -2.7569   19.1574 C   0  0  0  0  0  0  0  0  0  0  0  0
    9.7869   -0.6293   24.1208 C   0  0  0  0  0  0  0  0  0  0  0  0
    7.5601   -8.4041   17.1540 C   0  0  0  0  0  0  0  0  0  0  0  0
    9.8752    0.7397   23.1705 C   0  0  0  0  0  0  0  0  0  0  0  0
    8.7281    0.3755   25.7278 C   0  0  0  0  0  0  0  0  0  0  0  0
   11.1814   -2.1487   21.6346 N   0  0  0  0  0  0  0  0  0  0  0  0
    9.9419   -5.1833   20.0018 C   0  0  0  0  0  0  0  0  0  0  0  0
   10.5789   -2.9992   23.7697 N   0  0  0  0  0  0  0  0  0  0  0  0
    7.3648   -6.6230   18.9046 C   0  0  0  0  0  0  0  0  0  0  0  0
    8.8576   -6.0409   17.1751 C   0  0  0  0  0  0  0  0  0  0  0  0
    6.2168   -7.3347   15.2412 C   0  0  0  0  0  0  0  0  0  0  0  0
   10.9580   -3.9274   22.5586 O   0  0  0  0  0  0  0  0  0  0  0  0
    9.8715   -5.3033   18.6315 C   0  0  0  0  0  0  0  0  0  0  0  0
    9.0367    1.6500   23.6033 C   0  0  0  0  0  0  0  0  0  0  0  0
   10.4532   -3.3191   17.5120 C   0  0  0  0  0  0  0  0  0  0  0  0
    9.0787   -6.3246   18.4613 O   0  0  0  0  0  0  0  0  0  0  0  0
    9.2534   -0.5065   25.2989 C   0  0  0  0  0  0  0  0  0  0  0  0
   10.4534   -3.7700   20.1913 C   0  0  0  0  0  0  0  0  0  0  0  0
    5.7332   -8.3222   15.5664 He  0  0  0  0  0  0  0  0  0  0  0  0
    5.9188   -8.4922   15.3882 He  0  0  0  0  0  0  0  0  0  0  0  0
   10.7744   -2.7540   21.2299 He  0  0  0  0  0  0  0  0  0  0  0  0
  1  7  1  0
  1  8  2  0
  1 13  4  0
  1 14  4  0
  1 16  1  0
  1 18  1  0
  1 23  1  0
  2  3  4  0
  2 10  2  0
  2 11  4  0
  2 12  4  0
  2 15  4  0
  2 16  2  0
  2 17  4  0
  2 19  4  0
  3  8  4  0
  3 12  4  0
  3 18  4  0
  3 20  4  0
  3 21  3  0
  3 23  4  0
  4  6  2  0
  4 10  4  0
  5  6  2  0
  5  7  2  0
  5 10  4  0
  5 16  4  0
  5 23  4  0
  6 11  4  0
  6 20  4  0
  6 23  4  0
  7  8  1  0
  7  9  4  0
  7 16  2  0
  7 22  4  0
  8 10  2  0
  8 14  3  0
  8 15  1  0
  8 18  3  0
  8 22  4  0
  8 23  1  0
  9 19  4  0
 10 22  4  0
 12 16  3  0
 12 18  4  0
 12 23  4  0
 13 17  4  0
 13 21  2  0
 14 16  4  0
 14 20  4  0
 14 21  2  0
 15 16  2  0
 15 19  4  0
 15 21  4  0
 16 17  2  0
 17 20  1  0
 18 21  4  0
M  END
$$$$

 Created by Python create_sdf_string function

 26 28  0  0  0  0  0  0  0  0999 V2000
   10.3786   -1.7372   23.2095 C   0  0  0  0  0  0  0  0  0  0  0  0
    9.2879   -5.1160   16.5735 N   0  0  0  0  0  0  0  0  0  0  0  0
    9.8629   -4.5805   17.6137 C   0  0  0  0  0  0  0  0  0  0  0  0
    8.5538    1.5803   24.9407 N   0  0  0  0  0  0  0  0  0  0  0  0
    6.1436   -8.0160   15.7064 C   0  0  0  0  0  0  0  0  0  0  0  0
    5.7272   -7.5535   16.6799 C   0  0  0  0  0  0  0  0  0  0  0  0
   10.9156   -2.9412   18.9801 C   0  0  0  0  0  0  0  0  0  0  0  0
    9.8495   -0.5739   23.8779 C   0  0  0  0  0  0  0  0  0  0  0  0
    7.5683   -8.1872   17.1462 C   0  0  0  0  0  0  0  0  0  0  0  0
    9.8035    0.6031   23.1650 C   0  0  0  0  0  0  0  0  0  0  0  0
    8.6516    0.4819   25.7253 C   0  0  0  0  0  0  0  0  0  0  0  0
   10.7084   -1.8794   21.8819 N   0  0  0  0  0  0  0  0  0  0  0  0
   10.1526   -4.9553   19.9658 C   0  0  0  0  0  0  0  0  0  0  0  0
   10.4986   -2.9339   23.7033 N   0  0  0  0  0  0  0  0  0  0  0  0
    6.4173   -8.5473   16.1586 C   0  0  0  0  0  0  0  0  0  0  0  0
    7.0776   -7.2928   17.3849 C   0  0  0  0  0  0  0  0  0  0  0  0
    8.6659   -6.2565   17.1312 C   0  0  0  0  0  0  0  0  0  0  0  0
    6.6602   -6.9826   15.8437 C   0  0  0  0  0  0  0  0  0  0  0  0
   10.7556   -3.9040   22.5675 O   0  0  0  0  0  0  0  0  0  0  0  0
    9.7181   -5.3318   18.7315 C   0  0  0  0  0  0  0  0  0  0  0  0
    9.1142    1.6822   23.7106 C   0  0  0  0  0  0  0  0  0  0  0  0
   10.5322   -3.4268   17.6803 C   0  0  0  0  0  0  0  0  0  0  0  0
   10.7663   -3.1697   21.4529 C   0  0  0  0  0  0  0  0  0  0  0  0
    9.0487   -6.4942   18.3579 O   0  0  0  0  0  0  0  0  0  0  0  0
    9.3004   -0.6333   25.2067 C   0  0  0  0  0  0  0  0  0  0  0  0
   10.6631   -3.6861   20.1156 C   0  0  0  0  0  0  0  0  0  0  0  0
  1  8  1  0
  1 12  4  0
  1 14  4  0
  2  3  4  0
  2 17  4  0
  3 20  4  0
  3 22  4  0
  4 11  4  0
  4 21  4  0
  5 15  4  0
  5 18  4  0
  6 18  4  0
  7 22  4  0
  7 26  4  0
  8 10  4  0
  8 25  4  0
  9 15  4  0
  9 16  4  0
 10 21  4  0
 11 25  4  0
 12 23  4  0
 13 20  4  0
 13 26  4  0
 14 19  4  0
 17 24  4  0
 19 23  4  0
 20 24  4  0
 23 26  1  0
M  END
$$$$

 Created by Python create_sdf_string function

 26 39  0  0  0  0  0  0  0  0999 V2000
    8.8308   -5.1064   16.7369 S   0  0  0  0  0  0  0  0  0  0  0  0
   10.1835   -4.6676   17.4751 F   0  0  0  0  0  0  0  0  0  0  0  0
    6.2871   -6.9901   15.3052 N   0  0  0  0  0  0  0  0  0  0  0  0
    5.1839   -8.1851   16.7192 O   0  0  0  0  0  0  0  0  0  0  0  0
   10.0357   -0.5869   23.7466 C   0  0  0  0  0  0  0  0  0  0  0  0
    9.8067    0.4877   23.3568 O   0  0  0  0  0  0  0  0  0  0  0  0
   10.5082   -1.5799   22.0412 N   0  0  0  0  0  0  0  0  0  0  0  0
   10.1804   -4.9766   19.8237 C   0  0  0  0  0  0  0  0  0  0  0  0
   10.5063   -2.9657   23.6972 N   0  0  0  0  0  0  0  0  0  0  0  0
    5.6532   -8.2488   16.1089 C   0  0  0  0  0  0  0  0  0  0  0  0
    7.1091   -6.5264   17.9577 C   0  0  0  0  0  0  0  0  0  0  0  0
    8.6438   -6.4626   16.8291 C   0  0  0  0  0  0  0  0  0  0  0  0
   11.1119   -3.8815   22.2453 O   0  0  0  0  0  0  0  0  0  0  0  0
    9.6445   -5.1840   18.7175 C   0  0  0  0  0  0  0  0  0  0  0  0
    9.3295    1.5498   23.8235 C   0  0  0  0  0  0  0  0  0  0  0  0
   10.7975   -3.4083   17.3949 C   0  0  0  0  0  0  0  0  0  0  0  0
   10.5219   -3.5432   21.5954 O   0  0  0  0  0  0  0  0  0  0  0  0
    9.2470   -6.4367   18.6862 N   0  0  0  0  0  0  0  0  0  0  0  0
    9.3070   -0.9000   25.5749 C   0  0  0  0  0  0  0  0  0  0  0  0
   10.8114   -4.0927   20.4362 C   0  0  0  0  0  0  0  0  0  0  0  0
   10.4660   -1.3391   23.0539 He  0  0  0  0  0  0  0  0  0  0  0  0
    8.4610    1.3211   24.5485 He  0  0  0  0  0  0  0  0  0  0  0  0
   10.9301   -2.7610   18.7202 He  0  0  0  0  0  0  0  0  0  0  0  0
    7.4569   -8.2239   16.1389 He  0  0  0  0  0  0  0  0  0  0  0  0
    8.6065    0.0227   26.0308 He  0  0  0  0  0  0  0  0  0  0  0  0
    7.4881   -5.3064   16.3918 He  0  0  0  0  0  0  0  0  0  0  0  0
  1  2  4  0
  1  9  3  0
  1 12  4  0
  2  4  2  0
  2  5  2  0
  2 10  4  0
  2 14  4  0
  2 15  4  0
  2 16  4  0
  3  4  1  0
  3  8  4  0
  3 10  4  0
  3 16  4  0
  3 17  4  0
  3 18  2  0
  3 19  3  0
  4  5  1  0
  4 11  2  0
  4 16  2  0
  4 17  2  0
  5  6  4  0
  5 19  4  0
  6 15  4  0
  7 10  1  0
  7 17  4  0
  8 14  4  0
  9 10  1  0
  9 11  1  0
  9 13  4  0
  9 19  2  0
 10 11  1  0
 10 18  2  0
 10 20  4  0
 11 17  2  0
 11 20  1  0
 13 17  1  0
 14 17  2  0
 14 18  4  0
 17 20  1  0
M  END
$$$$

 Created by Python create_sdf_string function

 26 29  0  0  0  0  0  0  0  0999 V2000
   10.3638   -1.8378   23.1897 C   0  0  0  0  0  0  0  0  0  0  0  0
    9.2029   -5.1325   16.5268 N   0  0  0  0  0  0  0  0  0  0  0  0
    9.9876   -4.5584   17.6018 C   0  0  0  0  0  0  0  0  0  0  0  0
    8.5057    1.3721   25.0177 C   0  0  0  0  0  0  0  0  0  0  0  0
    6.1050   -6.9235   15.4664 C   0  0  0  0  0  0  0  0  0  0  0  0
    5.4439   -8.2872   16.6238 C   0  0  0  0  0  0  0  0  0  0  0  0
   11.0033   -2.9435   19.0869 C   0  0  0  0  0  0  0  0  0  0  0  0
    9.8624   -0.7073   23.9046 C   0  0  0  0  0  0  0  0  0  0  0  0
    7.2400   -8.3800   16.7629 C   0  0  0  0  0  0  0  0  0  0  0  0
    9.8525    0.5078   23.2648 N   0  0  0  0  0  0  0  0  0  0  0  0
    8.5835    0.2039   25.7167 C   0  0  0  0  0  0  0  0  0  0  0  0
   10.6015   -1.9370   21.8644 N   0  0  0  0  0  0  0  0  0  0  0  0
   10.2474   -4.9777   19.9022 C   0  0  0  0  0  0  0  0  0  0  0  0
   10.6144   -3.0355   23.6979 N   0  0  0  0  0  0  0  0  0  0  0  0
    5.8389   -8.1741   16.3262 C   0  0  0  0  0  0  0  0  0  0  0  0
    7.4312   -7.2384   17.0155 C   0  0  0  0  0  0  0  0  0  0  0  0
    8.5354   -6.3179   17.2861 C   0  0  0  0  0  0  0  0  0  0  0  0
    7.1028   -6.0612   15.4523 C   0  0  0  0  0  0  0  0  0  0  0  0
   10.8025   -3.9646   22.5764 O   0  0  0  0  0  0  0  0  0  0  0  0
    9.7849   -5.3755   18.6760 C   0  0  0  0  0  0  0  0  0  0  0  0
    9.1585    1.5319   23.8359 C   0  0  0  0  0  0  0  0  0  0  0  0
   10.7014   -3.4106   17.7344 C   0  0  0  0  0  0  0  0  0  0  0  0
   10.7606   -3.2097   21.4415 C   0  0  0  0  0  0  0  0  0  0  0  0
    9.0928   -6.4830   18.4270 N   0  0  0  0  0  0  0  0  0  0  0  0
    9.2997   -0.8514   25.1976 C   0  0  0  0  0  0  0  0  0  0  0  0
   10.7162   -3.7056   20.1158 C   0  0  0  0  0  0  0  0  0  0  0  0
  1  8  1  0
  1 12  4  0
  1 14  4  0
  2  3  4  0
  2 17  4  0
  3 20  4  0
  3 22  4  0
  4 11  4  0
  4 21  4  0
  5 15  4  0
  5 18  4  0
  6 15  4  0
  7 22  4  0
  7 26  4  0
  8 10  4  0
  8 25  4  0
  9 15  4  0
  9 16  4  0
 10 21  4  0
 11 25  4  0
 12 23  4  0
 13 20  4  0
 13 26  4  0
 14 19  4  0
 16 17  1  0
 17 24  4  0
 19 23  4  0
 20 24  4  0
 23 26  1  0
M  END
$$$$

 Created by Python create_sdf_string function

 26 45  0  0  0  0  0  0  0  0999 V2000
   10.4311   -2.0349   22.9046 C   0  0  0  0  0  0  0  0  0  0  0  0
    9.3748   -5.4933   16.6221 N   0  0  0  0  0  0  0  0  0  0  0  0
    9.8450   -4.5616   17.3598 C   0  0  0  0  0  0  0  0  0  0  0  0
    8.8978    1.2638   25.2226 C   0  0  0  0  0  0  0  0  0  0  0  0
    6.5022   -7.0237   15.3438 F   0  0  0  0  0  0  0  0  0  0  0  0
    4.4951   -8.3837   16.1768 O   0  0  0  0  0  0  0  0  0  0  0  0
    9.8075   -0.2239   23.7466 C   0  0  0  0  0  0  0  0  0  0  0  0
    7.9083   -8.8409   17.5418 S   0  0  0  0  0  0  0  0  0  0  0  0
    9.5104    0.8736   22.8962 Cl  0  0  0  0  0  0  0  0  0  0  0  0
    8.7391    0.0575   25.4947 C   0  0  0  0  0  0  0  0  0  0  0  0
   10.4270   -3.1925   23.7607 N   0  0  0  0  0  0  0  0  0  0  0  0
    6.5789   -7.4565   17.4736 N   0  0  0  0  0  0  0  0  0  0  0  0
    8.6459   -6.7026   17.5089 C   0  0  0  0  0  0  0  0  0  0  0  0
    7.8112   -7.1875   15.7383 C   0  0  0  0  0  0  0  0  0  0  0  0
   10.6611   -3.6706   22.3808 O   0  0  0  0  0  0  0  0  0  0  0  0
    9.3993    1.5201   24.0818 C   0  0  0  0  0  0  0  0  0  0  0  0
   10.6579   -3.7184   17.6301 C   0  0  0  0  0  0  0  0  0  0  0  0
   10.6463   -3.2657   21.7868 C   0  0  0  0  0  0  0  0  0  0  0  0
    8.9086   -6.8097   18.3258 N   0  0  0  0  0  0  0  0  0  0  0  0
    9.1100   -1.1900   25.2445 C   0  0  0  0  0  0  0  0  0  0  0  0
   10.5723   -4.0122   19.5939 C   0  0  0  0  0  0  0  0  0  0  0  0
   10.9689   -2.6008   19.2409 He  0  0  0  0  0  0  0  0  0  0  0  0
    9.7700   -1.9002   22.1246 He  0  0  0  0  0  0  0  0  0  0  0  0
   10.7136   -5.1578   19.8631 He  0  0  0  0  0  0  0  0  0  0  0  0
    4.9287   -8.1312   17.0781 He  0  0  0  0  0  0  0  0  0  0  0  0
    9.9102   -5.3179   18.8879 He  0  0  0  0  0  0  0  0  0  0  0  0
  1  7  1  0
  1 11  4  0
  1 14  1  0
  2  3  4  0
  2  4  3  0
  2 13  4  0
  2 21  4  0
  3  7  3  0
  3 10  1  0
  3 12  3  0
  3 17  4  0
  4 10  3  0
  4 15  2  0
  4 16  4  0
  5 14  4  0
  5 20  4  0
  6  8  1  0
  6  9  3  0
  6 10  2  0
  6 14  3  0
  6 15  1  0
  6 17  2  0
  6 19  4  0
  6 20  2  0
  7  9  4  0
  7 13  4  0
  7 20  4  0
  8 10  4  0
  8 11  3  0
  8 15  1  0
  9 13  2  0
  9 14  1  0
  9 16  4  0
  9 19  1  0
 10 14  3  0
 10 20  4  0
 11 12  3  0
 11 15  4  0
 11 20  3  0
 12 16  4  0
 12 17  1  0
 12 18  2  0
 14 18  1  0
 14 21  1  0
 18 21  1  0
M  END
$$$$

 Created by Python create_sdf_string function

 26 28  0  0  0  0  0  0  0  0999 V2000
   10.1843   -1.9230   23.1425 C   0  0  0  0  0  0  0  0  0  0  0  0
    9.2862   -5.3814   16.5680 N   0  0  0  0  0  0  0  0  0  0  0  0
    9.9399   -4.8020   17.5952 C   0  0  0  0  0  0  0  0  0  0  0  0
    8.7565    1.4199   25.1702 C   0  0  0  0  0  0  0  0  0  0  0  0
    6.4935   -7.1371   15.6316 C   0  0  0  0  0  0  0  0  0  0  0  0
    5.0001   -8.2230   16.5758 C   0  0  0  0  0  0  0  0  0  0  0  0
   10.9189   -3.0460   19.0409 C   0  0  0  0  0  0  0  0  0  0  0  0
    9.7216   -0.7583   23.8673 C   0  0  0  0  0  0  0  0  0  0  0  0
    6.9955   -8.3294   17.7799 C   0  0  0  0  0  0  0  0  0  0  0  0
    9.8061    0.4614   23.2495 C   0  0  0  0  0  0  0  0  0  0  0  0
    8.7094    0.1981   25.7683 C   0  0  0  0  0  0  0  0  0  0  0  0
   10.4254   -2.0620   21.8442 N   0  0  0  0  0  0  0  0  0  0  0  0
   10.2187   -5.1009   19.9498 C   0  0  0  0  0  0  0  0  0  0  0  0
   10.4235   -3.1398   23.6748 N   0  0  0  0  0  0  0  0  0  0  0  0
    5.5145   -7.8956   16.2496 C   0  0  0  0  0  0  0  0  0  0  0  0
    6.4350   -8.2748   17.7291 C   0  0  0  0  0  0  0  0  0  0  0  0
    8.6055   -6.4715   17.0545 C   0  0  0  0  0  0  0  0  0  0  0  0
    7.6410   -6.9604   16.3450 C   0  0  0  0  0  0  0  0  0  0  0  0
   10.6892   -4.0642   22.5667 O   0  0  0  0  0  0  0  0  0  0  0  0
    9.7844   -5.6135   18.6796 C   0  0  0  0  0  0  0  0  0  0  0  0
    9.2999    1.5402   23.8952 C   0  0  0  0  0  0  0  0  0  0  0  0
   10.6177   -3.5539   17.6892 C   0  0  0  0  0  0  0  0  0  0  0  0
   10.6372   -3.3464   21.4184 C   0  0  0  0  0  0  0  0  0  0  0  0
    9.1196   -6.7185   18.3434 N   0  0  0  0  0  0  0  0  0  0  0  0
    9.1739   -0.9282   25.1518 C   0  0  0  0  0  0  0  0  0  0  0  0
   10.6307   -3.8132   20.1060 C   0  0  0  0  0  0  0  0  0  0  0  0
  1  8  1  0
  1 12  4  0
  1 14  4  0
  2  3  4  0
  2 17  4  0
  3 20  4  0
  3 22  4  0
  4 11  4  0
  4 21  4  0
  5 15  4  0
  5 18  4  0
  6 15  4  0
  7 22  4  0
  7 26  4  0
  8 10  4  0
  8 25  4  0
  9 16  4  0
 10 21  4  0
 11 25  4  0
 12 23  4  0
 13 20  4  0
 13 26  4  0
 14 19  4  0
 17 18  4  0
 17 24  4  0
 19 23  4  0
 20 24  4  0
 23 26  1  0
M  END
$$$$

 Created by Python create_sdf_string function

 26 43  0  0  0  0  0  0  0  0999 V2000
   10.4227   -2.2677   22.9556 C   0  0  0  0  0  0  0  0  0  0  0  0
   10.1117   -5.0212   17.6923 C   0  0  0  0  0  0  0  0  0  0  0  0
    6.6529   -7.4492   15.6686 C   0  0  0  0  0  0  0  0  0  0  0  0
   11.1055   -3.3393   19.0013 C   0  0  0  0  0  0  0  0  0  0  0  0
   10.1327   -1.0696   23.8566 C   0  0  0  0  0  0  0  0  0  0  0  0
    6.5977   -8.3446   17.9035 C   0  0  0  0  0  0  0  0  0  0  0  0
    9.6095    0.9641   23.3204 C   0  0  0  0  0  0  0  0  0  0  0  0
    8.8614    0.4574   26.1735 C   0  0  0  0  0  0  0  0  0  0  0  0
    9.9505   -1.9568   22.2725 Cl  0  0  0  0  0  0  0  0  0  0  0  0
   10.2633   -4.8602   19.9661 C   0  0  0  0  0  0  0  0  0  0  0  0
   10.1281   -3.0293   23.8177 N   0  0  0  0  0  0  0  0  0  0  0  0
    5.7845   -8.9111   17.7860 C   0  0  0  0  0  0  0  0  0  0  0  0
    8.4116   -5.7682   17.2916 C   0  0  0  0  0  0  0  0  0  0  0  0
    7.3927   -7.9008   15.2462 O   0  0  0  0  0  0  0  0  0  0  0  0
   10.9392   -4.4528   22.5929 O   0  0  0  0  0  0  0  0  0  0  0  0
    9.7559   -5.9798   18.8313 C   0  0  0  0  0  0  0  0  0  0  0  0
    9.2200    1.4489   23.6883 C   0  0  0  0  0  0  0  0  0  0  0  0
   10.5616   -3.4771   21.3777 C   0  0  0  0  0  0  0  0  0  0  0  0
    9.0321   -6.5304   18.2463 N   0  0  0  0  0  0  0  0  0  0  0  0
    9.1715   -1.0571   24.9497 C   0  0  0  0  0  0  0  0  0  0  0  0
   10.6548   -3.8793   20.1706 C   0  0  0  0  0  0  0  0  0  0  0  0
    9.0962   -5.2983   16.5793 He  0  0  0  0  0  0  0  0  0  0  0  0
    8.2969    1.3909   25.2442 He  0  0  0  0  0  0  0  0  0  0  0  0
    4.2798   -8.1455   17.6363 He  0  0  0  0  0  0  0  0  0  0  0  0
    4.9821   -7.8996   16.3532 He  0  0  0  0  0  0  0  0  0  0  0  0
   10.0928   -3.1743   17.6589 He  0  0  0  0  0  0  0  0  0  0  0  0
  1  5  1  0
  1  9  4  0
  1 11  2  0
  1 18  2  0
  2  4  1  0
  2 12  2  0
  2 14  4  0
  2 16  4  0
  3  5  1  0
  3  6  1  0
  3  9  3  0
  3 11  1  0
  3 18  2  0
  4  8  3  0
  4 16  1  0
  4 21  4  0
  5  7  4  0
  5 12  4  0
  5 20  4  0
  6  9  4  0
  6 11  4  0
  6 12  4  0
  6 17  1  0
  6 20  2  0
  7  9  1  0
  7 17  4  0
  8 15  1  0
  8 20  4  0
  9 18  4  0
 10 12  2  0
 10 13  4  0
 10 16  4  0
 10 21  4  0
 11 13  2  0
 11 15  4  0
 12 15  1  0
 12 16  3  0
 12 17  4  0
 13 15  4  0
 15 18  3  0
 16 19  4  0
 18 19  2  0
 18 21  1  0
M  END
$$$$

 Created by Python create_sdf_string function

 26 27  0  0  0  0  0  0  0  0999 V2000
   10.1680   -2.0429   23.2128 C   0  0  0  0  0  0  0  0  0  0  0  0
    9.0708   -5.2773   16.5164 N   0  0  0  0  0  0  0  0  0  0  0  0
    9.7612   -4.7263   17.5863 C   0  0  0  0  0  0  0  0  0  0  0  0
    8.6152    1.3674   25.1196 C   0  0  0  0  0  0  0  0  0  0  0  0
    6.6234   -7.7393   16.3460 C   0  0  0  0  0  0  0  0  0  0  0  0
    4.9839   -8.2774   16.9019 C   0  0  0  0  0  0  0  0  0  0  0  0
   10.7790   -3.1015   19.0932 C   0  0  0  0  0  0  0  0  0  0  0  0
    9.7343   -0.8355   23.9357 C   0  0  0  0  0  0  0  0  0  0  0  0
    6.5781   -8.2484   17.9227 C   0  0  0  0  0  0  0  0  0  0  0  0
    9.7565    0.3804   23.2616 C   0  0  0  0  0  0  0  0  0  0  0  0
    8.6800    0.1930   25.8266 C   0  0  0  0  0  0  0  0  0  0  0  0
   10.4120   -2.1856   21.9133 N   0  0  0  0  0  0  0  0  0  0  0  0
   10.2029   -5.2480   19.9043 C   0  0  0  0  0  0  0  0  0  0  0  0
   10.3977   -3.2011   23.7916 N   0  0  0  0  0  0  0  0  0  0  0  0
    5.2401   -7.9059   16.2441 C   0  0  0  0  0  0  0  0  0  0  0  0
    6.3277   -8.1986   17.8279 C   0  0  0  0  0  0  0  0  0  0  0  0
    8.5422   -6.4504   17.0373 C   0  0  0  0  0  0  0  0  0  0  0  0
    7.2150   -7.2692   16.2624 C   0  0  0  0  0  0  0  0  0  0  0  0
   10.6632   -4.2251   22.5920 O   0  0  0  0  0  0  0  0  0  0  0  0
    9.6361   -5.5875   18.6276 C   0  0  0  0  0  0  0  0  0  0  0  0
    9.1739    1.4650   23.8426 C   0  0  0  0  0  0  0  0  0  0  0  0
   10.4957   -3.5524   17.7218 C   0  0  0  0  0  0  0  0  0  0  0  0
   10.6075   -3.4948   21.5053 C   0  0  0  0  0  0  0  0  0  0  0  0
    8.9158   -6.7294   18.2300 N   0  0  0  0  0  0  0  0  0  0  0  0
    9.2819   -0.9118   25.2808 C   0  0  0  0  0  0  0  0  0  0  0  0
   10.5640   -3.9319   20.1659 C   0  0  0  0  0  0  0  0  0  0  0  0
  1  8  1  0
  1 12  4  0
  1 14  4  0
  2  3  4  0
  2 17  4  0
  3 20  4  0
  3 22  4  0
  4 11  4  0
  4 21  4  0
  5 15  4  0
  5 18  4  0
  6 15  4  0
  7 22  4  0
  7 26  4  0
  8 10  4  0
  8 25  4  0
  9 16  4  0
 10 21  4  0
 11 25  4  0
 12 23  4  0
 13 20  4  0
 13 26  4  0
 14 19  4  0
 17 24  4  0
 19 23  4  0
 20 24  4  0
 23 26  1  0
M  END
$$$$

 Created by Python create_sdf_string function

 26 43  0  0  0  0  0  0  0  0999 V2000
   10.2620   -1.7745   23.0948 C   0  0  0  0  0  0  0  0  0  0  0  0
    9.4148   -4.7936   16.3862 N   0  0  0  0  0  0  0  0  0  0  0  0
    9.9898   -4.5219   17.3935 C   0  0  0  0  0  0  0  0  0  0  0  0
    8.5799    1.3743   25.0615 Br  0  0  0  0  0  0  0  0  0  0  0  0
    5.7242   -7.5111   16.2455 C   0  0  0  0  0  0  0  0  0  0  0  0
    5.0284   -7.5559   16.4347 F   0  0  0  0  0  0  0  0  0  0  0  0
   10.5633   -3.0000   18.8369 C   0  0  0  0  0  0  0  0  0  0  0  0
    9.4109   -0.8280   24.1450 C   0  0  0  0  0  0  0  0  0  0  0  0
    7.0818   -8.0440   17.8923 C   0  0  0  0  0  0  0  0  0  0  0  0
    9.5551    0.2169   23.5418 C   0  0  0  0  0  0  0  0  0  0  0  0
   10.3073   -2.3877   21.6082 N   0  0  0  0  0  0  0  0  0  0  0  0
   10.4029   -5.2375   19.9736 C   0  0  0  0  0  0  0  0  0  0  0  0
   10.2382   -3.1703   23.6540 N   0  0  0  0  0  0  0  0  0  0  0  0
    8.5170   -6.6603   16.8597 C   0  0  0  0  0  0  0  0  0  0  0  0
   10.7403   -4.4279   22.5888 O   0  0  0  0  0  0  0  0  0  0  0  0
    9.4763   -5.7287   18.4992 C   0  0  0  0  0  0  0  0  0  0  0  0
    9.1621    1.6012   23.8603 C   0  0  0  0  0  0  0  0  0  0  0  0
   10.3508   -3.7458   18.1348 C   0  0  0  0  0  0  0  0  0  0  0  0
   10.5968   -3.1922   21.5936 C   0  0  0  0  0  0  0  0  0  0  0  0
    8.9279   -6.2435   18.2493 N   0  0  0  0  0  0  0  0  0  0  0  0
    9.2948   -0.9339   25.5932 C   0  0  0  0  0  0  0  0  0  0  0  0
   11.0988   -3.9798   19.8242 C   0  0  0  0  0  0  0  0  0  0  0  0
    8.3395    0.2805   26.0940 He  0  0  0  0  0  0  0  0  0  0  0  0
    6.4035   -7.3247   17.5214 He  0  0  0  0  0  0  0  0  0  0  0  0
    6.1958   -8.9909   17.4940 He  0  0  0  0  0  0  0  0  0  0  0  0
    7.2294   -5.8592   16.2579 He  0  0  0  0  0  0  0  0  0  0  0  0
  1  5  3  0
  1  8  1  0
  1 13  4  0
  1 22  4  0
  2  3  4  0
  2  6  4  0
  2  9  1  0
  2 12  2  0
  2 14  4  0
  3  6  2  0
  3 18  4  0
  4 17  4  0
  5  6  2  0
  5 16  2  0
  6  8  4  0
  6 14  2  0
  6 19  4  0
  7 17  4  0
  7 18  4  0
  7 22  4  0
  8 10  4  0
  8 16  2  0
  8 21  4  0
  9 16  3  0
  9 20  1  0
  9 21  4  0
 10 11  4  0
 10 17  4  0
 11 19  4  0
 11 22  2  0
 12 14  2  0
 12 16  1  0
 12 22  4  0
 13 15  4  0
 13 19  1  0
 13 20  2  0
 14 19  2  0
 14 20  2  0
 15 16  3  0
 15 19  4  0
 16 20  4  0
 19 21  3  0
 19 22  1  0
M  END
$$$$

 Created by Python create_sdf_string function

 26 30  0  0  0  0  0  0  0  0999 V2000
   10.1082   -2.0041   23.2548 C   0  0  0  0  0  0  0  0  0  0  0  0
    9.1787   -5.0777   16.4619 N   0  0  0  0  0  0  0  0  0  0  0  0
    9.9055   -4.5982   17.5805 C   0  0  0  0  0  0  0  0  0  0  0  0
    8.5340    1.3740   25.2182 C   0  0  0  0  0  0  0  0  0  0  0  0
    5.6659   -7.3278   16.0454 C   0  0  0  0  0  0  0  0  0  0  0  0
    5.1398   -8.0015   16.4002 C   0  0  0  0  0  0  0  0  0  0  0  0
   10.8795   -3.0359   19.1172 C   0  0  0  0  0  0  0  0  0  0  0  0
    9.6444   -0.8416   23.9935 C   0  0  0  0  0  0  0  0  0  0  0  0
    6.7838   -8.2427   17.9493 C   0  0  0  0  0  0  0  0  0  0  0  0
    9.6731    0.3457   23.3586 C   0  0  0  0  0  0  0  0  0  0  0  0
    8.5703    0.2113   25.9224 C   0  0  0  0  0  0  0  0  0  0  0  0
   10.3889   -2.1393   21.8920 N   0  0  0  0  0  0  0  0  0  0  0  0
   10.2236   -5.2053   19.8584 C   0  0  0  0  0  0  0  0  0  0  0  0
   10.3190   -3.1688   23.7550 N   0  0  0  0  0  0  0  0  0  0  0  0
    7.0759   -7.3298   17.2215 C   0  0  0  0  0  0  0  0  0  0  0  0
    5.6559   -8.8216   17.5209 C   0  0  0  0  0  0  0  0  0  0  0  0
    8.3857   -6.1552   16.9289 C   0  0  0  0  0  0  0  0  0  0  0  0
    7.1640   -6.5592   16.2987 C   0  0  0  0  0  0  0  0  0  0  0  0
   10.6478   -4.1469   22.5903 O   0  0  0  0  0  0  0  0  0  0  0  0
    9.6984   -5.4983   18.5821 C   0  0  0  0  0  0  0  0  0  0  0  0
    9.0789    1.4798   23.9619 C   0  0  0  0  0  0  0  0  0  0  0  0
   10.5582   -3.4362   17.7580 C   0  0  0  0  0  0  0  0  0  0  0  0
   10.5748   -3.4256   21.4690 C   0  0  0  0  0  0  0  0  0  0  0  0
    8.8898   -6.5216   18.2020 N   0  0  0  0  0  0  0  0  0  0  0  0
    9.1351   -0.9207   25.3164 C   0  0  0  0  0  0  0  0  0  0  0  0
   10.5825   -3.8778   20.1243 C   0  0  0  0  0  0  0  0  0  0  0  0
  1  8  1  0
  1 12  4  0
  1 14  4  0
  2  3  4  0
  2 17  4  0
  3 20  4  0
  3 22  4  0
  4 11  4  0
  4 21  4  0
  5  6  4  0
  5 18  4  0
  6 16  4  0
  7 22  4  0
  7 26  4  0
  8 10  4  0
  8 25  4  0
  9 15  4  0
  9 16  4  0
 10 21  4  0
 11 25  4  0
 12 23  4  0
 13 20  4  0
 13 26  4  0
 14 19  4  0
 15 18  4  0
 17 18  4  0
 17 24  4  0
 19 23  4  0
 20 24  4  0
 23 26  1  0
M  END
$$$$

 Created by Python create_sdf_string function

 26 55  0  0  0  0  0  0  0  0999 V2000
   10.2830   -2.2569   23.5361 C   0  0  0  0  0  0  0  0  0  0  0  0
    9.3888   -5.2392   16.1353 N   0  0  0  0  0  0  0  0  0  0  0  0
    8.3184    1.3170   25.1722 C   0  0  0  0  0  0  0  0  0  0  0  0
   11.0590   -2.3902   19.2895 C   0  0  0  0  0  0  0  0  0  0  0  0
    9.8277   -1.0519   23.9484 C   0  0  0  0  0  0  0  0  0  0  0  0
    7.5415   -7.4706   18.0291 C   0  0  0  0  0  0  0  0  0  0  0  0
    9.7915    0.5897   23.3131 C   0  0  0  0  0  0  0  0  0  0  0  0
    9.0324    0.0055   26.0796 C   0  0  0  0  0  0  0  0  0  0  0  0
   10.4173   -1.8366   21.4072 N   0  0  0  0  0  0  0  0  0  0  0  0
   10.4463   -5.1668   19.8514 C   0  0  0  0  0  0  0  0  0  0  0  0
   10.2190   -2.9470   23.5752 N   0  0  0  0  0  0  0  0  0  0  0  0
    6.8590   -8.8492   16.5568 C   0  0  0  0  0  0  0  0  0  0  0  0
    8.3755   -6.1956   16.5805 C   0  0  0  0  0  0  0  0  0  0  0  0
    7.3890   -6.8833   16.1181 I   0  0  0  0  0  0  0  0  0  0  0  0
   10.9012   -3.8741   22.5394 O   0  0  0  0  0  0  0  0  0  0  0  0
    9.9057   -5.7003   18.2196 O   0  0  0  0  0  0  0  0  0  0  0  0
    9.0357    1.4463   24.0440 C   0  0  0  0  0  0  0  0  0  0  0  0
   10.5693   -3.4415   17.6613 C   0  0  0  0  0  0  0  0  0  0  0  0
   10.8672   -3.3934   21.8693 C   0  0  0  0  0  0  0  0  0  0  0  0
    9.0057   -6.7750   18.1472 C   0  0  0  0  0  0  0  0  0  0  0  0
    9.1133   -1.2653   25.3643 C   0  0  0  0  0  0  0  0  0  0  0  0
   10.5408   -3.7201   19.6909 C   0  0  0  0  0  0  0  0  0  0  0  0
    9.6474   -4.8437   17.6041 He  0  0  0  0  0  0  0  0  0  0  0  0
    5.5777   -8.1988   15.7650 He  0  0  0  0  0  0  0  0  0  0  0  0
    4.7011   -8.0372   15.8919 He  0  0  0  0  0  0  0  0  0  0  0  0
    4.8453   -8.5058   17.4297 He  0  0  0  0  0  0  0  0  0  0  0  0
  1  5  1  0
  1  6  2  0
  1  9  4  0
  1 11  4  0
  1 12  2  0
  1 13  3  0
  1 16  2  0
  2 13  4  0
  2 15  1  0
  2 20  4  0
  3  7  1  0
  3  8  4  0
  3 12  1  0
  3 13  2  0
  3 14  4  0
  3 15  2  0
  3 17  4  0
  4  6  1  0
  4 10  2  0
  4 14  2  0
  4 18  1  0
  4 22  4  0
  5  6  4  0
  5  7  4  0
  5 21  4  0
  6 10  2  0
  6 11  2  0
  6 12  4  0
  6 18  2  0
  7 17  4  0
  8 14  3  0
  8 18  4  0
  8 21  4  0
  9 12  4  0
  9 19  4  0
  9 21  4  0
 10 13  4  0
 10 15  2  0
 10 16  4  0
 10 20  4  0
 10 22  4  0
 11 15  4  0
 12 16  1  0
 12 20  1  0
 12 21  2  0
 13 14  4  0
 13 20  4  0
 14 15  1  0
 14 17  1  0
 14 20  4  0
 14 21  1  0
 14 22  4  0
 15 19  4  0
 15 21  1  0
 19 22  1  0
M  END
$$$$

 Created by Python create_sdf_string function

 26 30  0  0  0  0  0  0  0  0999 V2000
   10.2253   -2.0157   23.1958 C   0  0  0  0  0  0  0  0  0  0  0  0
    9.2555   -5.1701   16.3485 N   0  0  0  0  0  0  0  0  0  0  0  0
    9.8994   -4.6965   17.4871 C   0  0  0  0  0  0  0  0  0  0  0  0
    8.5887    1.2096   25.3141 C   0  0  0  0  0  0  0  0  0  0  0  0
    6.0520   -7.8461   15.6447 C   0  0  0  0  0  0  0  0  0  0  0  0
    5.0841   -8.3493   16.2674 C   0  0  0  0  0  0  0  0  0  0  0  0
   10.8740   -3.0269   18.9427 C   0  0  0  0  0  0  0  0  0  0  0  0
    9.7378   -0.8863   23.9897 C   0  0  0  0  0  0  0  0  0  0  0  0
    6.7314   -8.0277   18.0012 C   0  0  0  0  0  0  0  0  0  0  0  0
    9.7023    0.3418   23.3817 C   0  0  0  0  0  0  0  0  0  0  0  0
    8.6567   -0.0117   25.9339 C   0  0  0  0  0  0  0  0  0  0  0  0
   10.5194   -2.0760   21.8730 N   0  0  0  0  0  0  0  0  0  0  0  0
   10.2642   -5.1222   19.7801 C   0  0  0  0  0  0  0  0  0  0  0  0
   10.3957   -3.2427   23.6279 N   0  0  0  0  0  0  0  0  0  0  0  0
    6.7024   -7.9761   16.9746 C   0  0  0  0  0  0  0  0  0  0  0  0
    5.3344   -8.6462   17.5865 C   0  0  0  0  0  0  0  0  0  0  0  0
    8.5222   -6.2867   16.7339 C   0  0  0  0  0  0  0  0  0  0  0  0
    7.4434   -6.9260   15.9695 C   0  0  0  0  0  0  0  0  0  0  0  0
   10.6533   -4.1077   22.4769 O   0  0  0  0  0  0  0  0  0  0  0  0
    9.7051   -5.5627   18.5133 C   0  0  0  0  0  0  0  0  0  0  0  0
    9.1034    1.3955   24.0302 C   0  0  0  0  0  0  0  0  0  0  0  0
   10.5407   -3.5153   17.5913 C   0  0  0  0  0  0  0  0  0  0  0  0
   10.6666   -3.3602   21.3730 C   0  0  0  0  0  0  0  0  0  0  0  0
    8.8155   -6.6029   17.9573 C   0  0  0  0  0  0  0  0  0  0  0  0
    9.2733   -1.0720   25.2938 C   0  0  0  0  0  0  0  0  0  0  0  0
   10.6498   -3.8126   20.0154 C   0  0  0  0  0  0  0  0  0  0  0  0
  1  8  1  0
  1 12  4  0
  1 14  4  0
  2  3  4  0
  2 17  4  0
  3 20  4  0
  3 22  4  0
  4 11  4  0
  4 21  4  0
  5  6  4  0
  5 18  4  0
  6 16  4  0
  7 22  4  0
  7 26  4  0
  8 10  4  0
  8 25  4  0
  9 15  4  0
  9 16  4  0
 10 21  4  0
 11 25  4  0
 12 23  4  0
 13 20  4  0
 13 26  4  0
 14 19  4  0
 15 18  4  0
 17 18  4  0
 17 24  4  0
 19 23  4  0
 20 24  4  0
 23 26  1  0
M  END
$$$$

 Created by Python create_sdf_string function

 26 51  0  0  0  0  0  0  0  0999 V2000
   10.2223   -2.1703   23.0352 C   0  0  0  0  0  0  0  0  0  0  0  0
    9.1653   -4.9493   16.4112 N   0  0  0  0  0  0  0  0  0  0  0  0
    9.7604   -4.7180   17.2210 C   0  0  0  0  0  0  0  0  0  0  0  0
    8.5069    1.0476   25.0031 C   0  0  0  0  0  0  0  0  0  0  0  0
    6.0728   -8.2687   16.2799 C   0  0  0  0  0  0  0  0  0  0  0  0
    5.7918   -7.8420   16.7161 C   0  0  0  0  0  0  0  0  0  0  0  0
   11.0021   -2.9153   18.8295 C   0  0  0  0  0  0  0  0  0  0  0  0
    9.5139   -0.9096   23.9885 C   0  0  0  0  0  0  0  0  0  0  0  0
    7.2559   -7.6300   19.0953 C   0  0  0  0  0  0  0  0  0  0  0  0
    9.7233    0.3168   23.0257 C   0  0  0  0  0  0  0  0  0  0  0  0
   10.4832   -1.8379   22.0400 N   0  0  0  0  0  0  0  0  0  0  0  0
   10.6331   -5.2048   20.1697 C   0  0  0  0  0  0  0  0  0  0  0  0
   10.4753   -2.7837   24.1099 N   0  0  0  0  0  0  0  0  0  0  0  0
    6.6015   -8.1664   16.3772 O   0  0  0  0  0  0  0  0  0  0  0  0
    3.9774   -7.8966   16.8652 N   0  0  0  0  0  0  0  0  0  0  0  0
    8.4486   -6.1983   16.6690 B   0  0  0  0  0  0  0  0  0  0  0  0
    7.7832   -7.7020   16.0752 F   0  0  0  0  0  0  0  0  0  0  0  0
   10.6356   -4.1288   21.8305 F   0  0  0  0  0  0  0  0  0  0  0  0
    9.3952   -5.3431   18.7511 C   0  0  0  0  0  0  0  0  0  0  0  0
   10.6843   -3.9466   17.3947 C   0  0  0  0  0  0  0  0  0  0  0  0
   10.5053   -3.5409   21.3342 C   0  0  0  0  0  0  0  0  0  0  0  0
    8.8273   -6.5564   17.9936 C   0  0  0  0  0  0  0  0  0  0  0  0
    9.4099   -1.0377   25.2260 C   0  0  0  0  0  0  0  0  0  0  0  0
    8.5610    0.0718   25.6999 He  0  0  0  0  0  0  0  0  0  0  0  0
    8.7163    1.7361   24.0957 He  0  0  0  0  0  0  0  0  0  0  0  0
   10.6426   -3.7367   20.0780 He  0  0  0  0  0  0  0  0  0  0  0  0
  1  2  4  0
  1  3  1  0
  1 10  4  0
  1 11  4  0
  1 13  4  0
  2  3  4  0
  2 10  1  0
  2 12  3  0
  2 13  3  0
  2 16  4  0
  3 11  3  0
  3 19  4  0
  5  8  2  0
  5  9  2  0
  5 13  1  0
  5 16  3  0
  5 17  4  0
  5 21  3  0
  5 22  3  0
  6  7  3  0
  6 13  4  0
  6 15  4  0
  7 13  2  0
  7 16  2  0
  7 20  4  0
  7 22  4  0
  8 23  4  0
  9 10  3  0
  9 15  4  0
  9 16  1  0
  9 23  3  0
 10 17  3  0
 11 14  1  0
 11 15  3  0
 11 16  2  0
 11 21  4  0
 12 14  2  0
 12 19  4  0
 13 15  3  0
 13 18  4  0
 14 15  2  0
 14 16  2  0
 14 17  4  0
 14 19  4  0
 15 18  4  0
 15 20  2  0
 16 17  4  0
 16 22  4  0
 17 20  4  0
 19 22  4  0
 22 23  2  0
M  END
$$$$

 Created by Python create_sdf_string function

 26 29  0  0  0  0  0  0  0  0999 V2000
   10.2376   -1.9802   23.1524 C   0  0  0  0  0  0  0  0  0  0  0  0
    9.2618   -5.2726   16.3521 N   0  0  0  0  0  0  0  0  0  0  0  0
    9.8394   -4.7629   17.4968 C   0  0  0  0  0  0  0  0  0  0  0  0
    8.4316    1.2238   25.1364 C   0  0  0  0  0  0  0  0  0  0  0  0
    6.2418   -8.1976   16.4096 C   0  0  0  0  0  0  0  0  0  0  0  0
    5.4866   -8.1196   16.9732 C   0  0  0  0  0  0  0  0  0  0  0  0
   10.9347   -3.1166   18.9377 C   0  0  0  0  0  0  0  0  0  0  0  0
    9.7329   -0.8450   23.8975 C   0  0  0  0  0  0  0  0  0  0  0  0
    6.5626   -7.7398   18.1625 C   0  0  0  0  0  0  0  0  0  0  0  0
    9.6841    0.3532   23.2541 C   0  0  0  0  0  0  0  0  0  0  0  0
    8.5826    0.0513   25.8006 N   0  0  0  0  0  0  0  0  0  0  0  0
   10.4788   -2.0663   21.8307 N   0  0  0  0  0  0  0  0  0  0  0  0
   10.1168   -5.0825   19.8409 C   0  0  0  0  0  0  0  0  0  0  0  0
   10.4528   -3.1571   23.6663 N   0  0  0  0  0  0  0  0  0  0  0  0
    6.9653   -8.0386   16.2889 C   0  0  0  0  0  0  0  0  0  0  0  0
    4.8403   -8.1585   17.1599 N   0  0  0  0  0  0  0  0  0  0  0  0
    8.5731   -6.3922   16.8389 C   0  0  0  0  0  0  0  0  0  0  0  0
    7.7306   -7.3104   16.0253 C   0  0  0  0  0  0  0  0  0  0  0  0
   10.6929   -4.1107   22.4699 O   0  0  0  0  0  0  0  0  0  0  0  0
    9.6182   -5.5124   18.5806 C   0  0  0  0  0  0  0  0  0  0  0  0
    8.9974    1.3923   23.8820 N   0  0  0  0  0  0  0  0  0  0  0  0
   10.5676   -3.5796   17.6085 C   0  0  0  0  0  0  0  0  0  0  0  0
   10.6534   -3.3639   21.3625 C   0  0  0  0  0  0  0  0  0  0  0  0
    8.7573   -6.5183   18.2075 C   0  0  0  0  0  0  0  0  0  0  0  0
    9.2525   -1.0226   25.2093 C   0  0  0  0  0  0  0  0  0  0  0  0
   10.6186   -3.8474   20.0085 C   0  0  0  0  0  0  0  0  0  0  0  0
  1  8  1  0
  1 12  4  0
  1 14  4  0
  2  3  4  0
  2 17  4  0
  3 20  4  0
  3 22  4  0
  4 11  4  0
  4 21  4  0
  5  6  4  0
  5 15  4  0
  6 16  4  0
  7 22  4  0
  7 26  4  0
  8 10  4  0
  8 25  4  0
  9 16  4  0
 10 21  4  0
 11 25  4  0
 12 23  4  0
 13 20  4  0
 13 26  4  0
 14 19  4  0
 15 18  4  0
 17 18  4  0
 17 24  4  0
 19 23  4  0
 20 24  4  0
 23 26  1  0
M  END
$$$$

 Created by Python create_sdf_string function

 26 36  0  0  0  0  0  0  0  0999 V2000
   10.2877   -2.0775   23.0272 C   0  0  0  0  0  0  0  0  0  0  0  0
    9.1734   -5.3412   16.8165 N   0  0  0  0  0  0  0  0  0  0  0  0
   10.0648   -4.8205   17.5174 C   0  0  0  0  0  0  0  0  0  0  0  0
   10.6408   -3.1747   19.2169 C   0  0  0  0  0  0  0  0  0  0  0  0
    9.9188   -0.7039   24.1211 C   0  0  0  0  0  0  0  0  0  0  0  0
    9.7040    0.2453   23.3974 C   0  0  0  0  0  0  0  0  0  0  0  0
    8.6872   -0.0130   26.0912 N   0  0  0  0  0  0  0  0  0  0  0  0
   10.6344   -2.0281   22.0482 N   0  0  0  0  0  0  0  0  0  0  0  0
   10.1155   -5.1627   20.0574 C   0  0  0  0  0  0  0  0  0  0  0  0
   10.4613   -3.5210   23.9191 N   0  0  0  0  0  0  0  0  0  0  0  0
    4.5583   -8.9721   18.1559 N   0  0  0  0  0  0  0  0  0  0  0  0
    8.3550   -6.5514   17.2511 C   0  0  0  0  0  0  0  0  0  0  0  0
    8.7437   -7.6250   15.9293 C   0  0  0  0  0  0  0  0  0  0  0  0
   10.5696   -4.0109   22.4717 O   0  0  0  0  0  0  0  0  0  0  0  0
    9.3497   -6.1258   18.5759 C   0  0  0  0  0  0  0  0  0  0  0  0
    9.0208    1.1731   23.7844 N   0  0  0  0  0  0  0  0  0  0  0  0
   10.5334   -3.9775   17.7354 C   0  0  0  0  0  0  0  0  0  0  0  0
    8.3802   -6.5393   17.9941 F   0  0  0  0  0  0  0  0  0  0  0  0
    9.1996   -0.8483   25.4510 C   0  0  0  0  0  0  0  0  0  0  0  0
   10.6198   -3.5424   20.0876 C   0  0  0  0  0  0  0  0  0  0  0  0
    8.3867    1.5412   25.0502 He  0  0  0  0  0  0  0  0  0  0  0  0
    7.0027   -7.8374   17.0973 He  0  0  0  0  0  0  0  0  0  0  0  0
    4.6321   -7.7183   16.8082 He  0  0  0  0  0  0  0  0  0  0  0  0
    6.6682   -8.0206   19.1099 He  0  0  0  0  0  0  0  0  0  0  0  0
    6.9262   -7.7922   17.0964 He  0  0  0  0  0  0  0  0  0  0  0  0
   11.0384   -3.3948   21.3625 He  0  0  0  0  0  0  0  0  0  0  0  0
  1  5  1  0
  1  8  4  0
  1 10  2  0
  2  3  4  0
  2  9  1  0
  2 12  4  0
  2 13  4  0
  2 16  3  0
  3 15  4  0
  3 17  4  0
  4 11  1  0
  4 17  4  0
  4 18  1  0
  4 19  1  0
  4 20  4  0
  5  6  4  0
  5 19  4  0
  6 16  4  0
  6 18  2  0
  7 11  4  0
  7 12  1  0
  7 16  1  0
  7 19  4  0
  8 15  2  0
  9 13  3  0
  9 15  4  0
  9 18  1  0
 10 11  1  0
 10 14  4  0
 11 13  4  0
 11 14  4  0
 12 13  4  0
 12 18  4  0
 13 17  3  0
 15 18  4  0
 16 18  1  0
M  END
$$$$

 Created by Python create_sdf_string function

 26 30  0  0  0  0  0  0  0  0999 V2000
   10.2644   -2.0278   23.2992 C   0  0  0  0  0  0  0  0  0  0  0  0
    9.4525   -5.4572   16.4492 N   0  0  0  0  0  0  0  0  0  0  0  0
    9.8816   -4.8788   17.6354 C   0  0  0  0  0  0  0  0  0  0  0  0
    8.4746    1.2450   25.1340 C   0  0  0  0  0  0  0  0  0  0  0  0
    6.5855   -7.9757   17.4579 C   0  0  0  0  0  0  0  0  0  0  0  0
    5.1543   -8.1118   16.8687 C   0  0  0  0  0  0  0  0  0  0  0  0
   10.8846   -3.1601   19.0446 C   0  0  0  0  0  0  0  0  0  0  0  0
    9.7766   -0.8898   23.9935 C   0  0  0  0  0  0  0  0  0  0  0  0
    6.2970   -8.1533   18.5346 C   0  0  0  0  0  0  0  0  0  0  0  0
    9.7012    0.3137   23.3291 C   0  0  0  0  0  0  0  0  0  0  0  0
    8.6390    0.1210   25.8866 N   0  0  0  0  0  0  0  0  0  0  0  0
   10.5938   -2.0880   21.9912 N   0  0  0  0  0  0  0  0  0  0  0  0
   10.0910   -5.1334   19.9942 C   0  0  0  0  0  0  0  0  0  0  0  0
   10.3956   -3.2672   23.7583 N   0  0  0  0  0  0  0  0  0  0  0  0
    6.7774   -7.9882   16.3724 C   0  0  0  0  0  0  0  0  0  0  0  0
    4.8961   -8.3961   17.6492 N   0  0  0  0  0  0  0  0  0  0  0  0
    8.5717   -6.6564   17.0702 C   0  0  0  0  0  0  0  0  0  0  0  0
    8.2663   -7.2025   15.9337 C   0  0  0  0  0  0  0  0  0  0  0  0
   10.6468   -4.1716   22.6129 O   0  0  0  0  0  0  0  0  0  0  0  0
    9.5736   -5.5940   18.7122 C   0  0  0  0  0  0  0  0  0  0  0  0
    9.0164    1.3767   23.9098 N   0  0  0  0  0  0  0  0  0  0  0  0
   10.5718   -3.6661   17.7495 C   0  0  0  0  0  0  0  0  0  0  0  0
   10.6459   -3.3709   21.4933 C   0  0  0  0  0  0  0  0  0  0  0  0
    8.7248   -6.7074   18.3624 N   0  0  0  0  0  0  0  0  0  0  0  0
    9.2946   -0.9476   25.3214 C   0  0  0  0  0  0  0  0  0  0  0  0
   10.5780   -3.8670   20.1604 C   0  0  0  0  0  0  0  0  0  0  0  0
  1  8  1  0
  1 12  4  0
  1 14  4  0
  2  3  4  0
  2 17  4  0
  3 20  4  0
  3 22  4  0
  4 11  4  0
  4 21  4  0
  5  9  4  0
  5 15  4  0
  6 15  4  0
  6 16  4  0
  7 22  4  0
  7 26  4  0
  8 10  4  0
  8 25  4  0
  9 16  4  0
 10 21  4  0
 11 25  4  0
 12 23  4  0
 13 20  4  0
 13 26  4  0
 14 19  4  0
 15 18  4  0
 17 18  1  0
 17 24  4  0
 19 23  4  0
 20 24  4  0
 23 26  1  0
M  END
$$$$

 Created by Python create_sdf_string function

 26 37  0  0  0  0  0  0  0  0999 V2000
    9.7511   -1.8830   23.4340 C   0  0  0  0  0  0  0  0  0  0  0  0
    9.3167   -5.8033   16.4714 N   0  0  0  0  0  0  0  0  0  0  0  0
    9.6098   -4.6520   17.5326 C   0  0  0  0  0  0  0  0  0  0  0  0
    8.1683    1.2690   25.3688 C   0  0  0  0  0  0  0  0  0  0  0  0
    6.9852   -7.7536   17.6264 C   0  0  0  0  0  0  0  0  0  0  0  0
    5.4613   -8.7447   17.7220 C   0  0  0  0  0  0  0  0  0  0  0  0
   10.6667   -3.1594   19.3673 C   0  0  0  0  0  0  0  0  0  0  0  0
    9.7813   -0.6429   24.2531 C   0  0  0  0  0  0  0  0  0  0  0  0
    9.4424    0.0784   23.2688 C   0  0  0  0  0  0  0  0  0  0  0  0
    8.1566    0.1774   26.0532 N   0  0  0  0  0  0  0  0  0  0  0  0
   10.8810   -2.0023   22.1871 N   0  0  0  0  0  0  0  0  0  0  0  0
   10.2872   -3.1565   23.6180 N   0  0  0  0  0  0  0  0  0  0  0  0
    8.0382   -6.6515   16.8538 C   0  0  0  0  0  0  0  0  0  0  0  0
    8.5061   -6.3501   16.7215 C   0  0  0  0  0  0  0  0  0  0  0  0
   10.7628   -4.0244   22.5424 O   0  0  0  0  0  0  0  0  0  0  0  0
    9.6692   -5.6839   18.5531 C   0  0  0  0  0  0  0  0  0  0  0  0
    9.4277    1.3492   24.0383 N   0  0  0  0  0  0  0  0  0  0  0  0
    8.9625   -6.7803   18.3443 N   0  0  0  0  0  0  0  0  0  0  0  0
    9.4321   -1.2009   25.4556 Cl  0  0  0  0  0  0  0  0  0  0  0  0
   11.0020   -3.9111   20.1057 C   0  0  0  0  0  0  0  0  0  0  0  0
    6.3626   -8.0260   18.2201 He  0  0  0  0  0  0  0  0  0  0  0  0
   10.0718   -4.8334   19.9541 He  0  0  0  0  0  0  0  0  0  0  0  0
    7.3638   -7.8296   16.6644 He  0  0  0  0  0  0  0  0  0  0  0  0
    4.5932   -8.8395   19.0266 He  0  0  0  0  0  0  0  0  0  0  0  0
   10.8611   -3.5163   17.9540 He  0  0  0  0  0  0  0  0  0  0  0  0
   10.7933   -3.4242   21.6233 He  0  0  0  0  0  0  0  0  0  0  0  0
  1  8  1  0
  1  9  4  0
  1 11  4  0
  1 20  2  0
  2  3  4  0
  2 13  4  0
  3  4  1  0
  3  9  1  0
  3 10  2  0
  3 14  3  0
  3 16  4  0
  4  6  2  0
  4  7  4  0
  4 10  4  0
  4 17  4  0
  5  7  2  0
  5 12  3  0
  5 13  2  0
  5 16  4  0
  5 17  3  0
  6  8  4  0
  6 10  4  0
  6 14  4  0
  6 15  1  0
  7 10  2  0
  7 14  3  0
  7 20  4  0
  8  9  4  0
 10 19  4  0
 11 20  1  0
 12 15  4  0
 13 17  1  0
 13 18  4  0
 14 17  2  0
 16 18  4  0
 17 19  2  0
 17 20  2  0
M  END
$$$$

 Created by Python create_sdf_string function

 26 30  0  0  0  0  0  0  0  0999 V2000
   10.1984   -2.0155   23.3380 C   0  0  0  0  0  0  0  0  0  0  0  0
    9.3965   -5.0873   16.3707 N   0  0  0  0  0  0  0  0  0  0  0  0
    9.9053   -4.7540   17.5998 C   0  0  0  0  0  0  0  0  0  0  0  0
    8.4038    1.2212   25.3056 C   0  0  0  0  0  0  0  0  0  0  0  0
    7.0324   -7.7429   17.4448 C   0  0  0  0  0  0  0  0  0  0  0  0
    5.3768   -8.8756   17.0335 C   0  0  0  0  0  0  0  0  0  0  0  0
   10.9280   -3.0697   19.0956 C   0  0  0  0  0  0  0  0  0  0  0  0
    9.6888   -0.8940   24.0877 C   0  0  0  0  0  0  0  0  0  0  0  0
    6.4202   -7.9118   18.5220 C   0  0  0  0  0  0  0  0  0  0  0  0
    9.7334    0.3133   23.4917 C   0  0  0  0  0  0  0  0  0  0  0  0
    8.4589    0.0338   25.9762 N   0  0  0  0  0  0  0  0  0  0  0  0
   10.6107   -2.1093   22.0210 N   0  0  0  0  0  0  0  0  0  0  0  0
   10.1628   -5.0866   19.9866 C   0  0  0  0  0  0  0  0  0  0  0  0
   10.2673   -3.2253   23.8211 N   0  0  0  0  0  0  0  0  0  0  0  0
    6.5778   -8.2904   16.5842 C   0  0  0  0  0  0  0  0  0  0  0  0
    5.2149   -8.8811   18.0996 N   0  0  0  0  0  0  0  0  0  0  0  0
    8.3544   -6.7699   17.4492 C   0  0  0  0  0  0  0  0  0  0  0  0
    8.5528   -6.1673   16.3184 C   0  0  0  0  0  0  0  0  0  0  0  0
   10.6271   -4.1350   22.6933 O   0  0  0  0  0  0  0  0  0  0  0  0
    9.6984   -5.5056   18.7079 C   0  0  0  0  0  0  0  0  0  0  0  0
    8.9938    1.3795   24.0992 N   0  0  0  0  0  0  0  0  0  0  0  0
   10.5885   -3.5611   17.7457 C   0  0  0  0  0  0  0  0  0  0  0  0
   10.6713   -3.3529   21.5580 C   0  0  0  0  0  0  0  0  0  0  0  0
    8.9854   -6.6246   18.5162 N   0  0  0  0  0  0  0  0  0  0  0  0
    9.0771   -1.0655   25.3374 C   0  0  0  0  0  0  0  0  0  0  0  0
   10.6249   -3.8219   20.1965 C   0  0  0  0  0  0  0  0  0  0  0  0
  1  8  1  0
  1 12  4  0
  1 14  4  0
  2  3  4  0
  2 18  4  0
  3 20  4  0
  3 22  4  0
  4 11  4  0
  4 21  4  0
  5  9  4  0
  5 15  4  0
  5 17  1  0
  6 15  4  0
  6 16  4  0
  7 22  4  0
  7 26  4  0
  8 10  4  0
  8 25  4  0
  9 16  4  0
 10 21  4  0
 11 25  4  0
 12 23  4  0
 13 20  4  0
 13 26  4  0
 14 19  4  0
 17 18  4  0
 17 24  4  0
 19 23  4  0
 20 24  4  0
 23 26  1  0
M  END
$$$$

 Created by Python create_sdf_string function

 26 52  0  0  0  0  0  0  0  0999 V2000
    9.8876   -2.3216   23.4757 C   0  0  0  0  0  0  0  0  0  0  0  0
    9.3338   -4.9215   16.4092 N   0  0  0  0  0  0  0  0  0  0  0  0
    9.9678   -4.6896   17.7857 C   0  0  0  0  0  0  0  0  0  0  0  0
    8.2753    0.8241   25.2432 C   0  0  0  0  0  0  0  0  0  0  0  0
    6.6429   -7.7606   16.8529 C   0  0  0  0  0  0  0  0  0  0  0  0
   11.0684   -3.1174   19.3314 C   0  0  0  0  0  0  0  0  0  0  0  0
    9.4924   -0.5797   24.5035 C   0  0  0  0  0  0  0  0  0  0  0  0
    7.5764   -7.2435   18.5073 C   0  0  0  0  0  0  0  0  0  0  0  0
    9.6130    0.4655   23.3201 C   0  0  0  0  0  0  0  0  0  0  0  0
    8.0654   -0.0986   25.7613 C   0  0  0  0  0  0  0  0  0  0  0  0
   10.3238   -2.0133   21.6732 N   0  0  0  0  0  0  0  0  0  0  0  0
   10.1384   -4.8329   20.4141 C   0  0  0  0  0  0  0  0  0  0  0  0
   10.0756   -3.3386   23.7385 N   0  0  0  0  0  0  0  0  0  0  0  0
    5.1324   -8.7200   17.6630 N   0  0  0  0  0  0  0  0  0  0  0  0
    8.2320   -6.7489   16.8975 C   0  0  0  0  0  0  0  0  0  0  0  0
    8.0156   -5.7047   17.0257 C   0  0  0  0  0  0  0  0  0  0  0  0
   10.5357   -4.6814   22.5285 O   0  0  0  0  0  0  0  0  0  0  0  0
    9.4068   -5.0987   18.4856 C   0  0  0  0  0  0  0  0  0  0  0  0
    8.9919    1.0493   23.8939 N   0  0  0  0  0  0  0  0  0  0  0  0
   10.6700   -3.4718   17.9850 C   0  0  0  0  0  0  0  0  0  0  0  0
   10.5002   -3.3723   21.3804 C   0  0  0  0  0  0  0  0  0  0  0  0
    9.2435   -6.6511   18.9112 N   0  0  0  0  0  0  0  0  0  0  0  0
    8.8544   -0.9317   25.3284 C   0  0  0  0  0  0  0  0  0  0  0  0
   10.8620   -3.6362   20.1007 C   0  0  0  0  0  0  0  0  0  0  0  0
    6.5552   -8.2792   16.5453 He  0  0  0  0  0  0  0  0  0  0  0  0
    6.5431   -8.7612   16.8481 He  0  0  0  0  0  0  0  0  0  0  0  0
  1  4  3  0
  1  7  1  0
  1 11  4  0
  1 13  4  0
  1 23  4  0
  2  3  4  0
  2  5  1  0
  2 14  1  0
  2 16  1  0
  3  5  2  0
  3  8  1  0
  3 18  4  0
  3 20  4  0
  4  8  4  0
  4 10  4  0
  4 19  4  0
  4 24  3  0
  5  8  2  0
  5 15  2  0
  5 19  4  0
  5 20  4  0
  5 21  2  0
  6  8  4  0
  6  9  4  0
  6 24  4  0
  7  9  4  0
  7 23  4  0
  8 10  2  0
  8 15  2  0
  8 18  1  0
  8 19  3  0
  8 23  3  0
  9 19  4  0
 10 23  4  0
 11 14  2  0
 11 20  2  0
 11 21  4  0
 12 18  4  0
 12 21  4  0
 12 24  4  0
 13 14  2  0
 13 17  4  0
 14 16  2  0
 14 20  4  0
 15 16  4  0
 15 22  4  0
 16 18  4  0
 17 21  1  0
 18 22  4  0
 21 23  2  0
 21 24  1  0
 23 24  2  0
M  END
$$$$

 Created by Python create_sdf_string function

 26 30  0  0  0  0  0  0  0  0999 V2000
    9.9901   -2.0942   23.3410 C   0  0  0  0  0  0  0  0  0  0  0  0
    9.2816   -4.7517   16.4908 N   0  0  0  0  0  0  0  0  0  0  0  0
    9.9050   -4.5058   17.6773 C   0  0  0  0  0  0  0  0  0  0  0  0
    8.2011    1.1494   25.1399 C   0  0  0  0  0  0  0  0  0  0  0  0
    6.1795   -7.9536   17.2747 C   0  0  0  0  0  0  0  0  0  0  0  0
    6.0184   -8.8969   16.5990 C   0  0  0  0  0  0  0  0  0  0  0  0
   10.9679   -3.0233   19.1674 C   0  0  0  0  0  0  0  0  0  0  0  0
    9.5197   -0.9686   24.0433 C   0  0  0  0  0  0  0  0  0  0  0  0
    7.3615   -7.6871   17.7069 C   0  0  0  0  0  0  0  0  0  0  0  0
    9.6428    0.2825   23.4660 C   0  0  0  0  0  0  0  0  0  0  0  0
    8.2088   -0.0632   25.8372 C   0  0  0  0  0  0  0  0  0  0  0  0
   10.3677   -2.1062   22.0450 N   0  0  0  0  0  0  0  0  0  0  0  0
   10.1082   -5.0238   19.9972 C   0  0  0  0  0  0  0  0  0  0  0  0
   10.1284   -3.3362   23.8270 N   0  0  0  0  0  0  0  0  0  0  0  0
    6.4594   -8.7000   16.8906 C   0  0  0  0  0  0  0  0  0  0  0  0
    5.2333   -8.7643   17.2233 N   0  0  0  0  0  0  0  0  0  0  0  0
    8.2323   -6.7058   17.5194 C   0  0  0  0  0  0  0  0  0  0  0  0
    8.5066   -5.7959   16.4185 C   0  0  0  0  0  0  0  0  0  0  0  0
   10.4753   -4.2372   22.6764 O   0  0  0  0  0  0  0  0  0  0  0  0
    9.6867   -5.3720   18.7445 C   0  0  0  0  0  0  0  0  0  0  0  0
    8.9664    1.3356   24.0353 N   0  0  0  0  0  0  0  0  0  0  0  0
   10.6909   -3.4177   17.8434 C   0  0  0  0  0  0  0  0  0  0  0  0
   10.5078   -3.3711   21.5939 C   0  0  0  0  0  0  0  0  0  0  0  0
    8.9804   -6.5293   18.5551 N   0  0  0  0  0  0  0  0  0  0  0  0
    8.8918   -1.1550   25.2997 C   0  0  0  0  0  0  0  0  0  0  0  0
   10.5614   -3.7691   20.2198 C   0  0  0  0  0  0  0  0  0  0  0  0
  1  8  1  0
  1 12  4  0
  1 14  4  0
  2  3  4  0
  2 18  4  0
  3 20  4  0
  3 22  4  0
  4 11  4  0
  4 21  4  0
  5  9  4  0
  5 16  4  0
  6 15  4  0
  6 16  4  0
  7 22  4  0
  7 26  4  0
  8 10  4  0
  8 25  4  0
  9 15  4  0
  9 17  4  0
 10 21  4  0
 11 25  4  0
 12 23  4  0
 13 20  4  0
 13 26  4  0
 14 19  4  0
 17 18  4  0
 17 24  4  0
 19 23  4  0
 20 24  4  0
 23 26  1  0
M  END
$$$$

 Created by Python create_sdf_string function

 26 49  0  0  0  0  0  0  0  0999 V2000
    9.4754   -2.2134   23.7310 C   0  0  0  0  0  0  0  0  0  0  0  0
    9.2214   -4.7790   16.7808 N   0  0  0  0  0  0  0  0  0  0  0  0
   10.0322   -4.6566   17.6584 C   0  0  0  0  0  0  0  0  0  0  0  0
    8.4820    1.3233   25.3624 C   0  0  0  0  0  0  0  0  0  0  0  0
    6.1232   -7.9889   18.7505 F   0  0  0  0  0  0  0  0  0  0  0  0
   11.1102   -2.6961   19.1207 C   0  0  0  0  0  0  0  0  0  0  0  0
    9.5091   -0.9429   23.8778 C   0  0  0  0  0  0  0  0  0  0  0  0
    9.9602   -0.0435   23.3952 C   0  0  0  0  0  0  0  0  0  0  0  0
    8.4627   -0.1901   26.0532 F   0  0  0  0  0  0  0  0  0  0  0  0
   10.5858   -1.8854   22.0732 N   0  0  0  0  0  0  0  0  0  0  0  0
    9.8660   -5.1175   19.8396 C   0  0  0  0  0  0  0  0  0  0  0  0
   10.4742   -3.3407   23.9770 N   0  0  0  0  0  0  0  0  0  0  0  0
    6.4768   -9.1597   17.5570 P   0  0  0  0  0  0  0  0  0  0  0  0
    4.8211   -9.0272   17.3049 O   0  0  0  0  0  0  0  0  0  0  0  0
    8.4356   -6.9139   17.5659 C   0  0  0  0  0  0  0  0  0  0  0  0
    9.3983   -6.4832   15.8768 F   0  0  0  0  0  0  0  0  0  0  0  0
   10.6141   -4.4022   22.9004 O   0  0  0  0  0  0  0  0  0  0  0  0
    9.5640   -5.4358   18.8620 C   0  0  0  0  0  0  0  0  0  0  0  0
    8.9573    1.2068   24.1405 N   0  0  0  0  0  0  0  0  0  0  0  0
   10.6124   -3.0295   17.8621 C   0  0  0  0  0  0  0  0  0  0  0  0
   10.4960   -3.6387   22.0529 C   0  0  0  0  0  0  0  0  0  0  0  0
    9.0267   -6.5177   18.4501 N   0  0  0  0  0  0  0  0  0  0  0  0
    8.7882   -1.2473   25.3918 C   0  0  0  0  0  0  0  0  0  0  0  0
   10.7294   -3.5245   19.8055 N   0  0  0  0  0  0  0  0  0  0  0  0
    6.1191   -8.7077   16.7700 He  0  0  0  0  0  0  0  0  0  0  0  0
    8.0759   -7.0964   18.5333 He  0  0  0  0  0  0  0  0  0  0  0  0
  1  7  1  0
  1 10  4  0
  1 12  4  0
  1 14  4  0
  1 21  3  0
  2  3  4  0
  2 13  2  0
  3  4  2  0
  3  5  4  0
  3 10  4  0
  3 18  4  0
  3 20  4  0
  3 23  2  0
  4  5  4  0
  4  9  4  0
  4 10  2  0
  4 14  1  0
  4 18  2  0
  4 19  4  0
  4 20  2  0
  5  6  4  0
  5 14  4  0
  5 19  3  0
  6  8  4  0
  6 20  4  0
  6 24  4  0
  7  8  4  0
  7 19  4  0
  7 23  4  0
  8 12  2  0
  8 14  1  0
  8 18  3  0
  8 19  4  0
  9 23  4  0
 10 24  2  0
 11 13  1  0
 11 18  1  0
 11 24  4  0
 12 17  4  0
 12 18  3  0
 13 17  2  0
 14 16  1  0
 14 17  1  0
 14 20  1  0
 14 23  1  0
 15 16  4  0
 15 22  4  0
 17 21  4  0
 18 22  4  0
M  END
$$$$

 Created by Python create_sdf_string function

 26 30  0  0  0  0  0  0  0  0999 V2000
   10.0677   -2.1845   23.4582 C   0  0  0  0  0  0  0  0  0  0  0  0
    9.4966   -4.9899   16.4803 N   0  0  0  0  0  0  0  0  0  0  0  0
    9.9426   -4.5176   17.6778 C   0  0  0  0  0  0  0  0  0  0  0  0
    8.4972    1.1593   25.3382 C   0  0  0  0  0  0  0  0  0  0  0  0
    6.2128   -7.7126   18.4007 C   0  0  0  0  0  0  0  0  0  0  0  0
    5.8418   -9.0757   16.9030 N   0  0  0  0  0  0  0  0  0  0  0  0
   10.9202   -2.9563   19.2926 C   0  0  0  0  0  0  0  0  0  0  0  0
    9.5874   -1.0382   24.1506 C   0  0  0  0  0  0  0  0  0  0  0  0
    7.3753   -7.6771   17.6062 C   0  0  0  0  0  0  0  0  0  0  0  0
    9.6877    0.1887   23.5297 C   0  0  0  0  0  0  0  0  0  0  0  0
    8.3824   -0.0790   25.9651 N   0  0  0  0  0  0  0  0  0  0  0  0
   10.3423   -2.1781   22.1518 N   0  0  0  0  0  0  0  0  0  0  0  0
   10.1010   -4.9894   20.0480 C   0  0  0  0  0  0  0  0  0  0  0  0
   10.2471   -3.4189   23.9287 N   0  0  0  0  0  0  0  0  0  0  0  0
    7.0468   -8.6925   16.7532 C   0  0  0  0  0  0  0  0  0  0  0  0
    5.2545   -8.5479   17.8388 N   0  0  0  0  0  0  0  0  0  0  0  0
    8.3974   -6.7849   17.5746 C   0  0  0  0  0  0  0  0  0  0  0  0
    8.7497   -6.0820   16.4069 C   0  0  0  0  0  0  0  0  0  0  0  0
   10.6141   -4.2556   22.7524 O   0  0  0  0  0  0  0  0  0  0  0  0
    9.6958   -5.3291   18.7463 C   0  0  0  0  0  0  0  0  0  0  0  0
    9.1582    1.2731   24.1376 N   0  0  0  0  0  0  0  0  0  0  0  0
   10.6279   -3.3230   17.9109 C   0  0  0  0  0  0  0  0  0  0  0  0
   10.5626   -3.4295   21.6662 C   0  0  0  0  0  0  0  0  0  0  0  0
    9.0397   -6.5088   18.6258 N   0  0  0  0  0  0  0  0  0  0  0  0
    8.9348   -1.1869   25.3938 C   0  0  0  0  0  0  0  0  0  0  0  0
   10.5734   -3.7851   20.2833 C   0  0  0  0  0  0  0  0  0  0  0  0
  1  8  1  0
  1 12  4  0
  1 14  4  0
  2  3  4  0
  2 18  4  0
  3 20  4  0
  3 22  4  0
  4 11  4  0
  4 21  4  0
  5  9  4  0
  5 16  4  0
  6 15  4  0
  6 16  4  0
  7 22  4  0
  7 26  4  0
  8 10  4  0
  8 25  4  0
  9 15  4  0
  9 17  1  0
 10 21  4  0
 11 25  4  0
 12 23  4  0
 13 20  4  0
 13 26  4  0
 14 19  4  0
 17 18  4  0
 17 24  4  0
 19 23  4  0
 20 24  4  0
 23 26  1  0
M  END
$$$$

 Created by Python create_sdf_string function

 26 52  0  0  0  0  0  0  0  0999 V2000
   10.0247   -2.3461   23.4082 C   0  0  0  0  0  0  0  0  0  0  0  0
    9.5897   -5.0429   16.9123 N   0  0  0  0  0  0  0  0  0  0  0  0
    9.6968   -4.2454   17.9413 C   0  0  0  0  0  0  0  0  0  0  0  0
    8.3772    1.0292   25.2854 C   0  0  0  0  0  0  0  0  0  0  0  0
    6.1478   -8.3633   18.4305 C   0  0  0  0  0  0  0  0  0  0  0  0
    4.3726   -9.1576   16.3533 Cl  0  0  0  0  0  0  0  0  0  0  0  0
   11.0083   -3.1843   19.1400 C   0  0  0  0  0  0  0  0  0  0  0  0
   10.0003   -1.0212   24.1749 S   0  0  0  0  0  0  0  0  0  0  0  0
    9.7183    0.1218   23.4590 C   0  0  0  0  0  0  0  0  0  0  0  0
    8.6348    0.2009   25.9455 N   0  0  0  0  0  0  0  0  0  0  0  0
   10.1867   -1.9875   22.3562 N   0  0  0  0  0  0  0  0  0  0  0  0
    9.9367   -4.7162   19.9779 C   0  0  0  0  0  0  0  0  0  0  0  0
   10.3190   -3.8736   24.2676 N   0  0  0  0  0  0  0  0  0  0  0  0
    6.7347   -8.7559   16.9841 C   0  0  0  0  0  0  0  0  0  0  0  0
    5.6048   -8.4186   17.8024 N   0  0  0  0  0  0  0  0  0  0  0  0
    8.6828   -6.7552   17.5377 C   0  0  0  0  0  0  0  0  0  0  0  0
    9.0960   -5.2471   16.7352 Cl  0  0  0  0  0  0  0  0  0  0  0  0
   10.7341   -4.3169   23.0992 O   0  0  0  0  0  0  0  0  0  0  0  0
    9.8423   -5.2583   18.7695 C   0  0  0  0  0  0  0  0  0  0  0  0
    9.0230    1.4106   24.1422 S   0  0  0  0  0  0  0  0  0  0  0  0
   10.5954   -3.1211   17.8125 C   0  0  0  0  0  0  0  0  0  0  0  0
   10.7986   -3.3809   21.5716 C   0  0  0  0  0  0  0  0  0  0  0  0
    9.0861   -1.5242   25.1299 C   0  0  0  0  0  0  0  0  0  0  0  0
   10.7200   -3.6767   20.0871 C   0  0  0  0  0  0  0  0  0  0  0  0
    7.2922   -6.8438   17.2131 He  0  0  0  0  0  0  0  0  0  0  0  0
    8.9844   -6.6139   18.7973 He  0  0  0  0  0  0  0  0  0  0  0  0
  1 13  4  0
  1 20  2  0
  2  3  4  0
  2  4  2  0
  2 19  3  0
  3  5  4  0
  3  6  1  0
  3  8  1  0
  3 11  3  0
  3 19  4  0
  3 21  4  0
  4  6  3  0
  4 11  3  0
  4 14  4  0
  4 20  4  0
  4 21  1  0
  5 15  4  0
  5 16  4  0
  5 22  4  0
  6  9  2  0
  6 16  4  0
  7  8  3  0
  7 11  2  0
  7 21  4  0
  7 24  4  0
  8  9  4  0
  8 14  3  0
  8 20  2  0
  8 21  1  0
  8 22  2  0
  8 23  4  0
  9 11  1  0
  9 17  1  0
  9 18  3  0
  9 20  4  0
 10 23  4  0
 11 14  1  0
 11 20  4  0
 11 22  4  0
 12 19  4  0
 12 23  2  0
 12 24  4  0
 13 18  4  0
 14 22  1  0
 14 24  2  0
 15 21  2  0
 16 17  1  0
 17 19  2  0
 17 22  4  0
 18 22  4  0
 20 22  3  0
 22 24  1  0
M  END
$$$$

 Created by Python create_sdf_string function

 26 30  0  0  0  0  0  0  0  0999 V2000
   10.1624   -2.2391   23.5216 C   0  0  0  0  0  0  0  0  0  0  0  0
    9.4220   -4.8893   16.5371 N   0  0  0  0  0  0  0  0  0  0  0  0
    9.9540   -4.5423   17.7599 C   0  0  0  0  0  0  0  0  0  0  0  0
    8.4859    1.1075   25.3111 C   0  0  0  0  0  0  0  0  0  0  0  0
    6.3347   -7.9566   18.2679 C   0  0  0  0  0  0  0  0  0  0  0  0
    5.3400   -8.6814   16.5137 C   0  0  0  0  0  0  0  0  0  0  0  0
   10.9419   -2.9562   19.3268 C   0  0  0  0  0  0  0  0  0  0  0  0
    9.6748   -1.0767   24.2087 C   0  0  0  0  0  0  0  0  0  0  0  0
    7.1688   -7.5657   17.3652 C   0  0  0  0  0  0  0  0  0  0  0  0
    9.7657    0.1418   23.5313 C   0  0  0  0  0  0  0  0  0  0  0  0
    8.4659   -0.0532   25.9953 N   0  0  0  0  0  0  0  0  0  0  0  0
   10.4414   -2.2286   22.2416 N   0  0  0  0  0  0  0  0  0  0  0  0
   10.1368   -5.0112   20.0881 C   0  0  0  0  0  0  0  0  0  0  0  0
   10.3604   -3.4559   24.0127 N   0  0  0  0  0  0  0  0  0  0  0  0
    6.5745   -8.0071   16.2818 C   0  0  0  0  0  0  0  0  0  0  0  0
    5.3284   -8.5334   17.7834 N   0  0  0  0  0  0  0  0  0  0  0  0
    8.3628   -6.6656   17.5220 C   0  0  0  0  0  0  0  0  0  0  0  0
    8.8186   -5.8221   16.3548 C   0  0  0  0  0  0  0  0  0  0  0  0
   10.7130   -4.3158   22.8247 O   0  0  0  0  0  0  0  0  0  0  0  0
    9.7231   -5.3406   18.8112 C   0  0  0  0  0  0  0  0  0  0  0  0
    9.1225    1.2537   24.1091 N   0  0  0  0  0  0  0  0  0  0  0  0
   10.6743   -3.3172   17.9907 C   0  0  0  0  0  0  0  0  0  0  0  0
   10.6485   -3.4478   21.7453 C   0  0  0  0  0  0  0  0  0  0  0  0
    9.0089   -6.5515   18.6501 C   0  0  0  0  0  0  0  0  0  0  0  0
    9.0802   -1.1620   25.4592 C   0  0  0  0  0  0  0  0  0  0  0  0
   10.6034   -3.7820   20.3730 C   0  0  0  0  0  0  0  0  0  0  0  0
  1  8  1  0
  1 12  4  0
  1 14  4  0
  2  3  4  0
  2 18  4  0
  3 20  4  0
  3 22  4  0
  4 11  4  0
  4 21  4  0
  5  9  4  0
  5 16  4  0
  6 15  4  0
  6 16  4  0
  7 22  4  0
  7 26  4  0
  8 10  4  0
  8 25  4  0
  9 15  4  0
  9 17  1  0
 10 21  4  0
 11 25  4  0
 12 23  4  0
 13 20  4  0
 13 26  4  0
 14 19  4  0
 17 18  4  0
 17 24  4  0
 19 23  4  0
 20 24  4  0
 23 26  1  0
M  END
$$$$

 Created by Python create_sdf_string function

 26 43  0  0  0  0  0  0  0  0999 V2000
   10.3001   -2.2963   23.2327 C   0  0  0  0  0  0  0  0  0  0  0  0
    9.4339   -4.9509   16.3926 N   0  0  0  0  0  0  0  0  0  0  0  0
    9.8033   -4.3114   17.4804 C   0  0  0  0  0  0  0  0  0  0  0  0
    8.5203    0.9317   25.2356 C   0  0  0  0  0  0  0  0  0  0  0  0
    6.7388   -8.0422   17.7688 C   0  0  0  0  0  0  0  0  0  0  0  0
   11.0049   -3.1436   19.1101 C   0  0  0  0  0  0  0  0  0  0  0  0
    9.5448   -1.1264   24.3219 C   0  0  0  0  0  0  0  0  0  0  0  0
    9.8953   -0.0471   23.5314 C   0  0  0  0  0  0  0  0  0  0  0  0
    8.2606   -0.2864   26.0214 N   0  0  0  0  0  0  0  0  0  0  0  0
   10.3145   -2.0697   22.0077 N   0  0  0  0  0  0  0  0  0  0  0  0
   10.3094   -4.9942   20.3117 C   0  0  0  0  0  0  0  0  0  0  0  0
   10.4157   -3.1711   24.0175 N   0  0  0  0  0  0  0  0  0  0  0  0
    6.2422   -9.3194   17.6161 N   0  0  0  0  0  0  0  0  0  0  0  0
    8.5386   -6.6249   17.5245 C   0  0  0  0  0  0  0  0  0  0  0  0
   11.0706   -4.1084   22.7464 O   0  0  0  0  0  0  0  0  0  0  0  0
    9.5562   -5.6188   18.4885 C   0  0  0  0  0  0  0  0  0  0  0  0
    8.7093    1.1979   24.0541 N   0  0  0  0  0  0  0  0  0  0  0  0
   10.7595   -3.5084   17.8203 P   0  0  0  0  0  0  0  0  0  0  0  0
   10.5088   -3.4182   21.8106 C   0  0  0  0  0  0  0  0  0  0  0  0
    8.8554   -6.4585   18.6795 C   0  0  0  0  0  0  0  0  0  0  0  0
    9.1909   -1.3145   25.3320 C   0  0  0  0  0  0  0  0  0  0  0  0
   10.3709   -3.3701   20.1653 C   0  0  0  0  0  0  0  0  0  0  0  0
    5.8984   -9.5013   16.9925 He  0  0  0  0  0  0  0  0  0  0  0  0
    7.6024   -7.1960   17.8778 He  0  0  0  0  0  0  0  0  0  0  0  0
    5.7032   -7.3690   16.0761 He  0  0  0  0  0  0  0  0  0  0  0  0
    9.0139   -5.4857   16.0994 He  0  0  0  0  0  0  0  0  0  0  0  0
  1  7  1  0
  1 10  4  0
  1 11  2  0
  1 12  4  0
  2  3  4  0
  2  9  3  0
  2 22  3  0
  3 15  1  0
  3 16  4  0
  3 18  4  0
  4  8  2  0
  4  9  4  0
  4 17  4  0
  5  7  4  0
  5 11  2  0
  5 13  4  0
  5 14  3  0
  5 17  1  0
  6 18  4  0
  6 22  1  0
  7  8  4  0
  7 15  2  0
  7 21  4  0
  8 13  2  0
  8 17  4  0
  9 11  1  0
  9 18  2  0
  9 21  4  0
 10 19  4  0
 11 16  4  0
 11 22  4  0
 12 15  4  0
 12 22  2  0
 13 18  3  0
 13 19  3  0
 14 15  2  0
 14 16  1  0
 14 19  4  0
 14 20  4  0
 15 19  4  0
 16 20  4  0
 19 22  1  0
 20 22  4  0
M  END
$$$$

 Created by Python create_sdf_string function

 26 30  0  0  0  0  0  0  0  0999 V2000
   10.1719   -2.1496   23.4236 C   0  0  0  0  0  0  0  0  0  0  0  0
    9.5014   -4.8093   16.4039 N   0  0  0  0  0  0  0  0  0  0  0  0
    9.9709   -4.5324   17.6094 C   0  0  0  0  0  0  0  0  0  0  0  0
    8.3203    0.9613   25.3320 C   0  0  0  0  0  0  0  0  0  0  0  0
    6.8292   -8.4228   18.0611 C   0  0  0  0  0  0  0  0  0  0  0  0
    5.6176   -8.9017   16.7160 N   0  0  0  0  0  0  0  0  0  0  0  0
   10.9640   -2.9914   19.2039 C   0  0  0  0  0  0  0  0  0  0  0  0
    9.6389   -1.0776   24.1358 C   0  0  0  0  0  0  0  0  0  0  0  0
    7.1543   -7.4618   17.2224 C   0  0  0  0  0  0  0  0  0  0  0  0
    9.6272    0.1743   23.5307 C   0  0  0  0  0  0  0  0  0  0  0  0
    8.3988   -0.2149   25.9890 N   0  0  0  0  0  0  0  0  0  0  0  0
   10.3654   -2.1464   22.0924 N   0  0  0  0  0  0  0  0  0  0  0  0
   10.0820   -4.9580   19.9814 C   0  0  0  0  0  0  0  0  0  0  0  0
   10.5116   -3.3193   23.9089 N   0  0  0  0  0  0  0  0  0  0  0  0
    6.3003   -7.6420   16.2167 C   0  0  0  0  0  0  0  0  0  0  0  0
    6.0499   -9.2044   17.6809 N   0  0  0  0  0  0  0  0  0  0  0  0
    8.2479   -6.5057   17.2889 C   0  0  0  0  0  0  0  0  0  0  0  0
    8.5828   -5.7238   16.2448 C   0  0  0  0  0  0  0  0  0  0  0  0
   10.7663   -4.1708   22.7268 O   0  0  0  0  0  0  0  0  0  0  0  0
    9.6715   -5.3408   18.6697 C   0  0  0  0  0  0  0  0  0  0  0  0
    8.9661    1.1976   24.1656 N   0  0  0  0  0  0  0  0  0  0  0  0
   10.6984   -3.3832   17.8535 C   0  0  0  0  0  0  0  0  0  0  0  0
   10.6358   -3.3770   21.6403 C   0  0  0  0  0  0  0  0  0  0  0  0
    8.9336   -6.4805   18.4216 C   0  0  0  0  0  0  0  0  0  0  0  0
    9.0781   -1.2781   25.4128 C   0  0  0  0  0  0  0  0  0  0  0  0
   10.6254   -3.7774   20.2674 C   0  0  0  0  0  0  0  0  0  0  0  0
  1  8  1  0
  1 12  4  0
  1 14  4  0
  2  3  4  0
  2 18  4  0
  3 20  4  0
  3 22  4  0
  4 11  4  0
  4 21  4  0
  5  9  4  0
  5 16  4  0
  6 15  4  0
  6 16  4  0
  7 22  4  0
  7 26  4  0
  8 10  4  0
  8 25  4  0
  9 15  4  0
  9 17  1  0
 10 21  4  0
 11 25  4  0
 12 23  4  0
 13 20  4  0
 13 26  4  0
 14 19  4  0
 17 18  4  0
 17 24  4  0
 19 23  4  0
 20 24  4  0
 23 26  1  0
M  END
$$$$

 Created by Python create_sdf_string function

 26 49  0  0  0  0  0  0  0  0999 V2000
    9.9206   -2.2636   23.2949 C   0  0  0  0  0  0  0  0  0  0  0  0
    9.3375   -5.0441   16.5635 N   0  0  0  0  0  0  0  0  0  0  0  0
   10.1810   -4.5795   17.7918 C   0  0  0  0  0  0  0  0  0  0  0  0
    8.4198    0.9011   25.6028 C   0  0  0  0  0  0  0  0  0  0  0  0
    6.5203   -7.5269   18.8006 C   0  0  0  0  0  0  0  0  0  0  0  0
    6.1572   -8.5755   16.2404 N   0  0  0  0  0  0  0  0  0  0  0  0
   10.9860   -2.9901   19.1887 C   0  0  0  0  0  0  0  0  0  0  0  0
    9.5490   -0.8627   24.1568 C   0  0  0  0  0  0  0  0  0  0  0  0
    9.6896    0.3298   23.6006 C   0  0  0  0  0  0  0  0  0  0  0  0
    8.4750   -0.2124   25.7975 N   0  0  0  0  0  0  0  0  0  0  0  0
   10.2675   -1.9353   22.3417 N   0  0  0  0  0  0  0  0  0  0  0  0
    9.9427   -4.8111   19.7057 F   0  0  0  0  0  0  0  0  0  0  0  0
   10.6818   -3.3127   24.1269 N   0  0  0  0  0  0  0  0  0  0  0  0
    6.1756   -8.7424   17.9588 N   0  0  0  0  0  0  0  0  0  0  0  0
    8.3898   -6.3608   16.9383 C   0  0  0  0  0  0  0  0  0  0  0  0
    8.6963   -5.0798   16.0011 O   0  0  0  0  0  0  0  0  0  0  0  0
   10.5237   -4.1875   22.7099 O   0  0  0  0  0  0  0  0  0  0  0  0
    9.8755   -5.4893   18.5741 C   0  0  0  0  0  0  0  0  0  0  0  0
    9.0990    0.9952   23.9040 N   0  0  0  0  0  0  0  0  0  0  0  0
   11.2345   -3.7631   17.8446 P   0  0  0  0  0  0  0  0  0  0  0  0
   10.6764   -3.3282   21.4057 C   0  0  0  0  0  0  0  0  0  0  0  0
    8.9478   -1.0334   25.4085 C   0  0  0  0  0  0  0  0  0  0  0  0
   10.6686   -3.4528   20.6412 C   0  0  0  0  0  0  0  0  0  0  0  0
    7.2999   -7.4342   17.3164 He  0  0  0  0  0  0  0  0  0  0  0  0
    6.5531   -7.3821   16.2967 He  0  0  0  0  0  0  0  0  0  0  0  0
    8.9973   -6.5410   18.4453 He  0  0  0  0  0  0  0  0  0  0  0  0
  1  2  1  0
  1  7  4  0
  1 11  4  0
  1 22  3  0
  2  3  4  0
  2 12  1  0
  2 16  4  0
  3  5  2  0
  3 16  1  0
  3 20  4  0
  4 10  4  0
  4 12  4  0
  4 14  4  0
  4 19  4  0
  5  7  3  0
  5 14  4  0
  5 15  1  0
  5 16  2  0
  5 17  1  0
  5 23  3  0
  7 17  1  0
  7 20  4  0
  7 23  4  0
  8  9  4  0
  8 22  4  0
  9 15  4  0
  9 19  4  0
 10 18  3  0
 10 19  1  0
 10 20  1  0
 10 22  4  0
 11 17  3  0
 11 20  4  0
 11 21  4  0
 12 14  4  0
 12 18  4  0
 12 23  4  0
 13 17  4  0
 14 15  4  0
 15 16  4  0
 16 18  1  0
 16 19  4  0
 16 20  3  0
 16 21  3  0
 17 21  4  0
 17 22  4  0
 17 23  1  0
 19 23  4  0
 21 23  3  0
M  END
$$$$

 Created by Python create_sdf_string function

 26 30  0  0  0  0  0  0  0  0999 V2000
   10.1313   -2.1054   23.4569 C   0  0  0  0  0  0  0  0  0  0  0  0
    9.6065   -4.6082   16.3936 N   0  0  0  0  0  0  0  0  0  0  0  0
   10.1103   -4.4376   17.6520 C   0  0  0  0  0  0  0  0  0  0  0  0
    8.4035    1.0801   25.3996 C   0  0  0  0  0  0  0  0  0  0  0  0
    6.6017   -7.9197   18.2491 C   0  0  0  0  0  0  0  0  0  0  0  0
    5.7751   -8.5968   16.4868 N   0  0  0  0  0  0  0  0  0  0  0  0
   11.1128   -3.0017   19.3292 C   0  0  0  0  0  0  0  0  0  0  0  0
    9.6193   -0.9889   24.1658 C   0  0  0  0  0  0  0  0  0  0  0  0
    7.2372   -7.2429   17.1886 C   0  0  0  0  0  0  0  0  0  0  0  0
    9.6521    0.2541   23.5773 C   0  0  0  0  0  0  0  0  0  0  0  0
    8.3803   -0.1089   26.0494 N   0  0  0  0  0  0  0  0  0  0  0  0
   10.3712   -2.0987   22.1526 N   0  0  0  0  0  0  0  0  0  0  0  0
   10.1286   -4.9539   20.0082 C   0  0  0  0  0  0  0  0  0  0  0  0
   10.3647   -3.2901   23.9448 N   0  0  0  0  0  0  0  0  0  0  0  0
    6.6380   -7.6754   16.0738 N   0  0  0  0  0  0  0  0  0  0  0  0
    5.7650   -8.7117   17.8278 N   0  0  0  0  0  0  0  0  0  0  0  0
    8.2934   -6.3799   17.2533 C   0  0  0  0  0  0  0  0  0  0  0  0
    8.6242   -5.5422   16.1861 C   0  0  0  0  0  0  0  0  0  0  0  0
   10.7077   -4.1831   22.7701 O   0  0  0  0  0  0  0  0  0  0  0  0
    9.7543   -5.2623   18.6711 C   0  0  0  0  0  0  0  0  0  0  0  0
    9.0326    1.3225   24.2360 N   0  0  0  0  0  0  0  0  0  0  0  0
   10.9297   -3.3601   17.9183 C   0  0  0  0  0  0  0  0  0  0  0  0
   10.6194   -3.3541   21.6867 C   0  0  0  0  0  0  0  0  0  0  0  0
    8.9874   -6.3299   18.3732 N   0  0  0  0  0  0  0  0  0  0  0  0
    9.0109   -1.1772   25.4258 C   0  0  0  0  0  0  0  0  0  0  0  0
   10.6569   -3.7590   20.3091 C   0  0  0  0  0  0  0  0  0  0  0  0
  1  8  1  0
  1 12  4  0
  1 14  4  0
  2  3  4  0
  2 18  4  0
  3 20  4  0
  3 22  4  0
  4 11  4  0
  4 21  4  0
  5  9  4  0
  5 16  4  0
  6 15  4  0
  6 16  4  0
  7 22  4  0
  7 26  4  0
  8 10  4  0
  8 25  4  0
  9 15  4  0
  9 17  1  0
 10 21  4  0
 11 25  4  0
 12 23  4  0
 13 20  4  0
 13 26  4  0
 14 19  4  0
 17 18  4  0
 17 24  4  0
 19 23  4  0
 20 24  4  0
 23 26  1  0
M  END
$$$$

 Created by Python create_sdf_string function

 26 36  0  0  0  0  0  0  0  0999 V2000
   10.2654   -2.1555   23.6469 Se  0  0  0  0  0  0  0  0  0  0  0  0
    9.7668   -4.6926   16.6576 N   0  0  0  0  0  0  0  0  0  0  0  0
   10.0533   -4.5327   17.7604 C   0  0  0  0  0  0  0  0  0  0  0  0
    8.3019    1.2602   25.3865 C   0  0  0  0  0  0  0  0  0  0  0  0
    6.7499   -7.6600   17.6586 C   0  0  0  0  0  0  0  0  0  0  0  0
    6.2571   -9.0494   16.6447 C   0  0  0  0  0  0  0  0  0  0  0  0
    9.5685   -0.8777   24.2586 C   0  0  0  0  0  0  0  0  0  0  0  0
    7.5870   -7.1191   17.8232 C   0  0  0  0  0  0  0  0  0  0  0  0
    9.3929    0.2440   23.4556 C   0  0  0  0  0  0  0  0  0  0  0  0
    8.3199   -0.2194   25.9254 N   0  0  0  0  0  0  0  0  0  0  0  0
   10.1865   -2.2546   22.2331 N   0  0  0  0  0  0  0  0  0  0  0  0
    9.9872   -5.0402   20.0453 C   0  0  0  0  0  0  0  0  0  0  0  0
   10.2832   -3.0429   24.1231 N   0  0  0  0  0  0  0  0  0  0  0  0
    6.9411   -8.1958   16.1131 N   0  0  0  0  0  0  0  0  0  0  0  0
    5.2740   -7.9837   18.4251 N   0  0  0  0  0  0  0  0  0  0  0  0
   10.0610   -5.5153   18.3552 C   0  0  0  0  0  0  0  0  0  0  0  0
    9.1307    1.2464   24.0905 C   0  0  0  0  0  0  0  0  0  0  0  0
   10.6566   -3.2651   17.8658 C   0  0  0  0  0  0  0  0  0  0  0  0
   10.5262   -3.2701   22.1034 C   0  0  0  0  0  0  0  0  0  0  0  0
    8.6973   -0.9209   25.4045 C   0  0  0  0  0  0  0  0  0  0  0  0
   10.5688   -3.7279   20.4435 C   0  0  0  0  0  0  0  0  0  0  0  0
   11.1817   -2.7465   19.3024 He  0  0  0  0  0  0  0  0  0  0  0  0
    8.3924   -6.5804   17.2771 He  0  0  0  0  0  0  0  0  0  0  0  0
    8.4243   -5.6612   16.0508 He  0  0  0  0  0  0  0  0  0  0  0  0
   10.6787   -3.8193   22.8152 He  0  0  0  0  0  0  0  0  0  0  0  0
    9.0976   -6.1130   18.3486 He  0  0  0  0  0  0  0  0  0  0  0  0
  1  3  3  0
  1  5  2  0
  1  7  1  0
  1 11  4  0
  1 13  4  0
  2  3  4  0
  2 14  1  0
  3 16  4  0
  4  6  1  0
  4 10  4  0
  4 17  4  0
  5  8  4  0
  5 15  4  0
  5 16  4  0
  5 18  1  0
  6 15  4  0
  7  9  4  0
  7 20  4  0
  8 12  2  0
  8 14  4  0
  8 17  4  0
  8 20  1  0
  9 12  4  0
  9 17  4  0
 10 13  1  0
 10 20  4  0
 11 16  2  0
 11 21  4  0
 12 16  4  0
 12 21  4  0
 13 15  4  0
 13 21  3  0
 14 20  3  0
 16 19  1  0
 18 19  3  0
 19 21  1  0
M  END
$$$$

 Created by Python create_sdf_string function

 26 30  0  0  0  0  0  0  0  0999 V2000
   10.0648   -2.0730   23.5390 C   0  0  0  0  0  0  0  0  0  0  0  0
    9.5899   -4.6014   16.4624 N   0  0  0  0  0  0  0  0  0  0  0  0
   10.1001   -4.3737   17.7324 C   0  0  0  0  0  0  0  0  0  0  0  0
    8.3173    1.2035   25.3830 C   0  0  0  0  0  0  0  0  0  0  0  0
    6.3676   -7.4662   18.2076 C   0  0  0  0  0  0  0  0  0  0  0  0
    5.9810   -8.8613   16.7155 C   0  0  0  0  0  0  0  0  0  0  0  0
   11.0187   -2.9134   19.4426 C   0  0  0  0  0  0  0  0  0  0  0  0
    9.5380   -0.9323   24.2091 C   0  0  0  0  0  0  0  0  0  0  0  0
    7.3747   -7.3124   17.2900 C   0  0  0  0  0  0  0  0  0  0  0  0
    9.6374    0.2872   23.5655 C   0  0  0  0  0  0  0  0  0  0  0  0
    8.2671   -0.0003   26.0068 N   0  0  0  0  0  0  0  0  0  0  0  0
   10.3249   -2.1355   22.2408 N   0  0  0  0  0  0  0  0  0  0  0  0
   10.1979   -4.9969   20.0423 C   0  0  0  0  0  0  0  0  0  0  0  0
   10.3395   -3.2417   24.0779 N   0  0  0  0  0  0  0  0  0  0  0  0
    7.0924   -8.1799   16.2760 N   0  0  0  0  0  0  0  0  0  0  0  0
    5.5800   -8.4573   17.8830 N   0  0  0  0  0  0  0  0  0  0  0  0
    8.4288   -6.4530   17.3158 C   0  0  0  0  0  0  0  0  0  0  0  0
    8.7429   -5.6461   16.2332 C   0  0  0  0  0  0  0  0  0  0  0  0
   10.6836   -4.1886   22.8844 O   0  0  0  0  0  0  0  0  0  0  0  0
    9.8010   -5.2627   18.7252 C   0  0  0  0  0  0  0  0  0  0  0  0
    8.9851    1.3781   24.1783 C   0  0  0  0  0  0  0  0  0  0  0  0
   10.8134   -3.2205   18.0332 C   0  0  0  0  0  0  0  0  0  0  0  0
   10.6096   -3.3889   21.7906 C   0  0  0  0  0  0  0  0  0  0  0  0
    9.1063   -6.4007   18.4443 N   0  0  0  0  0  0  0  0  0  0  0  0
    8.8895   -1.0714   25.4304 C   0  0  0  0  0  0  0  0  0  0  0  0
   10.6476   -3.7663   20.4068 C   0  0  0  0  0  0  0  0  0  0  0  0
  1  8  1  0
  1 12  4  0
  1 14  4  0
  2  3  4  0
  2 18  4  0
  3 20  4  0
  3 22  4  0
  4 11  4  0
  4 21  4  0
  5  9  4  0
  5 16  4  0
  6 15  4  0
  6 16  4  0
  7 22  4  0
  7 26  4  0
  8 10  4  0
  8 25  4  0
  9 15  4  0
  9 17  1  0
 10 21  4  0
 11 25  4  0
 12 23  4  0
 13 20  4  0
 13 26  4  0
 14 19  4  0
 17 18  4  0
 17 24  4  0
 19 23  4  0
 20 24  4  0
 23 26  1  0
M  END
$$$$

 Created by Python create_sdf_string function

 26 30  0  0  0  0  0  0  0  0999 V2000
   10.0415   -1.7707   23.3917 C   0  0  0  0  0  0  0  0  0  0  0  0
    9.7109   -4.5639   16.6010 N   0  0  0  0  0  0  0  0  0  0  0  0
   10.3608   -4.3646   18.0785 C   0  0  0  0  0  0  0  0  0  0  0  0
    8.3112    1.0566   25.3417 C   0  0  0  0  0  0  0  0  0  0  0  0
    6.4184   -7.4609   18.0529 C   0  0  0  0  0  0  0  0  0  0  0  0
    5.7365   -9.2522   17.1486 C   0  0  0  0  0  0  0  0  0  0  0  0
   11.4541   -3.0196   19.1559 C   0  0  0  0  0  0  0  0  0  0  0  0
    9.9496   -1.1534   24.0898 C   0  0  0  0  0  0  0  0  0  0  0  0
    9.4361    0.4169   23.3131 C   0  0  0  0  0  0  0  0  0  0  0  0
    8.7204    0.0054   26.0060 S   0  0  0  0  0  0  0  0  0  0  0  0
   10.4022   -1.8843   22.1575 Cl  0  0  0  0  0  0  0  0  0  0  0  0
   10.4228   -4.9970   20.0645 C   0  0  0  0  0  0  0  0  0  0  0  0
   10.1099   -3.2020   23.8519 N   0  0  0  0  0  0  0  0  0  0  0  0
    6.9721   -8.4758   16.1444 N   0  0  0  0  0  0  0  0  0  0  0  0
    5.5005   -8.6701   17.8391 N   0  0  0  0  0  0  0  0  0  0  0  0
    8.6888   -6.3392   17.2605 C   0  0  0  0  0  0  0  0  0  0  0  0
   10.7005   -4.1726   23.0447 O   0  0  0  0  0  0  0  0  0  0  0  0
    8.7481    1.5236   23.9962 C   0  0  0  0  0  0  0  0  0  0  0  0
   11.0034   -2.8625   17.8647 N   0  0  0  0  0  0  0  0  0  0  0  0
    9.0946   -6.5675   18.8127 N   0  0  0  0  0  0  0  0  0  0  0  0
    8.9131   -1.0999   25.3300 C   0  0  0  0  0  0  0  0  0  0  0  0
   10.5347   -3.7096   20.4580 C   0  0  0  0  0  0  0  0  0  0  0  0
    7.1425   -7.2768   16.7911 He  0  0  0  0  0  0  0  0  0  0  0  0
    8.7565   -6.1438   16.2818 He  0  0  0  0  0  0  0  0  0  0  0  0
    9.4865   -5.4739   18.7721 He  0  0  0  0  0  0  0  0  0  0  0  0
   10.6419   -3.0765   21.8029 He  0  0  0  0  0  0  0  0  0  0  0  0
  1  8  1  0
  1 13  4  0
  1 16  4  0
  1 22  2  0
  2 20  3  0
  2 21  1  0
  3 19  4  0
  3 21  3  0
  4 10  4  0
  4 18  2  0
  5 13  2  0
  5 15  4  0
  5 22  2  0
  6  8  1  0
  6 14  4  0
  6 15  4  0
  6 18  3  0
  7 19  4  0
  7 22  4  0
  8  9  4  0
  8 21  4  0
  9 18  4  0
 10 21  3  0
 11 14  4  0
 13 16  1  0
 13 17  4  0
 14 17  2  0
 15 17  3  0
 16 20  4  0
 18 19  3  0
M  END
$$$$

 Created by Python create_sdf_string function

 26 30  0  0  0  0  0  0  0  0999 V2000
   10.1013   -1.9724   23.4272 C   0  0  0  0  0  0  0  0  0  0  0  0
    9.7286   -4.6715   16.4890 N   0  0  0  0  0  0  0  0  0  0  0  0
   10.1466   -4.4272   17.7660 C   0  0  0  0  0  0  0  0  0  0  0  0
    8.3239    1.2718   25.3678 C   0  0  0  0  0  0  0  0  0  0  0  0
    6.3334   -7.5124   18.1347 C   0  0  0  0  0  0  0  0  0  0  0  0
    5.9716   -9.0877   16.7252 C   0  0  0  0  0  0  0  0  0  0  0  0
   11.0931   -2.9277   19.3868 C   0  0  0  0  0  0  0  0  0  0  0  0
    9.5847   -0.8304   24.1297 C   0  0  0  0  0  0  0  0  0  0  0  0
    7.3551   -7.4270   17.2511 C   0  0  0  0  0  0  0  0  0  0  0  0
    9.5266    0.3795   23.4756 C   0  0  0  0  0  0  0  0  0  0  0  0
    8.4568    0.0808   26.0446 N   0  0  0  0  0  0  0  0  0  0  0  0
   10.5073   -2.0160   22.1574 N   0  0  0  0  0  0  0  0  0  0  0  0
   10.2157   -4.9878   20.0999 C   0  0  0  0  0  0  0  0  0  0  0  0
   10.2375   -3.1959   23.9099 N   0  0  0  0  0  0  0  0  0  0  0  0
    7.1285   -8.3902   16.2428 N   0  0  0  0  0  0  0  0  0  0  0  0
    5.5342   -8.5414   17.8331 N   0  0  0  0  0  0  0  0  0  0  0  0
    8.4383   -6.5316   17.3317 C   0  0  0  0  0  0  0  0  0  0  0  0
    8.8552   -5.7290   16.2612 C   0  0  0  0  0  0  0  0  0  0  0  0
   10.5930   -4.0899   22.8265 O   0  0  0  0  0  0  0  0  0  0  0  0
    9.7840   -5.3077   18.7776 C   0  0  0  0  0  0  0  0  0  0  0  0
    8.8818    1.4122   24.1001 C   0  0  0  0  0  0  0  0  0  0  0  0
   10.8561   -3.2942   18.0033 N   0  0  0  0  0  0  0  0  0  0  0  0
   10.6691   -3.2975   21.7271 C   0  0  0  0  0  0  0  0  0  0  0  0
    9.0292   -6.3698   18.5055 N   0  0  0  0  0  0  0  0  0  0  0  0
    9.1137   -0.9782   25.4554 C   0  0  0  0  0  0  0  0  0  0  0  0
   10.7257   -3.7259   20.3893 C   0  0  0  0  0  0  0  0  0  0  0  0
  1  8  1  0
  1 12  4  0
  1 14  4  0
  2  3  4  0
  2 18  4  0
  3 20  4  0
  3 22  4  0
  4 11  4  0
  4 21  4  0
  5  9  4  0
  5 16  4  0
  6 15  4  0
  6 16  4  0
  7 22  4  0
  7 26  4  0
  8 10  4  0
  8 25  4  0
  9 15  4  0
  9 17  1  0
 10 21  4  0
 11 25  4  0
 12 23  4  0
 13 20  4  0
 13 26  4  0
 14 19  4  0
 17 18  4  0
 17 24  4  0
 19 23  4  0
 20 24  4  0
 23 26  1  0
M  END
$$$$

 Created by Python create_sdf_string function

 26 50  0  0  0  0  0  0  0  0999 V2000
   10.0759   -1.8298   23.5034 C   0  0  0  0  0  0  0  0  0  0  0  0
    9.7268   -4.5757   16.3648 N   0  0  0  0  0  0  0  0  0  0  0  0
   10.2122   -4.5880   17.7681 C   0  0  0  0  0  0  0  0  0  0  0  0
    8.4062    1.1599   25.4494 C   0  0  0  0  0  0  0  0  0  0  0  0
    6.1026   -7.4563   18.1358 C   0  0  0  0  0  0  0  0  0  0  0  0
    5.5533   -8.6851   17.1320 C   0  0  0  0  0  0  0  0  0  0  0  0
   11.0932   -2.7173   19.1878 C   0  0  0  0  0  0  0  0  0  0  0  0
    9.4417   -0.9054   24.1585 C   0  0  0  0  0  0  0  0  0  0  0  0
    9.7586    0.4216   23.4683 C   0  0  0  0  0  0  0  0  0  0  0  0
    8.4165    0.1759   25.6627 N   0  0  0  0  0  0  0  0  0  0  0  0
   10.6440   -2.1241   22.2376 N   0  0  0  0  0  0  0  0  0  0  0  0
   10.3320   -5.0512   20.0963 Cl  0  0  0  0  0  0  0  0  0  0  0  0
    9.9079   -3.1300   23.6385 P   0  0  0  0  0  0  0  0  0  0  0  0
    7.0893   -8.6786   15.9517 N   0  0  0  0  0  0  0  0  0  0  0  0
    6.5590   -7.8935   18.2501 N   0  0  0  0  0  0  0  0  0  0  0  0
    8.8714   -5.9834   16.2156 C   0  0  0  0  0  0  0  0  0  0  0  0
   10.6523   -4.3053   22.4477 O   0  0  0  0  0  0  0  0  0  0  0  0
    9.6582   -5.5462   18.7970 C   0  0  0  0  0  0  0  0  0  0  0  0
    8.8526    1.5210   24.1218 C   0  0  0  0  0  0  0  0  0  0  0  0
   10.5152   -3.2826   21.4925 C   0  0  0  0  0  0  0  0  0  0  0  0
    9.1028   -1.0943   25.6541 C   0  0  0  0  0  0  0  0  0  0  0  0
   10.6344   -3.7732   20.5057 C   0  0  0  0  0  0  0  0  0  0  0  0
    6.6673   -7.5329   17.4355 He  0  0  0  0  0  0  0  0  0  0  0  0
    8.1351   -6.8898   17.4073 He  0  0  0  0  0  0  0  0  0  0  0  0
   10.9856   -3.1552   18.0847 He  0  0  0  0  0  0  0  0  0  0  0  0
    8.9832   -6.4075   18.5814 He  0  0  0  0  0  0  0  0  0  0  0  0
  1  6  3  0
  1  8  1  0
  1 11  4  0
  1 13  4  0
  1 15  4  0
  2  3  2  0
  2 11  2  0
  2 16  4  0
  3 11  1  0
  3 16  1  0
  3 18  4  0
  4 10  4  0
  4 16  4  0
  4 19  4  0
  5  8  3  0
  5 12  3  0
  5 15  4  0
  5 20  3  0
  6  7  2  0
  6  8  2  0
  6 11  3  0
  6 12  2  0
  6 14  4  0
  6 15  4  0
  6 19  2  0
  7 16  1  0
  7 21  1  0
  7 22  4  0
  8  9  4  0
  8 13  2  0
  8 20  3  0
  8 21  4  0
  9 19  1  0
  9 21  4  0
 10 21  4  0
 11 20  4  0
 12 13  2  0
 12 15  2  0
 12 17  1  0
 12 18  4  0
 12 22  4  0
 13 16  4  0
 13 17  4  0
 14 15  2  0
 14 16  1  0
 14 17  1  0
 15 17  3  0
 17 20  4  0
 18 19  1  0
 20 22  1  0
M  END
$$$$

 Created by Python create_sdf_string function

 26 30  0  0  0  0  0  0  0  0999 V2000
   10.0867   -2.0125   23.4151 C   0  0  0  0  0  0  0  0  0  0  0  0
    9.7241   -4.7386   16.4175 N   0  0  0  0  0  0  0  0  0  0  0  0
   10.1170   -4.4503   17.7159 C   0  0  0  0  0  0  0  0  0  0  0  0
    8.3500    1.2412   25.4000 C   0  0  0  0  0  0  0  0  0  0  0  0
    6.3332   -7.5177   18.2351 C   0  0  0  0  0  0  0  0  0  0  0  0
    5.9456   -8.9981   16.8517 C   0  0  0  0  0  0  0  0  0  0  0  0
   11.0540   -2.8925   19.3311 C   0  0  0  0  0  0  0  0  0  0  0  0
    9.5915   -0.8718   24.1440 C   0  0  0  0  0  0  0  0  0  0  0  0
    7.3230   -7.3492   17.2946 C   0  0  0  0  0  0  0  0  0  0  0  0
    9.6346    0.3478   23.5224 C   0  0  0  0  0  0  0  0  0  0  0  0
    8.4142    0.0493   26.0244 N   0  0  0  0  0  0  0  0  0  0  0  0
   10.4952   -2.0640   22.1411 N   0  0  0  0  0  0  0  0  0  0  0  0
   10.1854   -4.9799   20.0420 C   0  0  0  0  0  0  0  0  0  0  0  0
   10.1549   -3.2712   23.8808 N   0  0  0  0  0  0  0  0  0  0  0  0
    6.9701   -8.2524   16.3205 N   0  0  0  0  0  0  0  0  0  0  0  0
    5.6109   -8.5125   17.9497 N   0  0  0  0  0  0  0  0  0  0  0  0
    8.4146   -6.5320   17.3211 C   0  0  0  0  0  0  0  0  0  0  0  0
    8.8169   -5.7712   16.2497 C   0  0  0  0  0  0  0  0  0  0  0  0
   10.4883   -4.1507   22.7592 O   0  0  0  0  0  0  0  0  0  0  0  0
    9.7769   -5.2913   18.7267 C   0  0  0  0  0  0  0  0  0  0  0  0
    8.9852    1.4240   24.1602 C   0  0  0  0  0  0  0  0  0  0  0  0
   10.8224   -3.2916   17.9466 C   0  0  0  0  0  0  0  0  0  0  0  0
   10.6074   -3.3063   21.6702 C   0  0  0  0  0  0  0  0  0  0  0  0
    9.0453   -6.3668   18.4726 C   0  0  0  0  0  0  0  0  0  0  0  0
    9.0185   -1.0235   25.4199 C   0  0  0  0  0  0  0  0  0  0  0  0
   10.6646   -3.7291   20.3136 C   0  0  0  0  0  0  0  0  0  0  0  0
  1  8  1  0
  1 12  4  0
  1 14  4  0
  2  3  4  0
  2 18  4  0
  3 20  4  0
  3 22  4  0
  4 11  4  0
  4 21  4  0
  5  9  4  0
  5 16  4  0
  6 15  4  0
  6 16  4  0
  7 22  4  0
  7 26  4  0
  8 10  4  0
  8 25  4  0
  9 15  4  0
  9 17  1  0
 10 21  4  0
 11 25  4  0
 12 23  4  0
 13 20  4  0
 13 26  4  0
 14 19  4  0
 17 18  4  0
 17 24  4  0
 19 23  4  0
 20 24  4  0
 23 26  1  0
M  END
$$$$

 Created by Python create_sdf_string function

 26 55  0  0  0  0  0  0  0  0999 V2000
   10.2589   -2.1914   23.0042 C   0  0  0  0  0  0  0  0  0  0  0  0
    9.4896   -4.7270   16.3214 N   0  0  0  0  0  0  0  0  0  0  0  0
    9.9745   -4.3113   17.5983 C   0  0  0  0  0  0  0  0  0  0  0  0
    8.3501    1.2405   25.5015 C   0  0  0  0  0  0  0  0  0  0  0  0
    6.9359   -7.7344   18.7238 C   0  0  0  0  0  0  0  0  0  0  0  0
    6.4582   -8.5434   16.5606 C   0  0  0  0  0  0  0  0  0  0  0  0
   11.0332   -2.6662   19.2772 C   0  0  0  0  0  0  0  0  0  0  0  0
    9.6706   -0.8281   24.4079 F   0  0  0  0  0  0  0  0  0  0  0  0
    7.3806   -7.6881   17.8174 O   0  0  0  0  0  0  0  0  0  0  0  0
    9.6918    0.5302   23.7879 C   0  0  0  0  0  0  0  0  0  0  0  0
    8.2803   -0.1821   26.0747 N   0  0  0  0  0  0  0  0  0  0  0  0
   10.4196   -2.2778   22.2770 N   0  0  0  0  0  0  0  0  0  0  0  0
   10.3009   -5.1975   19.9346 C   0  0  0  0  0  0  0  0  0  0  0  0
   10.0542   -3.1584   23.8631 N   0  0  0  0  0  0  0  0  0  0  0  0
    7.1111   -8.6259   16.3585 Cl  0  0  0  0  0  0  0  0  0  0  0  0
    5.3660   -8.8354   19.1204 N   0  0  0  0  0  0  0  0  0  0  0  0
    8.2815   -6.3687   17.4845 C   0  0  0  0  0  0  0  0  0  0  0  0
   10.6645   -4.1045   22.5608 O   0  0  0  0  0  0  0  0  0  0  0  0
    9.6316   -5.2014   18.5436 C   0  0  0  0  0  0  0  0  0  0  0  0
    9.1570    1.3472   24.1037 C   0  0  0  0  0  0  0  0  0  0  0  0
   10.9185   -3.2010   18.0069 C   0  0  0  0  0  0  0  0  0  0  0  0
   11.0935   -3.5165   21.8182 C   0  0  0  0  0  0  0  0  0  0  0  0
    8.9060   -6.3350   18.4518 C   0  0  0  0  0  0  0  0  0  0  0  0
    8.9693   -0.8722   25.2096 C   0  0  0  0  0  0  0  0  0  0  0  0
   10.7039   -3.7358   20.1099 C   0  0  0  0  0  0  0  0  0  0  0  0
    9.5388   -5.2819   16.2038 He  0  0  0  0  0  0  0  0  0  0  0  0
  1  2  1  0
  1  8  1  0
  1  9  1  0
  1 12  3  0
  1 14  4  0
  2  3  4  0
  2 10  4  0
  3 19  4  0
  3 21  4  0
  3 24  2  0
  4 11  4  0
  4 15  4  0
  4 18  2  0
  4 20  4  0
  5  7  4  0
  5  9  4  0
  5 15  2  0
  5 16  4  0
  5 17  3  0
  5 23  1  0
  5 24  2  0
  6  9  3  0
  6 15  4  0
  6 16  4  0
  6 23  2  0
  7 16  3  0
  7 21  2  0
  7 25  4  0
  8  9  3  0
  8 10  4  0
  8 16  3  0
  8 22  3  0
  9 17  1  0
 10 15  1  0
 10 20  4  0
 10 22  4  0
 10 24  1  0
 11 16  2  0
 11 24  4  0
 12 22  4  0
 13 16  3  0
 13 19  4  0
 13 25  4  0
 14 18  4  0
 15 18  1  0
 15 22  1  0
 15 25  1  0
 16 17  1  0
 16 23  3  0
 16 24  3  0
 17 23  4  0
 18 22  4  0
 19 23  4  0
 20 24  1  0
 22 25  1  0
M  END
$$$$

 Created by Python create_sdf_string function

 26 30  0  0  0  0  0  0  0  0999 V2000
   10.1322   -2.0539   23.3847 C   0  0  0  0  0  0  0  0  0  0  0  0
    9.6072   -4.6971   16.4183 N   0  0  0  0  0  0  0  0  0  0  0  0
   10.0491   -4.3713   17.6602 C   0  0  0  0  0  0  0  0  0  0  0  0
    8.3797    1.1603   25.4478 C   0  0  0  0  0  0  0  0  0  0  0  0
    6.5759   -7.9148   18.4208 C   0  0  0  0  0  0  0  0  0  0  0  0
    5.9474   -9.0759   16.8891 C   0  0  0  0  0  0  0  0  0  0  0  0
   11.0733   -2.8853   19.2977 C   0  0  0  0  0  0  0  0  0  0  0  0
    9.6195   -0.9290   24.1310 C   0  0  0  0  0  0  0  0  0  0  0  0
    7.4297   -7.5031   17.3791 C   0  0  0  0  0  0  0  0  0  0  0  0
    9.7327    0.3202   23.6168 C   0  0  0  0  0  0  0  0  0  0  0  0
    8.3401   -0.1004   26.0025 N   0  0  0  0  0  0  0  0  0  0  0  0
   10.5605   -2.0894   22.1000 N   0  0  0  0  0  0  0  0  0  0  0  0
   10.1999   -4.9745   19.9945 C   0  0  0  0  0  0  0  0  0  0  0  0
   10.2039   -3.2766   23.8549 N   0  0  0  0  0  0  0  0  0  0  0  0
    7.0085   -8.2941   16.3292 N   0  0  0  0  0  0  0  0  0  0  0  0
    5.7292   -8.7839   18.0683 N   0  0  0  0  0  0  0  0  0  0  0  0
    8.4029   -6.5292   17.3239 C   0  0  0  0  0  0  0  0  0  0  0  0
    8.7754   -5.7302   16.2587 C   0  0  0  0  0  0  0  0  0  0  0  0
   10.6128   -4.1503   22.7415 O   0  0  0  0  0  0  0  0  0  0  0  0
    9.7327   -5.2297   18.6969 C   0  0  0  0  0  0  0  0  0  0  0  0
    9.1149    1.3950   24.2815 C   0  0  0  0  0  0  0  0  0  0  0  0
   10.7456   -3.2181   17.9417 C   0  0  0  0  0  0  0  0  0  0  0  0
   10.6738   -3.3403   21.6548 C   0  0  0  0  0  0  0  0  0  0  0  0
    8.9565   -6.2658   18.4675 C   0  0  0  0  0  0  0  0  0  0  0  0
    8.9710   -1.1196   25.3508 C   0  0  0  0  0  0  0  0  0  0  0  0
   10.6864   -3.7416   20.2868 C   0  0  0  0  0  0  0  0  0  0  0  0
  1  8  1  0
  1 12  4  0
  1 14  4  0
  2  3  4  0
  2 18  4  0
  3 20  4  0
  3 22  4  0
  4 11  4  0
  4 21  4  0
  5  9  4  0
  5 16  4  0
  6 15  4  0
  6 16  4  0
  7 22  4  0
  7 26  4  0
  8 10  4  0
  8 25  4  0
  9 15  4  0
  9 17  1  0
 10 21  4  0
 11 25  4  0
 12 23  4  0
 13 20  4  0
 13 26  4  0
 14 19  4  0
 17 18  4  0
 17 24  4  0
 19 23  4  0
 20 24  4  0
 23 26  1  0
M  END
$$$$

 Created by Python create_sdf_string function

 26 29  0  0  0  0  0  0  0  0999 V2000
    9.8294   -2.0024   23.4420 C   0  0  0  0  0  0  0  0  0  0  0  0
    9.6139   -5.1224   16.3613 N   0  0  0  0  0  0  0  0  0  0  0  0
   10.2178   -4.4143   17.2703 C   0  0  0  0  0  0  0  0  0  0  0  0
    8.3289    1.3169   25.2456 F   0  0  0  0  0  0  0  0  0  0  0  0
    7.4419   -8.3739   17.8612 C   0  0  0  0  0  0  0  0  0  0  0  0
    5.9434   -9.8962   17.0645 C   0  0  0  0  0  0  0  0  0  0  0  0
    9.6290   -0.9183   23.8821 C   0  0  0  0  0  0  0  0  0  0  0  0
    7.3754   -7.7609   18.0100 O   0  0  0  0  0  0  0  0  0  0  0  0
    9.9492    0.5968   23.9912 C   0  0  0  0  0  0  0  0  0  0  0  0
    7.9740   -0.2190   25.6892 N   0  0  0  0  0  0  0  0  0  0  0  0
   10.2609   -2.0887   22.0258 N   0  0  0  0  0  0  0  0  0  0  0  0
   10.2179   -5.0260   20.1313 N   0  0  0  0  0  0  0  0  0  0  0  0
   10.6131   -3.0574   23.9125 N   0  0  0  0  0  0  0  0  0  0  0  0
    5.8581   -9.0138   16.8457 N   0  0  0  0  0  0  0  0  0  0  0  0
    8.2522   -6.6124   17.6561 C   0  0  0  0  0  0  0  0  0  0  0  0
    9.3499   -5.7356   16.2051 C   0  0  0  0  0  0  0  0  0  0  0  0
    9.8204   -5.3942   18.4665 C   0  0  0  0  0  0  0  0  0  0  0  0
   10.3841   -3.5769   22.0661 C   0  0  0  0  0  0  0  0  0  0  0  0
    8.7192   -6.6364   18.5189 C   0  0  0  0  0  0  0  0  0  0  0  0
    8.9973   -1.1910   25.4776 C   0  0  0  0  0  0  0  0  0  0  0  0
   10.7470   -2.7498   19.2968 He  0  0  0  0  0  0  0  0  0  0  0  0
    7.4387   -9.2369   16.2882 He  0  0  0  0  0  0  0  0  0  0  0  0
   10.4987   -4.3133   22.5954 He  0  0  0  0  0  0  0  0  0  0  0  0
    9.2803    1.3775   24.1839 He  0  0  0  0  0  0  0  0  0  0  0  0
   10.6401   -3.1397   17.8929 He  0  0  0  0  0  0  0  0  0  0  0  0
   10.8308   -4.1162   20.1157 He  0  0  0  0  0  0  0  0  0  0  0  0
  1 11  4  0
  1 13  4  0
  2  3  4  0
  2  6  2  0
  2 14  3  0
  2 16  4  0
  3 16  2  0
  4 10  4  0
  5  8  4  0
  5 14  2  0
  6  7  2  0
  6 11  3  0
  6 14  4  0
  7  8  3  0
  7  9  4  0
  7 20  4  0
  8 13  4  0
  8 15  1  0
  8 16  4  0
  8 20  4  0
  9 19  2  0
 10 11  3  0
 10 13  4  0
 10 20  2  0
 11 18  4  0
 15 16  4  0
 15 17  2  0
 15 19  4  0
 17 19  4  0
M  END
$$$$

 Created by Python create_sdf_string function

 26 30  0  0  0  0  0  0  0  0999 V2000
   10.1148   -2.0569   23.4218 C   0  0  0  0  0  0  0  0  0  0  0  0
    9.6606   -4.8862   16.3890 N   0  0  0  0  0  0  0  0  0  0  0  0
   10.0564   -4.4949   17.6461 C   0  0  0  0  0  0  0  0  0  0  0  0
    8.3450    1.1968   25.2811 C   0  0  0  0  0  0  0  0  0  0  0  0
    6.6456   -8.3811   17.7515 C   0  0  0  0  0  0  0  0  0  0  0  0
    6.2876   -9.7249   16.5206 C   0  0  0  0  0  0  0  0  0  0  0  0
   10.8963   -2.9027   19.3138 C   0  0  0  0  0  0  0  0  0  0  0  0
    9.6374   -0.9484   24.1380 C   0  0  0  0  0  0  0  0  0  0  0  0
    7.6137   -7.9136   17.1812 N   0  0  0  0  0  0  0  0  0  0  0  0
    9.8711    0.3102   23.6567 C   0  0  0  0  0  0  0  0  0  0  0  0
    8.1635   -0.0250   25.8362 N   0  0  0  0  0  0  0  0  0  0  0  0
   10.3005   -2.1376   22.0958 N   0  0  0  0  0  0  0  0  0  0  0  0
   10.1945   -5.0713   20.0076 N   0  0  0  0  0  0  0  0  0  0  0  0
   10.3722   -3.2555   23.9237 N   0  0  0  0  0  0  0  0  0  0  0  0
    7.3133   -8.8688   16.4287 N   0  0  0  0  0  0  0  0  0  0  0  0
    5.8662   -9.1561   17.2298 N   0  0  0  0  0  0  0  0  0  0  0  0
    8.4904   -6.7507   17.3124 C   0  0  0  0  0  0  0  0  0  0  0  0
    8.8789   -5.9907   16.2707 C   0  0  0  0  0  0  0  0  0  0  0  0
   10.6789   -4.2018   22.7908 O   0  0  0  0  0  0  0  0  0  0  0  0
    9.7384   -5.3476   18.7316 C   0  0  0  0  0  0  0  0  0  0  0  0
    9.2343    1.4146   24.2608 N   0  0  0  0  0  0  0  0  0  0  0  0
   10.7197   -3.2967   17.9224 N   0  0  0  0  0  0  0  0  0  0  0  0
   10.5244   -3.3861   21.6694 C   0  0  0  0  0  0  0  0  0  0  0  0
    8.9248   -6.4606   18.4946 C   0  0  0  0  0  0  0  0  0  0  0  0
    8.8522   -1.1217   25.2715 C   0  0  0  0  0  0  0  0  0  0  0  0
   10.5433   -3.8165   20.3129 C   0  0  0  0  0  0  0  0  0  0  0  0
  1  8  1  0
  1 12  4  0
  1 14  4  0
  2  3  4  0
  2 18  4  0
  3 20  4  0
  3 22  4  0
  4 11  4  0
  4 21  4  0
  5  9  4  0
  5 16  4  0
  6 15  4  0
  6 16  4  0
  7 22  4  0
  7 26  4  0
  8 10  4  0
  8 25  4  0
  9 15  4  0
  9 17  1  0
 10 21  4  0
 11 25  4  0
 12 23  4  0
 13 20  4  0
 13 26  4  0
 14 19  4  0
 17 18  4  0
 17 24  4  0
 19 23  4  0
 20 24  4  0
 23 26  1  0
M  END
$$$$

 Created by Python create_sdf_string function

 26 42  0  0  0  0  0  0  0  0999 V2000
   10.0865   -2.3042   23.4698 C   0  0  0  0  0  0  0  0  0  0  0  0
    9.7924   -4.7637   16.3508 N   0  0  0  0  0  0  0  0  0  0  0  0
   10.0320   -4.3619   17.6504 C   0  0  0  0  0  0  0  0  0  0  0  0
    8.4507    1.0318   25.1818 C   0  0  0  0  0  0  0  0  0  0  0  0
    7.1217   -8.4188   18.2784 C   0  0  0  0  0  0  0  0  0  0  0  0
    6.5952   -9.6960   17.0464 C   0  0  0  0  0  0  0  0  0  0  0  0
   10.9873   -2.7862   19.2111 C   0  0  0  0  0  0  0  0  0  0  0  0
    9.5755   -0.9670   24.1562 C   0  0  0  0  0  0  0  0  0  0  0  0
    7.7842   -8.0834   17.3465 F   0  0  0  0  0  0  0  0  0  0  0  0
    9.5894    0.2545   23.6620 C   0  0  0  0  0  0  0  0  0  0  0  0
    8.2760   -0.1552   26.1121 N   0  0  0  0  0  0  0  0  0  0  0  0
   10.2233   -2.1489   22.0826 N   0  0  0  0  0  0  0  0  0  0  0  0
   10.5033   -3.4905   23.8742 N   0  0  0  0  0  0  0  0  0  0  0  0
    7.8202   -9.0343   16.8711 N   0  0  0  0  0  0  0  0  0  0  0  0
    8.3329   -6.8074   17.4698 C   0  0  0  0  0  0  0  0  0  0  0  0
    8.5019   -5.9452   16.5171 C   0  0  0  0  0  0  0  0  0  0  0  0
   10.7563   -4.1587   22.9306 O   0  0  0  0  0  0  0  0  0  0  0  0
    9.7403   -5.2445   18.6471 C   0  0  0  0  0  0  0  0  0  0  0  0
    9.1508    1.2756   24.1962 Cl  0  0  0  0  0  0  0  0  0  0  0  0
   11.0710   -2.9349   17.9710 F   0  0  0  0  0  0  0  0  0  0  0  0
   10.5450   -3.2649   21.5433 C   0  0  0  0  0  0  0  0  0  0  0  0
    8.8702   -6.4036   18.4441 C   0  0  0  0  0  0  0  0  0  0  0  0
    8.7902   -1.1117   25.3969 C   0  0  0  0  0  0  0  0  0  0  0  0
   10.8017   -3.7836   20.3722 C   0  0  0  0  0  0  0  0  0  0  0  0
   10.2538   -5.0517   20.0449 He  0  0  0  0  0  0  0  0  0  0  0  0
    6.1181   -9.2673   17.8822 He  0  0  0  0  0  0  0  0  0  0  0  0
  1  8  1  0
  1 12  4  0
  1 13  4  0
  2  3  4  0
  2 16  4  0
  3 18  4  0
  3 20  4  0
  4 11  4  0
  4 13  2  0
  4 19  4  0
  5  9  4  0
  5 10  1  0
  5 12  3  0
  5 20  1  0
  6 19  1  0
  7  9  1  0
  7 20  4  0
  7 24  4  0
  8 10  4  0
  8 15  3  0
  9 14  4  0
  9 15  1  0
  9 19  4  0
  9 20  1  0
  9 23  2  0
 10 12  4  0
 10 14  2  0
 10 19  1  0
 11 16  4  0
 11 23  4  0
 12 14  1  0
 12 21  4  0
 13 16  4  0
 13 17  4  0
 15 16  4  0
 15 22  4  0
 16 24  3  0
 17 20  4  0
 17 21  4  0
 17 23  3  0
 18 22  4  0
 21 24  1  0
M  END
$$$$

 Created by Python create_sdf_string function

 26 30  0  0  0  0  0  0  0  0999 V2000
   10.0770   -2.1665   23.4309 C   0  0  0  0  0  0  0  0  0  0  0  0
    9.5517   -4.7616   16.4480 N   0  0  0  0  0  0  0  0  0  0  0  0
   10.0417   -4.4339   17.6796 C   0  0  0  0  0  0  0  0  0  0  0  0
    8.3952    1.1072   25.3954 C   0  0  0  0  0  0  0  0  0  0  0  0
    6.6984   -8.2123   18.3083 C   0  0  0  0  0  0  0  0  0  0  0  0
    6.6227   -9.7229   16.8911 C   0  0  0  0  0  0  0  0  0  0  0  0
   11.0362   -2.8607   19.2914 C   0  0  0  0  0  0  0  0  0  0  0  0
    9.5637   -1.0591   24.1597 C   0  0  0  0  0  0  0  0  0  0  0  0
    7.6488   -7.8458   17.3847 N   0  0  0  0  0  0  0  0  0  0  0  0
    9.6757    0.2020   23.5711 C   0  0  0  0  0  0  0  0  0  0  0  0
    8.3060   -0.1200   25.9900 N   0  0  0  0  0  0  0  0  0  0  0  0
   10.3154   -2.1464   22.1162 N   0  0  0  0  0  0  0  0  0  0  0  0
   10.1805   -4.9729   20.0158 C   0  0  0  0  0  0  0  0  0  0  0  0
   10.3963   -3.3880   23.8948 N   0  0  0  0  0  0  0  0  0  0  0  0
    7.5681   -8.8248   16.4886 N   0  0  0  0  0  0  0  0  0  0  0  0
    6.0993   -9.3151   17.9793 N   0  0  0  0  0  0  0  0  0  0  0  0
    8.4810   -6.7423   17.3945 C   0  0  0  0  0  0  0  0  0  0  0  0
    8.8165   -5.9023   16.3545 C   0  0  0  0  0  0  0  0  0  0  0  0
   10.7339   -4.1728   22.7458 O   0  0  0  0  0  0  0  0  0  0  0  0
    9.7561   -5.2862   18.7533 C   0  0  0  0  0  0  0  0  0  0  0  0
    9.0756    1.2883   24.2163 N   0  0  0  0  0  0  0  0  0  0  0  0
   10.7650   -3.2604   17.9408 C   0  0  0  0  0  0  0  0  0  0  0  0
   10.5985   -3.3518   21.6720 C   0  0  0  0  0  0  0  0  0  0  0  0
    9.0105   -6.3913   18.5511 C   0  0  0  0  0  0  0  0  0  0  0  0
    8.9224   -1.2108   25.3831 C   0  0  0  0  0  0  0  0  0  0  0  0
   10.6349   -3.7298   20.3031 C   0  0  0  0  0  0  0  0  0  0  0  0
  1  8  1  0
  1 12  4  0
  1 14  4  0
  2  3  4  0
  2 18  4  0
  3 20  4  0
  3 22  4  0
  4 11  4  0
  4 21  4  0
  5  9  4  0
  5 16  4  0
  6 15  4  0
  6 16  4  0
  7 22  4  0
  7 26  4  0
  8 10  4  0
  8 25  4  0
  9 15  4  0
  9 17  1  0
 10 21  4  0
 11 25  4  0
 12 23  4  0
 13 20  4  0
 13 26  4  0
 14 19  4  0
 17 18  4  0
 17 24  4  0
 19 23  4  0
 20 24  4  0
 23 26  1  0
M  END
$$$$

 Created by Python create_sdf_string function

 26 55  0  0  0  0  0  0  0  0999 V2000
    9.9463   -2.1828   23.3995 C   0  0  0  0  0  0  0  0  0  0  0  0
    9.4983   -4.9867   16.3127 N   0  0  0  0  0  0  0  0  0  0  0  0
   10.0429   -4.0957   17.6755 C   0  0  0  0  0  0  0  0  0  0  0  0
    8.4053    1.1984   25.2170 C   0  0  0  0  0  0  0  0  0  0  0  0
    7.2415   -8.1297   18.1475 C   0  0  0  0  0  0  0  0  0  0  0  0
    6.1521   -9.5790   16.7127 C   0  0  0  0  0  0  0  0  0  0  0  0
   10.7642   -2.8382   19.4053 C   0  0  0  0  0  0  0  0  0  0  0  0
    9.6564   -0.8588   23.9639 C   0  0  0  0  0  0  0  0  0  0  0  0
    7.2771   -8.5387   17.7625 F   0  0  0  0  0  0  0  0  0  0  0  0
    9.5026    0.3131   23.5126 C   0  0  0  0  0  0  0  0  0  0  0  0
    8.5777   -0.1209   26.2408 N   0  0  0  0  0  0  0  0  0  0  0  0
   10.5375   -2.2179   22.2611 N   0  0  0  0  0  0  0  0  0  0  0  0
   10.1308   -5.0060   20.0292 C   0  0  0  0  0  0  0  0  0  0  0  0
   10.3696   -3.3796   23.8112 N   0  0  0  0  0  0  0  0  0  0  0  0
    7.1193   -9.1544   16.6424 F   0  0  0  0  0  0  0  0  0  0  0  0
    6.5116   -8.7166   17.8779 F   0  0  0  0  0  0  0  0  0  0  0  0
    8.7814   -5.6855   16.5625 C   0  0  0  0  0  0  0  0  0  0  0  0
   10.5699   -4.1748   22.7499 O   0  0  0  0  0  0  0  0  0  0  0  0
    9.6624   -5.2044   18.7036 C   0  0  0  0  0  0  0  0  0  0  0  0
    8.9358    1.2158   24.2679 N   0  0  0  0  0  0  0  0  0  0  0  0
   10.6174   -3.5321   17.9120 C   0  0  0  0  0  0  0  0  0  0  0  0
   10.2630   -3.4678   21.5448 N   0  0  0  0  0  0  0  0  0  0  0  0
    8.9073   -6.7992   18.6727 C   0  0  0  0  0  0  0  0  0  0  0  0
    8.9864   -1.1947   25.3665 C   0  0  0  0  0  0  0  0  0  0  0  0
   10.4921   -3.8126   20.4068 C   0  0  0  0  0  0  0  0  0  0  0  0
    8.5163   -6.5415   17.3463 He  0  0  0  0  0  0  0  0  0  0  0  0
  1  5  1  0
  1  6  4  0
  1  8  1  0
  1 12  4  0
  1 14  4  0
  1 16  3  0
  2  3  4  0
  3 17  4  0
  3 19  4  0
  3 21  4  0
  4  6  2  0
  4 11  4  0
  4 19  3  0
  4 20  4  0
  5  7  1  0
  5  9  4  0
  5 16  4  0
  5 22  2  0
  6  8  1  0
  6 15  1  0
  6 16  4  0
  6 23  4  0
  7 15  2  0
  7 16  1  0
  7 21  4  0
  7 25  4  0
  8 10  4  0
  8 17  1  0
  8 24  4  0
  9 14  4  0
  9 17  1  0
 10 11  4  0
 10 20  4  0
 11 16  2  0
 11 24  4  0
 12 16  2  0
 12 20  2  0
 12 22  4  0
 13 16  3  0
 13 19  4  0
 13 25  4  0
 14 15  4  0
 14 18  4  0
 14 19  1  0
 15 20  3  0
 15 23  1  0
 16 24  2  0
 17 21  2  0
 17 23  1  0
 17 25  4  0
 18 20  2  0
 18 22  4  0
 19 23  4  0
 21 25  3  0
 22 25  1  0
M  END
$$$$

 Created by Python create_sdf_string function

 26 30  0  0  0  0  0  0  0  0999 V2000
   10.0569   -2.1065   23.4214 C   0  0  0  0  0  0  0  0  0  0  0  0
    9.4235   -4.8933   16.4605 N   0  0  0  0  0  0  0  0  0  0  0  0
    9.8971   -4.5473   17.6821 C   0  0  0  0  0  0  0  0  0  0  0  0
    8.4303    1.1484   25.4044 C   0  0  0  0  0  0  0  0  0  0  0  0
    7.0691   -8.0308   17.8385 C   0  0  0  0  0  0  0  0  0  0  0  0
    6.0724   -9.5607   16.7186 C   0  0  0  0  0  0  0  0  0  0  0  0
   10.8459   -2.9681   19.2955 C   0  0  0  0  0  0  0  0  0  0  0  0
    9.5804   -0.9865   24.1304 C   0  0  0  0  0  0  0  0  0  0  0  0
    7.5692   -8.1104   17.2269 N   0  0  0  0  0  0  0  0  0  0  0  0
    9.5448    0.2583   23.5207 C   0  0  0  0  0  0  0  0  0  0  0  0
    8.4698   -0.0406   26.0554 N   0  0  0  0  0  0  0  0  0  0  0  0
   10.3288   -2.1427   22.1259 N   0  0  0  0  0  0  0  0  0  0  0  0
   10.0205   -5.0298   20.0506 C   0  0  0  0  0  0  0  0  0  0  0  0
   10.2630   -3.3644   23.8888 N   0  0  0  0  0  0  0  0  0  0  0  0
    7.1521   -8.9148   16.2752 N   0  0  0  0  0  0  0  0  0  0  0  0
    5.9508   -8.9803   17.7661 N   0  0  0  0  0  0  0  0  0  0  0  0
    8.3902   -6.7758   17.4181 C   0  0  0  0  0  0  0  0  0  0  0  0
    8.6907   -5.9862   16.3391 C   0  0  0  0  0  0  0  0  0  0  0  0
   10.5335   -4.2080   22.7654 O   0  0  0  0  0  0  0  0  0  0  0  0
    9.6394   -5.3814   18.7309 C   0  0  0  0  0  0  0  0  0  0  0  0
    8.9509    1.3158   24.1700 N   0  0  0  0  0  0  0  0  0  0  0  0
   10.5820   -3.3510   17.9457 C   0  0  0  0  0  0  0  0  0  0  0  0
   10.4956   -3.3916   21.6854 C   0  0  0  0  0  0  0  0  0  0  0  0
    8.9159   -6.5609   18.5333 C   0  0  0  0  0  0  0  0  0  0  0  0
    9.0636   -1.1325   25.4353 C   0  0  0  0  0  0  0  0  0  0  0  0
   10.4865   -3.7944   20.3187 C   0  0  0  0  0  0  0  0  0  0  0  0
  1  8  1  0
  1 12  4  0
  1 14  4  0
  2  3  4  0
  2 18  4  0
  3 20  4  0
  3 22  4  0
  4 11  4  0
  4 21  4  0
  5  9  4  0
  5 16  4  0
  5 17  1  0
  6 15  4  0
  6 16  4  0
  7 22  4  0
  7 26  4  0
  8 10  4  0
  8 25  4  0
  9 15  4  0
 10 21  4  0
 11 25  4  0
 12 23  4  0
 13 20  4  0
 13 26  4  0
 14 19  4  0
 17 18  4  0
 17 24  4  0
 19 23  4  0
 20 24  4  0
 23 26  1  0
M  END
$$$$

 Created by Python create_sdf_string function

 26 49  0  0  0  0  0  0  0  0999 V2000
    9.6606   -1.9549   23.4514 C   0  0  0  0  0  0  0  0  0  0  0  0
    9.4597   -4.8047   16.6618 N   0  0  0  0  0  0  0  0  0  0  0  0
    6.5221   -8.2956   17.4983 C   0  0  0  0  0  0  0  0  0  0  0  0
    6.1604   -9.3098   16.3467 C   0  0  0  0  0  0  0  0  0  0  0  0
   10.7904   -3.0873   19.4227 C   0  0  0  0  0  0  0  0  0  0  0  0
    9.4781   -1.1420   23.9393 C   0  0  0  0  0  0  0  0  0  0  0  0
    7.2384   -8.0090   17.5728 N   0  0  0  0  0  0  0  0  0  0  0  0
    9.6867    0.1842   23.4675 C   0  0  0  0  0  0  0  0  0  0  0  0
    8.4200    0.1288   25.8681 N   0  0  0  0  0  0  0  0  0  0  0  0
   10.2494   -2.2468   22.3175 N   0  0  0  0  0  0  0  0  0  0  0  0
   10.1594   -5.1246   20.0588 C   0  0  0  0  0  0  0  0  0  0  0  0
   10.4166   -3.1391   23.9387 N   0  0  0  0  0  0  0  0  0  0  0  0
    7.1437   -8.3940   15.7968 N   0  0  0  0  0  0  0  0  0  0  0  0
    5.7754   -8.4554   18.3204 N   0  0  0  0  0  0  0  0  0  0  0  0
    8.6358   -6.7508   17.3815 F   0  0  0  0  0  0  0  0  0  0  0  0
    9.1228   -5.9780   16.1886 C   0  0  0  0  0  0  0  0  0  0  0  0
   10.4189   -4.0804   22.8366 O   0  0  0  0  0  0  0  0  0  0  0  0
    9.5499   -5.4350   18.6004 C   0  0  0  0  0  0  0  0  0  0  0  0
   10.6538   -3.2790   17.9208 C   0  0  0  0  0  0  0  0  0  0  0  0
   10.6029   -3.3796   21.8012 C   0  0  0  0  0  0  0  0  0  0  0  0
    8.9596   -6.4746   18.8469 C   0  0  0  0  0  0  0  0  0  0  0  0
    8.7805   -1.4822   25.4724 S   0  0  0  0  0  0  0  0  0  0  0  0
   10.4861   -3.9474   20.5250 C   0  0  0  0  0  0  0  0  0  0  0  0
   10.2589   -4.7082   18.0152 He  0  0  0  0  0  0  0  0  0  0  0  0
    8.6668    1.5510   25.4071 He  0  0  0  0  0  0  0  0  0  0  0  0
    9.1570    1.4965   24.6110 He  0  0  0  0  0  0  0  0  0  0  0  0
  1  5  1  0
  1  6  1  0
  1  8  3  0
  1 10  4  0
  1 12  4  0
  2 13  4  0
  2 16  4  0
  2 20  1  0
  3  6  2  0
  3  7  4  0
  3  8  3  0
  3 15  1  0
  3 21  3  0
  4  6  4  0
  4  8  4  0
  4 10  1  0
  4 13  4  0
  4 20  2  0
  4 21  2  0
  5 13  2  0
  5 19  4  0
  5 23  4  0
  6  8  4  0
  6 22  4  0
  7  8  4  0
  7  9  2  0
  7 13  4  0
  7 19  2  0
  9 22  4  0
 10 13  3  0
 10 20  4  0
 10 21  2  0
 11 13  3  0
 11 17  2  0
 11 23  4  0
 12 15  4  0
 12 16  2  0
 12 17  4  0
 13 16  1  0
 13 23  3  0
 14 16  2  0
 15 16  4  0
 15 21  4  0
 15 23  1  0
 16 23  3  0
 17 20  4  0
 18 21  4  0
 18 23  4  0
 20 23  1  0
M  END
$$$$

 Created by Python create_sdf_string function

 26 30  0  0  0  0  0  0  0  0999 V2000
    9.9940   -2.0721   23.4799 C   0  0  0  0  0  0  0  0  0  0  0  0
    9.6598   -4.8410   16.4711 N   0  0  0  0  0  0  0  0  0  0  0  0
   10.0034   -4.5528   17.7589 C   0  0  0  0  0  0  0  0  0  0  0  0
    8.5717    1.3001   25.4963 C   0  0  0  0  0  0  0  0  0  0  0  0
    6.5795   -8.0518   18.1026 C   0  0  0  0  0  0  0  0  0  0  0  0
    6.0665   -9.1507   16.4433 C   0  0  0  0  0  0  0  0  0  0  0  0
   10.8829   -3.0330   19.4141 C   0  0  0  0  0  0  0  0  0  0  0  0
    9.5281   -0.9192   24.1818 C   0  0  0  0  0  0  0  0  0  0  0  0
    7.5080   -7.6828   17.1714 N   0  0  0  0  0  0  0  0  0  0  0  0
    9.6761    0.3105   23.6035 C   0  0  0  0  0  0  0  0  0  0  0  0
    8.3656    0.0763   26.0578 N   0  0  0  0  0  0  0  0  0  0  0  0
   10.2394   -2.1456   22.1742 N   0  0  0  0  0  0  0  0  0  0  0  0
   10.0852   -5.1253   20.1275 C   0  0  0  0  0  0  0  0  0  0  0  0
   10.2097   -3.2370   23.9989 N   0  0  0  0  0  0  0  0  0  0  0  0
    7.2061   -8.4301   16.0924 N   0  0  0  0  0  0  0  0  0  0  0  0
    5.7310   -8.8600   17.7087 N   0  0  0  0  0  0  0  0  0  0  0  0
    8.4624   -6.7363   17.2830 C   0  0  0  0  0  0  0  0  0  0  0  0
    8.8910   -5.9144   16.2695 C   0  0  0  0  0  0  0  0  0  0  0  0
   10.5878   -4.1563   22.8669 O   0  0  0  0  0  0  0  0  0  0  0  0
    9.6975   -5.4241   18.7877 C   0  0  0  0  0  0  0  0  0  0  0  0
    9.1957    1.4289   24.2972 N   0  0  0  0  0  0  0  0  0  0  0  0
   10.6493   -3.3804   18.0668 C   0  0  0  0  0  0  0  0  0  0  0  0
   10.4840   -3.4087   21.7706 C   0  0  0  0  0  0  0  0  0  0  0  0
    9.0000   -6.5638   18.4798 C   0  0  0  0  0  0  0  0  0  0  0  0
    8.8558   -1.0790   25.4231 C   0  0  0  0  0  0  0  0  0  0  0  0
   10.5090   -3.8633   20.3996 C   0  0  0  0  0  0  0  0  0  0  0  0
  1  8  1  0
  1 12  4  0
  1 14  4  0
  2  3  4  0
  2 18  4  0
  3 20  4  0
  3 22  4  0
  4 11  4  0
  4 21  4  0
  5  9  4  0
  5 16  4  0
  6 15  4  0
  6 16  4  0
  7 22  4  0
  7 26  4  0
  8 10  4  0
  8 25  4  0
  9 15  4  0
  9 17  1  0
 10 21  4  0
 11 25  4  0
 12 23  4  0
 13 20  4  0
 13 26  4  0
 14 19  4  0
 17 18  4  0
 17 24  4  0
 19 23  4  0
 20 24  4  0
 23 26  1  0
M  END
$$$$

 Created by Python create_sdf_string function

 26 32  0  0  0  0  0  0  0  0999 V2000
    9.7662   -2.2580   23.4875 C   0  0  0  0  0  0  0  0  0  0  0  0
    9.6162   -4.6677   16.4374 N   0  0  0  0  0  0  0  0  0  0  0  0
    9.8615   -4.5716   17.6772 C   0  0  0  0  0  0  0  0  0  0  0  0
    6.2652   -7.9272   17.9391 C   0  0  0  0  0  0  0  0  0  0  0  0
   10.9204   -3.0464   19.2288 C   0  0  0  0  0  0  0  0  0  0  0  0
    9.5980   -0.7528   24.2338 C   0  0  0  0  0  0  0  0  0  0  0  0
    7.5490   -7.6482   17.3214 N   0  0  0  0  0  0  0  0  0  0  0  0
    9.4216    0.2494   23.5294 O   0  0  0  0  0  0  0  0  0  0  0  0
    8.4599   -0.1243   26.0315 N   0  0  0  0  0  0  0  0  0  0  0  0
    9.9861   -2.0150   22.2833 N   0  0  0  0  0  0  0  0  0  0  0  0
   10.5049   -4.8797   20.0161 C   0  0  0  0  0  0  0  0  0  0  0  0
    7.0889   -8.7870   16.4284 N   0  0  0  0  0  0  0  0  0  0  0  0
    5.8895   -9.1323   16.9330 N   0  0  0  0  0  0  0  0  0  0  0  0
    8.2844   -6.7670   17.4871 C   0  0  0  0  0  0  0  0  0  0  0  0
    8.9617   -6.0261   16.5281 C   0  0  0  0  0  0  0  0  0  0  0  0
   10.6354   -3.8266   22.7942 O   0  0  0  0  0  0  0  0  0  0  0  0
    9.5773   -5.3153   19.1458 C   0  0  0  0  0  0  0  0  0  0  0  0
    8.9024    1.4035   24.3759 O   0  0  0  0  0  0  0  0  0  0  0  0
   10.8701   -3.5074   18.1672 C   0  0  0  0  0  0  0  0  0  0  0  0
   10.5713   -3.4563   21.8681 C   0  0  0  0  0  0  0  0  0  0  0  0
    8.9086   -6.4466   18.4459 C   0  0  0  0  0  0  0  0  0  0  0  0
    8.9573   -1.1372   25.1004 S   0  0  0  0  0  0  0  0  0  0  0  0
   10.7556   -3.8261   20.3975 C   0  0  0  0  0  0  0  0  0  0  0  0
    8.4637    1.3975   25.5456 He  0  0  0  0  0  0  0  0  0  0  0  0
    6.4480   -8.7226   16.8022 He  0  0  0  0  0  0  0  0  0  0  0  0
   10.0441   -3.2617   23.8988 He  0  0  0  0  0  0  0  0  0  0  0  0
  1  6  1  0
  1 10  4  0
  2  3  4  0
  2 15  4  0
  3 17  4  0
  3 19  4  0
  4  7  4  0
  4 14  1  0
  4 17  2  0
  5 19  4  0
  5 23  4  0
  6  8  4  0
  6  9  4  0
  6 22  4  0
  7 12  4  0
  7 14  1  0
  8 15  2  0
  8 18  4  0
  9 22  4  0
 10 20  4  0
 10 23  3  0
 11 17  4  0
 11 23  4  0
 12 13  1  0
 13 15  1  0
 14 15  1  0
 14 21  4  0
 15 16  3  0
 15 18  4  0
 16 20  4  0
 17 21  4  0
 20 23  1  0
M  END
$$$$

 Created by Python create_sdf_string function

 26 30  0  0  0  0  0  0  0  0999 V2000
    9.9120   -2.0500   23.4630 C   0  0  0  0  0  0  0  0  0  0  0  0
    9.6082   -4.8405   16.5221 N   0  0  0  0  0  0  0  0  0  0  0  0
   10.0480   -4.5412   17.7731 C   0  0  0  0  0  0  0  0  0  0  0  0
    8.4364    1.2474   25.5085 C   0  0  0  0  0  0  0  0  0  0  0  0
    6.2730   -8.0036   17.8776 C   0  0  0  0  0  0  0  0  0  0  0  0
    6.4150   -9.3403   16.3514 N   0  0  0  0  0  0  0  0  0  0  0  0
   11.0152   -2.9859   19.3778 C   0  0  0  0  0  0  0  0  0  0  0  0
    9.4275   -0.9298   24.1834 C   0  0  0  0  0  0  0  0  0  0  0  0
    7.4210   -7.7082   17.1929 N   0  0  0  0  0  0  0  0  0  0  0  0
    9.4657    0.3060   23.5888 C   0  0  0  0  0  0  0  0  0  0  0  0
    8.4080    0.0421   26.1367 N   0  0  0  0  0  0  0  0  0  0  0  0
   10.2007   -2.0962   22.1591 N   0  0  0  0  0  0  0  0  0  0  0  0
   10.1371   -5.0434   20.1297 C   0  0  0  0  0  0  0  0  0  0  0  0
   10.1876   -3.2539   23.9667 N   0  0  0  0  0  0  0  0  0  0  0  0
    7.3982   -8.5736   16.2163 N   0  0  0  0  0  0  0  0  0  0  0  0
    5.6016   -8.9400   17.2477 N   0  0  0  0  0  0  0  0  0  0  0  0
    8.3542   -6.7164   17.3946 C   0  0  0  0  0  0  0  0  0  0  0  0
    8.8010   -5.8978   16.3384 C   0  0  0  0  0  0  0  0  0  0  0  0
   10.6011   -4.1060   22.8542 O   0  0  0  0  0  0  0  0  0  0  0  0
    9.7169   -5.3623   18.8358 C   0  0  0  0  0  0  0  0  0  0  0  0
    8.9756    1.3970   24.2722 C   0  0  0  0  0  0  0  0  0  0  0  0
   10.7321   -3.3724   18.0492 C   0  0  0  0  0  0  0  0  0  0  0  0
   10.5079   -3.3433   21.7409 C   0  0  0  0  0  0  0  0  0  0  0  0
    8.8667   -6.4457   18.5930 C   0  0  0  0  0  0  0  0  0  0  0  0
    8.9191   -1.0935   25.5127 C   0  0  0  0  0  0  0  0  0  0  0  0
   10.5954   -3.7856   20.4101 C   0  0  0  0  0  0  0  0  0  0  0  0
  1  8  1  0
  1 12  4  0
  1 14  4  0
  2  3  4  0
  2 18  4  0
  3 20  4  0
  3 22  4  0
  4 11  4  0
  4 21  4  0
  5  9  4  0
  5 16  4  0
  6 15  4  0
  6 16  4  0
  7 22  4  0
  7 26  4  0
  8 10  4  0
  8 25  4  0
  9 15  4  0
  9 17  1  0
 10 21  4  0
 11 25  4  0
 12 23  4  0
 13 20  4  0
 13 26  4  0
 14 19  4  0
 17 18  4  0
 17 24  4  0
 19 23  4  0
 20 24  4  0
 23 26  1  0
M  END
$$$$

 Created by Python create_sdf_string function

 26 57  0  0  0  0  0  0  0  0999 V2000
    9.9648   -2.4386   23.3732 C   0  0  0  0  0  0  0  0  0  0  0  0
    9.5320   -4.7773   16.4026 N   0  0  0  0  0  0  0  0  0  0  0  0
   10.2882   -4.3973   17.7181 C   0  0  0  0  0  0  0  0  0  0  0  0
    8.1138    1.4481   25.7351 C   0  0  0  0  0  0  0  0  0  0  0  0
    6.4772   -7.9036   18.1226 C   0  0  0  0  0  0  0  0  0  0  0  0
    7.1013   -8.7660   16.6756 C   0  0  0  0  0  0  0  0  0  0  0  0
   11.0293   -3.0204   19.4829 C   0  0  0  0  0  0  0  0  0  0  0  0
    9.3345   -0.7870   24.4091 C   0  0  0  0  0  0  0  0  0  0  0  0
    7.1333   -7.7320   17.0433 N   0  0  0  0  0  0  0  0  0  0  0  0
    9.8911    0.0296   23.7780 C   0  0  0  0  0  0  0  0  0  0  0  0
    8.6045   -0.0966   25.8349 N   0  0  0  0  0  0  0  0  0  0  0  0
   10.1881   -2.0289   22.1577 N   0  0  0  0  0  0  0  0  0  0  0  0
   10.0788   -5.0033   20.2181 C   0  0  0  0  0  0  0  0  0  0  0  0
   10.3701   -3.3535   23.8470 N   0  0  0  0  0  0  0  0  0  0  0  0
    7.4121   -8.9835   15.8310 B   0  0  0  0  0  0  0  0  0  0  0  0
    5.3707   -8.7849   17.4805 N   0  0  0  0  0  0  0  0  0  0  0  0
    8.3956   -6.7537   17.5160 C   0  0  0  0  0  0  0  0  0  0  0  0
    8.9084   -5.9897   16.3675 C   0  0  0  0  0  0  0  0  0  0  0  0
    9.7803   -5.3820   18.7322 C   0  0  0  0  0  0  0  0  0  0  0  0
    8.9636    1.3339   24.4117 C   0  0  0  0  0  0  0  0  0  0  0  0
   10.6073   -3.3055   17.8268 C   0  0  0  0  0  0  0  0  0  0  0  0
   10.8059   -3.2796   21.9085 C   0  0  0  0  0  0  0  0  0  0  0  0
    8.8385   -6.4077   18.6514 C   0  0  0  0  0  0  0  0  0  0  0  0
    8.8455   -1.0062   25.4630 C   0  0  0  0  0  0  0  0  0  0  0  0
   10.3867   -3.9403   20.7065 C   0  0  0  0  0  0  0  0  0  0  0  0
   10.9615   -4.3323   22.9628 He  0  0  0  0  0  0  0  0  0  0  0  0
  1  4  1  0
  1  6  3  0
  1 12  4  0
  1 14  4  0
  1 15  3  0
  1 21  4  0
  2  3  4  0
  2  9  2  0
  2 20  2  0
  2 23  2  0
  2 24  2  0
  3 14  4  0
  3 19  4  0
  3 24  3  0
  4  6  2  0
  4 11  4  0
  4 16  3  0
  4 20  4  0
  5  9  4  0
  5 11  3  0
  5 13  2  0
  5 15  1  0
  5 16  4  0
  6  8  2  0
  6 11  1  0
  6 15  4  0
  6 16  4  0
  6 18  1  0
  7 21  4  0
  7 24  3  0
  7 25  4  0
  8 10  4  0
  8 24  4  0
  9 15  4  0
  9 17  1  0
  9 25  4  0
 10 16  1  0
 10 19  2  0
 10 20  4  0
 11 24  4  0
 12 22  4  0
 13 15  3  0
 13 19  4  0
 13 25  4  0
 14 18  2  0
 15 18  3  0
 15 20  4  0
 15 21  4  0
 15 23  4  0
 16 17  3  0
 16 23  4  0
 17 18  4  0
 17 23  4  0
 18 19  3  0
 18 20  4  0
 19 23  4  0
 22 25  1  0
M  END
$$$$

 Created by Python create_sdf_string function

 26 30  0  0  0  0  0  0  0  0999 V2000
   10.0469   -2.1352   23.5643 C   0  0  0  0  0  0  0  0  0  0  0  0
    9.6746   -4.7937   16.5128 N   0  0  0  0  0  0  0  0  0  0  0  0
   10.0302   -4.5049   17.7858 C   0  0  0  0  0  0  0  0  0  0  0  0
    8.4087    1.1519   25.5379 C   0  0  0  0  0  0  0  0  0  0  0  0
    6.4027   -7.8977   17.9610 C   0  0  0  0  0  0  0  0  0  0  0  0
    6.2998   -9.3094   16.3993 C   0  0  0  0  0  0  0  0  0  0  0  0
   10.9687   -2.9823   19.4475 C   0  0  0  0  0  0  0  0  0  0  0  0
    9.5479   -0.9967   24.2734 C   0  0  0  0  0  0  0  0  0  0  0  0
    7.4802   -7.6266   17.1819 N   0  0  0  0  0  0  0  0  0  0  0  0
    9.6490    0.2265   23.6739 C   0  0  0  0  0  0  0  0  0  0  0  0
    8.3107   -0.0783   26.1132 N   0  0  0  0  0  0  0  0  0  0  0  0
   10.2864   -2.1697   22.2355 N   0  0  0  0  0  0  0  0  0  0  0  0
   10.0987   -5.0382   20.1281 C   0  0  0  0  0  0  0  0  0  0  0  0
   10.3159   -3.3130   24.0745 N   0  0  0  0  0  0  0  0  0  0  0  0
    7.4493   -8.5488   16.1335 N   0  0  0  0  0  0  0  0  0  0  0  0
    5.7174   -8.9057   17.4854 N   0  0  0  0  0  0  0  0  0  0  0  0
    8.4034   -6.6603   17.3347 C   0  0  0  0  0  0  0  0  0  0  0  0
    8.8482   -5.8385   16.3009 C   0  0  0  0  0  0  0  0  0  0  0  0
   10.7553   -4.2075   22.9373 O   0  0  0  0  0  0  0  0  0  0  0  0
    9.6697   -5.3363   18.8306 C   0  0  0  0  0  0  0  0  0  0  0  0
    9.0907    1.3242   24.3321 C   0  0  0  0  0  0  0  0  0  0  0  0
   10.7450   -3.3462   18.0715 C   0  0  0  0  0  0  0  0  0  0  0  0
   10.5926   -3.4088   21.8134 C   0  0  0  0  0  0  0  0  0  0  0  0
    8.9015   -6.4275   18.5537 C   0  0  0  0  0  0  0  0  0  0  0  0
    8.9031   -1.1408   25.5033 C   0  0  0  0  0  0  0  0  0  0  0  0
   10.5975   -3.8107   20.4518 C   0  0  0  0  0  0  0  0  0  0  0  0
  1  8  1  0
  1 12  4  0
  1 14  4  0
  2  3  4  0
  2 18  4  0
  3 20  4  0
  3 22  4  0
  4 11  4  0
  4 21  4  0
  5  9  4  0
  5 16  4  0
  6 15  4  0
  6 16  4  0
  7 22  4  0
  7 26  4  0
  8 10  4  0
  8 25  4  0
  9 15  4  0
  9 17  1  0
 10 21  4  0
 11 25  4  0
 12 23  4  0
 13 20  4  0
 13 26  4  0
 14 19  4  0
 17 18  4  0
 17 24  4  0
 19 23  4  0
 20 24  4  0
 23 26  1  0
M  END
$$$$

 Created by Python create_sdf_string function

 26 26  0  0  0  0  0  0  0  0999 V2000
   10.0033   -1.7490   23.5875 C   0  0  0  0  0  0  0  0  0  0  0  0
    9.5510   -4.7035   16.4386 N   0  0  0  0  0  0  0  0  0  0  0  0
    5.5732   -8.8484   16.1457 C   0  0  0  0  0  0  0  0  0  0  0  0
    9.4888   -0.8890   24.2516 C   0  0  0  0  0  0  0  0  0  0  0  0
    8.0361   -8.0106   17.0800 N   0  0  0  0  0  0  0  0  0  0  0  0
    9.7841    0.2659   23.6223 C   0  0  0  0  0  0  0  0  0  0  0  0
   10.0712   -2.4039   22.0343 N   0  0  0  0  0  0  0  0  0  0  0  0
    9.8862   -4.7460   20.0333 C   0  0  0  0  0  0  0  0  0  0  0  0
   10.0960   -3.4246   24.0283 N   0  0  0  0  0  0  0  0  0  0  0  0
    7.4610   -7.9934   16.4415 N   0  0  0  0  0  0  0  0  0  0  0  0
    5.2074   -9.0764   17.1809 N   0  0  0  0  0  0  0  0  0  0  0  0
    8.5873   -6.4971   17.4310 C   0  0  0  0  0  0  0  0  0  0  0  0
    9.2105   -6.5473   16.2744 C   0  0  0  0  0  0  0  0  0  0  0  0
   10.6076   -4.1109   22.7991 O   0  0  0  0  0  0  0  0  0  0  0  0
    9.8719   -5.4223   18.5616 C   0  0  0  0  0  0  0  0  0  0  0  0
    9.2748    1.4543   24.3206 C   0  0  0  0  0  0  0  0  0  0  0  0
   10.7495   -3.5138   18.0843 C   0  0  0  0  0  0  0  0  0  0  0  0
   10.5015   -3.7290   21.6889 C   0  0  0  0  0  0  0  0  0  0  0  0
    8.8589   -6.2623   18.6946 C   0  0  0  0  0  0  0  0  0  0  0  0
   10.6272   -3.5760   20.6897 C   0  0  0  0  0  0  0  0  0  0  0  0
   10.1138   -4.3558   17.7093 He  0  0  0  0  0  0  0  0  0  0  0  0
    8.5354    1.0782   25.5965 He  0  0  0  0  0  0  0  0  0  0  0  0
    6.4618   -8.1671   18.5003 He  0  0  0  0  0  0  0  0  0  0  0  0
   10.8840   -3.3227   19.3521 He  0  0  0  0  0  0  0  0  0  0  0  0
    8.3521   -0.1299   26.0031 He  0  0  0  0  0  0  0  0  0  0  0  0
    8.8428   -1.3711   25.4676 He  0  0  0  0  0  0  0  0  0  0  0  0
  1  4  1  0
  1  6  2  0
  1  7  4  0
  1  9  4  0
  2 13  4  0
  3  4  3  0
  3  5  2  0
  3 10  4  0
  3 11  4  0
  3 15  2  0
  4  6  4  0
  5 10  4  0
  5 12  1  0
  6  9  3  0
  6 16  4  0
  7 18  4  0
  8 20  4  0
  9 17  4  0
 11 15  3  0
 11 16  3  0
 12 13  3  0
 12 19  4  0
 14 18  4  0
 15 19  4  0
 16 20  1  0
 17 18  1  0
M  END
$$$$

 Created by Python create_sdf_string function

 26 30  0  0  0  0  0  0  0  0999 V2000
    9.9909   -2.1232   23.5095 C   0  0  0  0  0  0  0  0  0  0  0  0
    9.8063   -4.9380   16.4433 N   0  0  0  0  0  0  0  0  0  0  0  0
   10.0766   -4.5461   17.7176 C   0  0  0  0  0  0  0  0  0  0  0  0
    8.5259    1.1902   25.5538 N   0  0  0  0  0  0  0  0  0  0  0  0
    6.5817   -8.1556   18.1301 C   0  0  0  0  0  0  0  0  0  0  0  0
    5.9597   -8.8560   16.2093 C   0  0  0  0  0  0  0  0  0  0  0  0
   10.9699   -3.0332   19.3970 C   0  0  0  0  0  0  0  0  0  0  0  0
    9.5310   -0.9950   24.2283 C   0  0  0  0  0  0  0  0  0  0  0  0
    7.4892   -7.6612   17.1655 N   0  0  0  0  0  0  0  0  0  0  0  0
    9.7295    0.2632   23.6745 C   0  0  0  0  0  0  0  0  0  0  0  0
    8.3523   -0.0573   26.0867 C   0  0  0  0  0  0  0  0  0  0  0  0
   10.2547   -2.1826   22.1915 N   0  0  0  0  0  0  0  0  0  0  0  0
   10.0042   -4.9791   20.1161 C   0  0  0  0  0  0  0  0  0  0  0  0
   10.2175   -3.2889   24.0420 N   0  0  0  0  0  0  0  0  0  0  0  0
    7.1168   -8.2209   16.0224 N   0  0  0  0  0  0  0  0  0  0  0  0
    5.5496   -8.8136   17.4581 N   0  0  0  0  0  0  0  0  0  0  0  0
    8.4863   -6.7079   17.3406 C   0  0  0  0  0  0  0  0  0  0  0  0
    9.0116   -5.9833   16.2832 C   0  0  0  0  0  0  0  0  0  0  0  0
   10.5734   -4.2288   22.8464 O   0  0  0  0  0  0  0  0  0  0  0  0
    9.6777   -5.3125   18.8172 C   0  0  0  0  0  0  0  0  0  0  0  0
    9.2148    1.3489   24.3819 C   0  0  0  0  0  0  0  0  0  0  0  0
   10.8077   -3.3891   18.0365 C   0  0  0  0  0  0  0  0  0  0  0  0
   10.4892   -3.4161   21.7720 C   0  0  0  0  0  0  0  0  0  0  0  0
    8.9303   -6.4299   18.5563 C   0  0  0  0  0  0  0  0  0  0  0  0
    8.8704   -1.1847   25.4611 C   0  0  0  0  0  0  0  0  0  0  0  0
   10.5287   -3.8001   20.4178 C   0  0  0  0  0  0  0  0  0  0  0  0
  1  8  1  0
  1 12  4  0
  1 14  4  0
  2  3  4  0
  2 18  4  0
  3 20  4  0
  3 22  4  0
  4 11  4  0
  4 21  4  0
  5  9  4  0
  5 16  4  0
  6 15  4  0
  6 16  4  0
  7 22  4  0
  7 26  4  0
  8 10  4  0
  8 25  4  0
  9 15  4  0
  9 17  1  0
 10 21  4  0
 11 25  4  0
 12 23  4  0
 13 20  4  0
 13 26  4  0
 14 19  4  0
 17 18  4  0
 17 24  4  0
 19 23  4  0
 20 24  4  0
 23 26  1  0
M  END
$$$$

 Created by Python create_sdf_string function

 26 36  0  0  0  0  0  0  0  0999 V2000
   10.0956   -2.2597   23.5434 S   0  0  0  0  0  0  0  0  0  0  0  0
    9.8122   -4.8143   16.3072 N   0  0  0  0  0  0  0  0  0  0  0  0
    9.9908   -4.6282   17.6576 C   0  0  0  0  0  0  0  0  0  0  0  0
    8.2600    0.9011   25.2508 N   0  0  0  0  0  0  0  0  0  0  0  0
    6.5600   -8.4136   17.8638 F   0  0  0  0  0  0  0  0  0  0  0  0
    5.8598   -8.9247   16.6791 C   0  0  0  0  0  0  0  0  0  0  0  0
   10.8971   -3.0782   19.5145 F   0  0  0  0  0  0  0  0  0  0  0  0
    9.4419   -1.2000   24.3000 C   0  0  0  0  0  0  0  0  0  0  0  0
    7.7601   -7.0141   16.5005 N   0  0  0  0  0  0  0  0  0  0  0  0
    9.4840    0.4026   23.8308 C   0  0  0  0  0  0  0  0  0  0  0  0
    8.2380    0.0887   26.0117 C   0  0  0  0  0  0  0  0  0  0  0  0
   10.0079   -5.0526   20.0600 C   0  0  0  0  0  0  0  0  0  0  0  0
   10.4954   -3.2526   23.8897 N   0  0  0  0  0  0  0  0  0  0  0  0
    7.0870   -7.9212   15.9773 N   0  0  0  0  0  0  0  0  0  0  0  0
    5.1721   -8.7118   18.1397 N   0  0  0  0  0  0  0  0  0  0  0  0
    8.3105   -6.8734   17.3864 C   0  0  0  0  0  0  0  0  0  0  0  0
    9.0880   -6.1639   16.1754 C   0  0  0  0  0  0  0  0  0  0  0  0
   10.5186   -4.2906   22.5874 O   0  0  0  0  0  0  0  0  0  0  0  0
    9.2338    1.4240   24.6944 C   0  0  0  0  0  0  0  0  0  0  0  0
   10.7966   -3.3044   18.0466 C   0  0  0  0  0  0  0  0  0  0  0  0
   10.4493   -3.4803   22.0403 C   0  0  0  0  0  0  0  0  0  0  0  0
    8.8406   -6.5371   18.8227 C   0  0  0  0  0  0  0  0  0  0  0  0
    8.9842   -1.3283   25.4175 C   0  0  0  0  0  0  0  0  0  0  0  0
   10.6751   -3.6077   20.8348 C   0  0  0  0  0  0  0  0  0  0  0  0
   10.2801   -2.4434   22.2387 He  0  0  0  0  0  0  0  0  0  0  0  0
    9.7566   -5.2747   19.3027 He  0  0  0  0  0  0  0  0  0  0  0  0
  1  8  1  0
  1 13  4  0
  1 15  3  0
  2  3  4  0
  2 14  3  0
  3 20  4  0
  4 11  4  0
  4 19  4  0
  5  9  3  0
  5 11  2  0
  5 15  4  0
  5 16  2  0
  6 10  3  0
  6 13  2  0
  6 14  4  0
  6 22  2  0
  7  8  2  0
  7 24  4  0
  8  9  4  0
  8 10  4  0
  8 23  4  0
  9 16  1  0
 10 19  4  0
 11 12  2  0
 11 22  3  0
 11 23  4  0
 12 15  2  0
 12 24  4  0
 13 18  4  0
 15 18  2  0
 16 17  4  0
 16 22  4  0
 17 22  3  0
 18 21  4  0
 21 23  1  0
 22 24  2  0
M  END
$$$$

 Created by Python create_sdf_string function

 26 30  0  0  0  0  0  0  0  0999 V2000
   10.0620   -2.1501   23.5790 C   0  0  0  0  0  0  0  0  0  0  0  0
    9.8699   -4.7772   16.4916 N   0  0  0  0  0  0  0  0  0  0  0  0
   10.1140   -4.5310   17.7656 C   0  0  0  0  0  0  0  0  0  0  0  0
    8.3511    1.1142   25.5397 N   0  0  0  0  0  0  0  0  0  0  0  0
    6.6303   -8.1246   18.0785 C   0  0  0  0  0  0  0  0  0  0  0  0
    5.8305   -8.7577   16.2686 C   0  0  0  0  0  0  0  0  0  0  0  0
   10.9543   -3.0273   19.4720 C   0  0  0  0  0  0  0  0  0  0  0  0
    9.5710   -1.0253   24.3109 C   0  0  0  0  0  0  0  0  0  0  0  0
    7.4289   -7.5542   17.1137 N   0  0  0  0  0  0  0  0  0  0  0  0
    9.7161    0.2381   23.7625 C   0  0  0  0  0  0  0  0  0  0  0  0
    8.2219   -0.1351   26.0841 C   0  0  0  0  0  0  0  0  0  0  0  0
   10.3010   -2.1882   22.2605 N   0  0  0  0  0  0  0  0  0  0  0  0
   10.0179   -5.0508   20.1197 C   0  0  0  0  0  0  0  0  0  0  0  0
   10.3148   -3.3349   24.0753 N   0  0  0  0  0  0  0  0  0  0  0  0
    6.9005   -8.0277   15.9853 N   0  0  0  0  0  0  0  0  0  0  0  0
    5.6274   -8.7485   17.6315 N   0  0  0  0  0  0  0  0  0  0  0  0
    8.4365   -6.6403   17.2160 C   0  0  0  0  0  0  0  0  0  0  0  0
    8.9888   -5.8481   16.2209 C   0  0  0  0  0  0  0  0  0  0  0  0
   10.6505   -4.2115   22.9073 O   0  0  0  0  0  0  0  0  0  0  0  0
    9.6777   -5.3648   18.7814 C   0  0  0  0  0  0  0  0  0  0  0  0
    9.0535    1.3085   24.3905 C   0  0  0  0  0  0  0  0  0  0  0  0
   10.7778   -3.3621   18.0893 C   0  0  0  0  0  0  0  0  0  0  0  0
   10.5356   -3.4158   21.8151 C   0  0  0  0  0  0  0  0  0  0  0  0
    8.9143   -6.4263   18.4482 C   0  0  0  0  0  0  0  0  0  0  0  0
    8.8568   -1.2435   25.5085 C   0  0  0  0  0  0  0  0  0  0  0  0
   10.5330   -3.8257   20.4658 C   0  0  0  0  0  0  0  0  0  0  0  0
  1  8  1  0
  1 12  4  0
  1 14  4  0
  2  3  4  0
  2 18  4  0
  3 20  4  0
  3 22  4  0
  4 11  4  0
  4 21  4  0
  5  9  4  0
  5 16  4  0
  6 15  4  0
  6 16  4  0
  7 22  4  0
  7 26  4  0
  8 10  4  0
  8 25  4  0
  9 15  4  0
  9 17  1  0
 10 21  4  0
 11 25  4  0
 12 23  4  0
 13 20  4  0
 13 26  4  0
 14 19  4  0
 17 18  4  0
 17 24  4  0
 19 23  4  0
 20 24  4  0
 23 26  1  0
M  END
$$$$

 Created by Python create_sdf_string function

 26 48  0  0  0  0  0  0  0  0999 V2000
   10.0311   -1.9664   23.7148 C   0  0  0  0  0  0  0  0  0  0  0  0
    9.8226   -4.7280   16.3530 N   0  0  0  0  0  0  0  0  0  0  0  0
   10.2775   -4.4473   17.9603 C   0  0  0  0  0  0  0  0  0  0  0  0
    8.4846    1.1886   25.6826 N   0  0  0  0  0  0  0  0  0  0  0  0
    7.1000   -7.9417   17.7716 P   0  0  0  0  0  0  0  0  0  0  0  0
    5.8066   -8.8062   15.8257 N   0  0  0  0  0  0  0  0  0  0  0  0
   10.8451   -3.0663   19.5360 C   0  0  0  0  0  0  0  0  0  0  0  0
    9.4953   -0.9192   24.2474 C   0  0  0  0  0  0  0  0  0  0  0  0
    6.7407   -7.7243   17.5769 N   0  0  0  0  0  0  0  0  0  0  0  0
    9.7691    0.2971   23.6831 C   0  0  0  0  0  0  0  0  0  0  0  0
    8.2335   -0.2445   26.2465 C   0  0  0  0  0  0  0  0  0  0  0  0
   10.2589   -2.1137   22.4264 N   0  0  0  0  0  0  0  0  0  0  0  0
    9.9772   -4.9406   20.1327 C   0  0  0  0  0  0  0  0  0  0  0  0
   10.2566   -3.2164   24.2993 N   0  0  0  0  0  0  0  0  0  0  0  0
    6.7725   -7.5190   16.1811 N   0  0  0  0  0  0  0  0  0  0  0  0
    5.5699   -8.4010   17.4699 N   0  0  0  0  0  0  0  0  0  0  0  0
    8.5570   -6.7174   17.4712 C   0  0  0  0  0  0  0  0  0  0  0  0
    8.7157   -6.2487   16.2352 C   0  0  0  0  0  0  0  0  0  0  0  0
   10.6355   -4.0272   22.9465 O   0  0  0  0  0  0  0  0  0  0  0  0
    9.1302    1.4272   24.5520 C   0  0  0  0  0  0  0  0  0  0  0  0
   10.7576   -3.3115   18.1407 C   0  0  0  0  0  0  0  0  0  0  0  0
   10.5553   -3.3167   21.8658 C   0  0  0  0  0  0  0  0  0  0  0  0
    8.8257   -6.3100   18.6172 C   0  0  0  0  0  0  0  0  0  0  0  0
    8.8060   -1.0915   25.4694 C   0  0  0  0  0  0  0  0  0  0  0  0
   10.5526   -3.8981   20.2659 C   0  0  0  0  0  0  0  0  0  0  0  0
    9.7807   -5.4343   18.5265 He  0  0  0  0  0  0  0  0  0  0  0  0
  1  6  1  0
  1  8  1  0
  1  9  4  0
  1 12  4  0
  1 13  1  0
  1 14  4  0
  1 22  4  0
  2  3  4  0
  2  7  4  0
  2 18  4  0
  2 25  1  0
  3 16  3  0
  3 21  4  0
  4 11  4  0
  4 20  4  0
  5  8  4  0
  5  9  4  0
  5 10  2  0
  5 16  4  0
  5 20  2  0
  6  8  2  0
  6 16  4  0
  6 20  3  0
  7  9  4  0
  7 16  3  0
  7 21  4  0
  7 24  3  0
  7 25  4  0
  8 10  4  0
  8 24  4  0
  9 15  4  0
  9 17  1  0
  9 19  1  0
  9 21  2  0
 10 15  4  0
 10 20  4  0
 11 24  4  0
 12 22  4  0
 13 15  1  0
 13 25  4  0
 14 15  4  0
 14 19  4  0
 15 22  1  0
 17 18  4  0
 17 23  4  0
 19 22  4  0
 19 23  3  0
 22 25  1  0
M  END
$$$$

 Created by Python create_sdf_string function

 26 30  0  0  0  0  0  0  0  0999 V2000
   10.0255   -2.0508   23.6122 C   0  0  0  0  0  0  0  0  0  0  0  0
    9.7906   -4.8354   16.4966 N   0  0  0  0  0  0  0  0  0  0  0  0
   10.0826   -4.5017   17.7973 C   0  0  0  0  0  0  0  0  0  0  0  0
    8.4468    1.1924   25.6705 N   0  0  0  0  0  0  0  0  0  0  0  0
    6.5868   -8.1338   18.0349 C   0  0  0  0  0  0  0  0  0  0  0  0
    5.6942   -8.4747   16.1530 N   0  0  0  0  0  0  0  0  0  0  0  0
   10.9552   -2.9546   19.4827 C   0  0  0  0  0  0  0  0  0  0  0  0
    9.5119   -0.9429   24.3431 C   0  0  0  0  0  0  0  0  0  0  0  0
    7.3094   -7.4617   17.1001 N   0  0  0  0  0  0  0  0  0  0  0  0
    9.6674    0.3227   23.8024 C   0  0  0  0  0  0  0  0  0  0  0  0
    8.2605   -0.0486   26.1977 C   0  0  0  0  0  0  0  0  0  0  0  0
   10.2906   -2.0777   22.3083 N   0  0  0  0  0  0  0  0  0  0  0  0
   10.0379   -4.9748   20.1626 C   0  0  0  0  0  0  0  0  0  0  0  0
   10.2675   -3.2394   24.1117 N   0  0  0  0  0  0  0  0  0  0  0  0
    6.7692   -7.7258   15.9251 N   0  0  0  0  0  0  0  0  0  0  0  0
    5.6245   -8.7669   17.4327 N   0  0  0  0  0  0  0  0  0  0  0  0
    8.3673   -6.5817   17.3006 C   0  0  0  0  0  0  0  0  0  0  0  0
    8.9166   -5.8210   16.2785 C   0  0  0  0  0  0  0  0  0  0  0  0
   10.5905   -4.1056   22.9663 O   0  0  0  0  0  0  0  0  0  0  0  0
    9.6772   -5.3120   18.8387 C   0  0  0  0  0  0  0  0  0  0  0  0
    9.1261    1.4028   24.5229 C   0  0  0  0  0  0  0  0  0  0  0  0
   10.7916   -3.3428   18.1142 C   0  0  0  0  0  0  0  0  0  0  0  0
   10.5035   -3.3241   21.8644 C   0  0  0  0  0  0  0  0  0  0  0  0
    8.8831   -6.3814   18.5121 C   0  0  0  0  0  0  0  0  0  0  0  0
    8.8209   -1.1589   25.5517 C   0  0  0  0  0  0  0  0  0  0  0  0
   10.5281   -3.7518   20.4821 C   0  0  0  0  0  0  0  0  0  0  0  0
  1  8  1  0
  1 12  4  0
  1 14  4  0
  2  3  4  0
  2 18  4  0
  3 20  4  0
  3 22  4  0
  4 11  4  0
  4 21  4  0
  5  9  4  0
  5 16  4  0
  6 15  4  0
  6 16  4  0
  7 22  4  0
  7 26  4  0
  8 10  4  0
  8 25  4  0
  9 15  4  0
  9 17  1  0
 10 21  4  0
 11 25  4  0
 12 23  4  0
 13 20  4  0
 13 26  4  0
 14 19  4  0
 17 18  4  0
 17 24  4  0
 19 23  4  0
 20 24  4  0
 23 26  1  0
M  END
$$$$

 Created by Python create_sdf_string function

 26 32  0  0  0  0  0  0  0  0999 V2000
    9.9937   -2.1239   23.5414 C   0  0  0  0  0  0  0  0  0  0  0  0
    9.8074   -4.7345   16.6217 N   0  0  0  0  0  0  0  0  0  0  0  0
   10.0964   -4.5748   17.6436 C   0  0  0  0  0  0  0  0  0  0  0  0
    8.5112    1.3255   25.5574 N   0  0  0  0  0  0  0  0  0  0  0  0
   11.0650   -2.9287   19.5232 C   0  0  0  0  0  0  0  0  0  0  0  0
    9.5227   -0.7071   24.4744 C   0  0  0  0  0  0  0  0  0  0  0  0
    7.5105   -7.5880   17.3852 N   0  0  0  0  0  0  0  0  0  0  0  0
    9.7658    0.2998   23.8408 C   0  0  0  0  0  0  0  0  0  0  0  0
   10.1497   -2.0009   22.2308 N   0  0  0  0  0  0  0  0  0  0  0  0
    9.9796   -5.0235   19.9589 C   0  0  0  0  0  0  0  0  0  0  0  0
   10.0669   -3.0206   24.1055 N   0  0  0  0  0  0  0  0  0  0  0  0
    6.8937   -7.5315   15.9509 Br  0  0  0  0  0  0  0  0  0  0  0  0
    5.7680   -8.6101   17.0610 N   0  0  0  0  0  0  0  0  0  0  0  0
    8.3560   -6.6300   17.3573 C   0  0  0  0  0  0  0  0  0  0  0  0
   10.5063   -4.1373   23.0254 O   0  0  0  0  0  0  0  0  0  0  0  0
    9.6405   -5.4441   18.8671 C   0  0  0  0  0  0  0  0  0  0  0  0
    9.0438    1.2789   24.4966 C   0  0  0  0  0  0  0  0  0  0  0  0
   10.8047   -3.5120   18.0723 C   0  0  0  0  0  0  0  0  0  0  0  0
   10.5551   -3.2364   21.6477 C   0  0  0  0  0  0  0  0  0  0  0  0
    8.8377   -6.4037   18.4583 C   0  0  0  0  0  0  0  0  0  0  0  0
    8.9230   -1.1264   25.6006 C   0  0  0  0  0  0  0  0  0  0  0  0
   10.6476   -3.6693   20.5470 C   0  0  0  0  0  0  0  0  0  0  0  0
    6.8657   -7.9016   17.6625 He  0  0  0  0  0  0  0  0  0  0  0  0
    5.5789   -8.3944   16.4147 He  0  0  0  0  0  0  0  0  0  0  0  0
    8.0954   -0.1752   26.0603 He  0  0  0  0  0  0  0  0  0  0  0  0
    8.4762   -5.5374   16.3284 He  0  0  0  0  0  0  0  0  0  0  0  0
  1  5  3  0
  1  6  1  0
  1  9  4  0
  1 11  4  0
  1 14  3  0
  2  3  4  0
  2 12  1  0
  2 13  2  0
  3 16  4  0
  3 18  4  0
  4 17  4  0
  4 22  1  0
  5  9  1  0
  5 18  4  0
  5 22  4  0
  6  8  4  0
  6 21  4  0
  7 12  4  0
  7 14  1  0
  8 11  4  0
  8 17  4  0
  9 10  1  0
  9 19  4  0
 10 16  4  0
 10 22  4  0
 11 15  4  0
 14 20  4  0
 15 19  4  0
 15 21  1  0
 16 17  4  0
 16 20  4  0
 19 22  1  0
M  END
$$$$

 Created by Python create_sdf_string function

 26 30  0  0  0  0  0  0  0  0999 V2000
    9.9715   -1.9992   23.5722 C   0  0  0  0  0  0  0  0  0  0  0  0
    9.6231   -4.6789   16.5316 N   0  0  0  0  0  0  0  0  0  0  0  0
   10.0566   -4.4650   17.7916 C   0  0  0  0  0  0  0  0  0  0  0  0
    8.3697    1.2234   25.5999 N   0  0  0  0  0  0  0  0  0  0  0  0
    6.6872   -8.1483   17.9135 C   0  0  0  0  0  0  0  0  0  0  0  0
    5.7031   -8.4345   16.0960 C   0  0  0  0  0  0  0  0  0  0  0  0
   11.0256   -2.9775   19.4546 C   0  0  0  0  0  0  0  0  0  0  0  0
    9.4982   -0.8816   24.3100 C   0  0  0  0  0  0  0  0  0  0  0  0
    7.3101   -7.3564   17.0296 N   0  0  0  0  0  0  0  0  0  0  0  0
    9.6836    0.3742   23.7763 C   0  0  0  0  0  0  0  0  0  0  0  0
    8.2507   -0.0030   26.1619 C   0  0  0  0  0  0  0  0  0  0  0  0
   10.2738   -2.0218   22.2645 N   0  0  0  0  0  0  0  0  0  0  0  0
   10.0339   -4.9798   20.1552 C   0  0  0  0  0  0  0  0  0  0  0  0
   10.1454   -3.1990   24.0694 N   0  0  0  0  0  0  0  0  0  0  0  0
    6.6910   -7.5970   15.8593 N   0  0  0  0  0  0  0  0  0  0  0  0
    5.6657   -8.6976   17.3427 N   0  0  0  0  0  0  0  0  0  0  0  0
    8.3411   -6.4708   17.2786 C   0  0  0  0  0  0  0  0  0  0  0  0
    8.8109   -5.6542   16.2597 C   0  0  0  0  0  0  0  0  0  0  0  0
   10.4881   -4.0838   22.9196 O   0  0  0  0  0  0  0  0  0  0  0  0
    9.6706   -5.3045   18.8195 C   0  0  0  0  0  0  0  0  0  0  0  0
    9.1081    1.4416   24.4915 C   0  0  0  0  0  0  0  0  0  0  0  0
   10.8508   -3.3608   18.1032 C   0  0  0  0  0  0  0  0  0  0  0  0
   10.4658   -3.2851   21.8229 C   0  0  0  0  0  0  0  0  0  0  0  0
    8.9046   -6.3606   18.4979 C   0  0  0  0  0  0  0  0  0  0  0  0
    8.8358   -1.0939   25.5418 C   0  0  0  0  0  0  0  0  0  0  0  0
   10.5401   -3.7421   20.4555 C   0  0  0  0  0  0  0  0  0  0  0  0
  1  8  1  0
  1 12  4  0
  1 14  4  0
  2  3  4  0
  2 18  4  0
  3 20  4  0
  3 22  4  0
  4 11  4  0
  4 21  4  0
  5  9  4  0
  5 16  4  0
  6 15  4  0
  6 16  4  0
  7 22  4  0
  7 26  4  0
  8 10  4  0
  8 25  4  0
  9 15  4  0
  9 17  1  0
 10 21  4  0
 11 25  4  0
 12 23  4  0
 13 20  4  0
 13 26  4  0
 14 19  4  0
 17 18  4  0
 17 24  4  0
 19 23  4  0
 20 24  4  0
 23 26  1  0
M  END
$$$$

 Created by Python create_sdf_string function

 26 54  0  0  0  0  0  0  0  0999 V2000
   10.0337   -1.9228   23.6223 C   0  0  0  0  0  0  0  0  0  0  0  0
    9.6514   -5.0199   16.6300 N   0  0  0  0  0  0  0  0  0  0  0  0
   10.0493   -4.3130   17.6094 C   0  0  0  0  0  0  0  0  0  0  0  0
    8.3151    1.0989   25.6450 N   0  0  0  0  0  0  0  0  0  0  0  0
    6.3110   -7.7722   17.6854 C   0  0  0  0  0  0  0  0  0  0  0  0
    5.6607   -8.5635   16.1488 C   0  0  0  0  0  0  0  0  0  0  0  0
   11.0564   -3.0124   19.4142 C   0  0  0  0  0  0  0  0  0  0  0  0
    9.4462   -0.7976   24.3281 C   0  0  0  0  0  0  0  0  0  0  0  0
    7.4859   -7.1463   16.7804 N   0  0  0  0  0  0  0  0  0  0  0  0
    9.8284    0.3837   23.7498 C   0  0  0  0  0  0  0  0  0  0  0  0
    8.2784    0.1013   26.0680 C   0  0  0  0  0  0  0  0  0  0  0  0
   10.1806   -2.0308   22.0298 N   0  0  0  0  0  0  0  0  0  0  0  0
   10.1243   -5.0325   20.1167 C   0  0  0  0  0  0  0  0  0  0  0  0
   10.1658   -3.3904   24.1515 C   0  0  0  0  0  0  0  0  0  0  0  0
    7.0152   -7.9592   15.8548 N   0  0  0  0  0  0  0  0  0  0  0  0
    5.6823   -8.4575   17.3624 N   0  0  0  0  0  0  0  0  0  0  0  0
    8.3227   -6.6878   17.1060 C   0  0  0  0  0  0  0  0  0  0  0  0
    9.1089   -5.5009   16.5584 C   0  0  0  0  0  0  0  0  0  0  0  0
   10.4346   -3.9497   22.8596 O   0  0  0  0  0  0  0  0  0  0  0  0
    9.9058   -5.1464   18.9312 C   0  0  0  0  0  0  0  0  0  0  0  0
    8.9674    1.3858   24.5346 C   0  0  0  0  0  0  0  0  0  0  0  0
   10.8109   -3.4288   18.1247 B   0  0  0  0  0  0  0  0  0  0  0  0
   10.3741   -3.4097   21.9815 C   0  0  0  0  0  0  0  0  0  0  0  0
    9.0391   -6.3781   18.7303 C   0  0  0  0  0  0  0  0  0  0  0  0
    8.7777   -1.4079   25.4898 C   0  0  0  0  0  0  0  0  0  0  0  0
   10.3423   -3.8339   20.4701 C   0  0  0  0  0  0  0  0  0  0  0  0
  1  8  1  0
  1 12  4  0
  1 14  4  0
  2  3  4  0
  2 18  4  0
  2 24  2  0
  3 16  4  0
  3 20  4  0
  3 22  4  0
  4 11  4  0
  4 17  2  0
  4 21  4  0
  5  9  4  0
  5 11  3  0
  5 12  1  0
  5 22  2  0
  6  9  3  0
  6 13  3  0
  6 15  4  0
  6 16  4  0
  7  9  3  0
  7 22  4  0
  7 24  1  0
  7 26  4  0
  8 10  4  0
  8 25  4  0
  9 10  4  0
  9 11  3  0
  9 15  1  0
  9 17  1  0
  9 20  4  0
  9 23  1  0
  9 26  4  0
 10 21  4  0
 11 23  1  0
 11 25  4  0
 12 14  4  0
 12 23  4  0
 12 26  1  0
 13 20  4  0
 13 23  4  0
 13 26  4  0
 14 15  4  0
 14 18  1  0
 14 19  4  0
 15 21  1  0
 15 23  1  0
 15 26  2  0
 17 18  4  0
 17 24  4  0
 19 23  4  0
 20 24  4  0
 23 25  3  0
 23 26  1  0
M  END
$$$$

 Created by Python create_sdf_string function

 26 30  0  0  0  0  0  0  0  0999 V2000
    9.9694   -2.0427   23.5689 C   0  0  0  0  0  0  0  0  0  0  0  0
    9.7777   -4.7044   16.5393 N   0  0  0  0  0  0  0  0  0  0  0  0
   10.1318   -4.4545   17.8131 C   0  0  0  0  0  0  0  0  0  0  0  0
    8.3493    1.2012   25.6229 N   0  0  0  0  0  0  0  0  0  0  0  0
    6.4159   -7.7427   17.8877 C   0  0  0  0  0  0  0  0  0  0  0  0
    5.8655   -8.5656   16.0466 C   0  0  0  0  0  0  0  0  0  0  0  0
   10.9827   -2.9287   19.4822 C   0  0  0  0  0  0  0  0  0  0  0  0
    9.4804   -0.9164   24.3108 C   0  0  0  0  0  0  0  0  0  0  0  0
    7.3339   -7.3520   17.0081 N   0  0  0  0  0  0  0  0  0  0  0  0
    9.6314    0.3498   23.7739 C   0  0  0  0  0  0  0  0  0  0  0  0
    8.2034   -0.0381   26.1606 C   0  0  0  0  0  0  0  0  0  0  0  0
   10.2455   -2.0707   22.2513 N   0  0  0  0  0  0  0  0  0  0  0  0
   10.0307   -4.9936   20.1402 C   0  0  0  0  0  0  0  0  0  0  0  0
   10.1932   -3.3031   24.0253 N   0  0  0  0  0  0  0  0  0  0  0  0
    7.0025   -7.8666   15.8107 N   0  0  0  0  0  0  0  0  0  0  0  0
    5.4869   -8.4383   17.2891 N   0  0  0  0  0  0  0  0  0  0  0  0
    8.3994   -6.4950   17.2451 C   0  0  0  0  0  0  0  0  0  0  0  0
    8.9522   -5.6884   16.2741 C   0  0  0  0  0  0  0  0  0  0  0  0
   10.4652   -4.1418   22.8953 O   0  0  0  0  0  0  0  0  0  0  0  0
    9.7073   -5.3087   18.8174 C   0  0  0  0  0  0  0  0  0  0  0  0
    9.0573    1.4224   24.4858 C   0  0  0  0  0  0  0  0  0  0  0  0
   10.8312   -3.3197   18.1307 N   0  0  0  0  0  0  0  0  0  0  0  0
   10.4457   -3.3325   21.8113 C   0  0  0  0  0  0  0  0  0  0  0  0
    8.9104   -6.3561   18.4841 C   0  0  0  0  0  0  0  0  0  0  0  0
    8.8127   -1.1378   25.5446 C   0  0  0  0  0  0  0  0  0  0  0  0
   10.5276   -3.7453   20.4679 C   0  0  0  0  0  0  0  0  0  0  0  0
  1  8  1  0
  1 12  4  0
  1 14  4  0
  2  3  4  0
  2 18  4  0
  3 20  4  0
  3 22  4  0
  4 11  4  0
  4 21  4  0
  5  9  4  0
  5 16  4  0
  6 15  4  0
  6 16  4  0
  7 22  4  0
  7 26  4  0
  8 10  4  0
  8 25  4  0
  9 15  4  0
  9 17  1  0
 10 21  4  0
 11 25  4  0
 12 23  4  0
 13 20  4  0
 13 26  4  0
 14 19  4  0
 17 18  4  0
 17 24  4  0
 19 23  4  0
 20 24  4  0
 23 26  1  0
M  END
$$$$

 Created by Python create_sdf_string function

 26 47  0  0  0  0  0  0  0  0999 V2000
    9.6653   -2.1239   23.3683 C   0  0  0  0  0  0  0  0  0  0  0  0
    9.9510   -4.7676   16.3420 N   0  0  0  0  0  0  0  0  0  0  0  0
    8.3741    1.1542   25.5302 N   0  0  0  0  0  0  0  0  0  0  0  0
    6.5828   -7.4624   17.6153 C   0  0  0  0  0  0  0  0  0  0  0  0
    5.9621   -8.7398   15.8245 C   0  0  0  0  0  0  0  0  0  0  0  0
   11.0603   -2.9509   19.3336 C   0  0  0  0  0  0  0  0  0  0  0  0
    9.5993   -1.0377   24.4603 C   0  0  0  0  0  0  0  0  0  0  0  0
    7.3061   -7.1403   17.1108 S   0  0  0  0  0  0  0  0  0  0  0  0
    9.6470    0.2250   23.7849 C   0  0  0  0  0  0  0  0  0  0  0  0
    8.4723   -0.1455   26.0524 C   0  0  0  0  0  0  0  0  0  0  0  0
   10.1608   -1.9764   22.3726 N   0  0  0  0  0  0  0  0  0  0  0  0
   10.1391   -4.7761   20.0555 C   0  0  0  0  0  0  0  0  0  0  0  0
    9.8726   -3.3866   23.9684 N   0  0  0  0  0  0  0  0  0  0  0  0
    7.2002   -8.2916   15.9436 N   0  0  0  0  0  0  0  0  0  0  0  0
    5.8331   -8.4104   17.4513 N   0  0  0  0  0  0  0  0  0  0  0  0
    8.5399   -6.2178   17.2062 C   0  0  0  0  0  0  0  0  0  0  0  0
    9.3093   -5.2999   16.7895 C   0  0  0  0  0  0  0  0  0  0  0  0
   10.2485   -3.9318   22.9368 O   0  0  0  0  0  0  0  0  0  0  0  0
    9.6494   -5.5160   18.8518 C   0  0  0  0  0  0  0  0  0  0  0  0
    9.0364    1.5016   24.5680 C   0  0  0  0  0  0  0  0  0  0  0  0
   10.9694   -3.2203   17.9586 N   0  0  0  0  0  0  0  0  0  0  0  0
   10.3412   -3.3060   21.8863 C   0  0  0  0  0  0  0  0  0  0  0  0
    8.6643   -6.2427   18.5013 P   0  0  0  0  0  0  0  0  0  0  0  0
    8.6988   -1.3399   25.5672 C   0  0  0  0  0  0  0  0  0  0  0  0
   10.5096   -3.6095   20.4489 C   0  0  0  0  0  0  0  0  0  0  0  0
   10.0772   -4.4962   17.8506 He  0  0  0  0  0  0  0  0  0  0  0  0
  1  7  1  0
  1 11  4  0
  1 13  4  0
  1 14  3  0
  2 15  1  0
  2 17  4  0
  3 10  3  0
  3 20  4  0
  4  8  4  0
  4 15  4  0
  5  9  4  0
  5 15  4  0
  5 19  1  0
  6 15  2  0
  6 21  4  0
  6 23  4  0
  6 25  3  0
  7  9  4  0
  7 13  1  0
  7 15  2  0
  7 24  4  0
  7 25  1  0
  8 14  2  0
  8 16  1  0
  8 25  2  0
  9 20  4  0
 10 12  3  0
 10 24  4  0
 11 14  3  0
 11 22  4  0
 12 18  4  0
 12 19  4  0
 12 25  4  0
 13 18  4  0
 14 17  4  0
 14 25  3  0
 15 18  3  0
 15 21  1  0
 15 24  4  0
 16 17  4  0
 16 21  4  0
 16 23  4  0
 17 22  1  0
 18 22  4  0
 19 23  4  0
 22 25  1  0
 23 25  3  0
M  END
$$$$

 Created by Python create_sdf_string function

 26 30  0  0  0  0  0  0  0  0999 V2000
    9.8389   -2.0813   23.5502 C   0  0  0  0  0  0  0  0  0  0  0  0
    9.9021   -4.6550   16.5176 N   0  0  0  0  0  0  0  0  0  0  0  0
   10.1860   -4.3810   17.8045 C   0  0  0  0  0  0  0  0  0  0  0  0
    8.4264    1.1489   25.6769 N   0  0  0  0  0  0  0  0  0  0  0  0
    6.4015   -7.5734   17.7961 C   0  0  0  0  0  0  0  0  0  0  0  0
    6.1247   -8.7596   16.0756 C   0  0  0  0  0  0  0  0  0  0  0  0
   11.0296   -2.8888   19.4589 C   0  0  0  0  0  0  0  0  0  0  0  0
    9.4112   -0.9723   24.3232 C   0  0  0  0  0  0  0  0  0  0  0  0
    7.4171   -7.2850   16.9815 C   0  0  0  0  0  0  0  0  0  0  0  0
    9.6047    0.2799   23.7931 C   0  0  0  0  0  0  0  0  0  0  0  0
    8.2701   -0.0694   26.2124 C   0  0  0  0  0  0  0  0  0  0  0  0
   10.2238   -2.0478   22.2729 N   0  0  0  0  0  0  0  0  0  0  0  0
   10.0050   -4.9033   20.1377 C   0  0  0  0  0  0  0  0  0  0  0  0
    9.8898   -3.3102   23.9982 N   0  0  0  0  0  0  0  0  0  0  0  0
    7.2833   -8.0158   15.8372 N   0  0  0  0  0  0  0  0  0  0  0  0
    5.5848   -8.4307   17.2034 N   0  0  0  0  0  0  0  0  0  0  0  0
    8.4559   -6.3749   17.2345 C   0  0  0  0  0  0  0  0  0  0  0  0
    9.0613   -5.6246   16.2349 C   0  0  0  0  0  0  0  0  0  0  0  0
   10.2879   -4.1249   22.8405 O   0  0  0  0  0  0  0  0  0  0  0  0
    9.6742   -5.1891   18.8121 C   0  0  0  0  0  0  0  0  0  0  0  0
    9.0884    1.3542   24.5076 C   0  0  0  0  0  0  0  0  0  0  0  0
   10.9437   -3.2689   18.1038 N   0  0  0  0  0  0  0  0  0  0  0  0
   10.3899   -3.2845   21.8026 C   0  0  0  0  0  0  0  0  0  0  0  0
    8.8440   -6.1862   18.4737 N   0  0  0  0  0  0  0  0  0  0  0  0
    8.7911   -1.1940   25.5761 C   0  0  0  0  0  0  0  0  0  0  0  0
   10.5309   -3.6824   20.4584 C   0  0  0  0  0  0  0  0  0  0  0  0
  1  8  1  0
  1 12  4  0
  1 14  4  0
  2  3  4  0
  2 18  4  0
  3 20  4  0
  3 22  4  0
  4 11  4  0
  4 21  4  0
  5  9  4  0
  5 16  4  0
  6 15  4  0
  6 16  4  0
  7 22  4  0
  7 26  4  0
  8 10  4  0
  8 25  4  0
  9 15  4  0
  9 17  1  0
 10 21  4  0
 11 25  4  0
 12 23  4  0
 13 20  4  0
 13 26  4  0
 14 19  4  0
 17 18  4  0
 17 24  4  0
 19 23  4  0
 20 24  4  0
 23 26  1  0
M  END
$$$$

 Created by Python create_sdf_string function

 26 32  0  0  0  0  0  0  0  0999 V2000
    9.8576   -2.0963   23.4466 C   0  0  0  0  0  0  0  0  0  0  0  0
   10.1916   -4.2446   17.7423 C   0  0  0  0  0  0  0  0  0  0  0  0
    8.4028    1.0266   25.8636 N   0  0  0  0  0  0  0  0  0  0  0  0
    6.3546   -7.6961   17.6654 C   0  0  0  0  0  0  0  0  0  0  0  0
    6.0393   -8.9865   15.8516 C   0  0  0  0  0  0  0  0  0  0  0  0
   11.0043   -2.6477   19.3410 C   0  0  0  0  0  0  0  0  0  0  0  0
    9.4721   -0.9876   24.4795 C   0  0  0  0  0  0  0  0  0  0  0  0
    7.2592   -7.4876   16.8295 C   0  0  0  0  0  0  0  0  0  0  0  0
    9.8099    0.3588   23.6877 C   0  0  0  0  0  0  0  0  0  0  0  0
    8.1851    0.1036   26.2558 C   0  0  0  0  0  0  0  0  0  0  0  0
   10.3006   -2.1385   22.1648 N   0  0  0  0  0  0  0  0  0  0  0  0
   10.0671   -4.7651   20.2207 O   0  0  0  0  0  0  0  0  0  0  0  0
    9.8293   -3.4236   24.1640 N   0  0  0  0  0  0  0  0  0  0  0  0
    7.0947   -8.0850   15.6751 N   0  0  0  0  0  0  0  0  0  0  0  0
    5.4683   -8.6808   17.2243 N   0  0  0  0  0  0  0  0  0  0  0  0
    9.1630   -5.2873   16.1301 C   0  0  0  0  0  0  0  0  0  0  0  0
   10.2022   -4.0769   22.7611 P   0  0  0  0  0  0  0  0  0  0  0  0
    9.6737   -5.1576   18.7914 C   0  0  0  0  0  0  0  0  0  0  0  0
    9.0680    1.3882   24.6233 C   0  0  0  0  0  0  0  0  0  0  0  0
   11.0354   -3.3332   17.9870 N   0  0  0  0  0  0  0  0  0  0  0  0
   10.4307   -3.2723   21.9130 C   0  0  0  0  0  0  0  0  0  0  0  0
    8.8471   -6.2200   18.5077 N   0  0  0  0  0  0  0  0  0  0  0  0
    8.7155   -1.1036   25.6319 C   0  0  0  0  0  0  0  0  0  0  0  0
   10.5176   -3.7225   20.3808 C   0  0  0  0  0  0  0  0  0  0  0  0
    9.8258   -4.5054   16.3976 He  0  0  0  0  0  0  0  0  0  0  0  0
    8.3320   -6.2829   17.2632 He  0  0  0  0  0  0  0  0  0  0  0  0
  1 11  4  0
  1 13  4  0
  2  5  4  0
  2 18  4  0
  2 20  4  0
  3 10  4  0
  3 19  4  0
  4  7  1  0
  4  8  4  0
  4 15  4  0
  4 18  1  0
  4 23  4  0
  5 10  3  0
  5 14  4  0
  5 15  4  0
  6  8  1  0
  6 20  1  0
  6 24  4  0
  7  9  4  0
  7 16  4  0
  8 14  4  0
  9 19  4  0
  9 23  1  0
 10 23  4  0
 11 21  4  0
 12 18  4  0
 12 21  4  0
 12 24  4  0
 13 17  1  0
 17 21  4  0
 18 22  4  0
 21 24  1  0
M  END
$$$$

 Created by Python create_sdf_string function

 26 30  0  0  0  0  0  0  0  0999 V2000
    9.8773   -2.0827   23.5959 C   0  0  0  0  0  0  0  0  0  0  0  0
    9.8421   -4.5264   16.4335 C   0  0  0  0  0  0  0  0  0  0  0  0
   10.1703   -4.2587   17.7431 C   0  0  0  0  0  0  0  0  0  0  0  0
    8.4272    1.2023   25.7348 N   0  0  0  0  0  0  0  0  0  0  0  0
    6.4294   -7.6854   17.7399 C   0  0  0  0  0  0  0  0  0  0  0  0
    6.0838   -8.8429   15.9509 C   0  0  0  0  0  0  0  0  0  0  0  0
   11.0647   -2.8428   19.4591 C   0  0  0  0  0  0  0  0  0  0  0  0
    9.4333   -0.9504   24.3750 C   0  0  0  0  0  0  0  0  0  0  0  0
    7.3840   -7.2860   16.9020 C   0  0  0  0  0  0  0  0  0  0  0  0
    9.6442    0.2856   23.8633 C   0  0  0  0  0  0  0  0  0  0  0  0
    8.2411   -0.0374   26.2609 C   0  0  0  0  0  0  0  0  0  0  0  0
   10.3006   -2.0446   22.3078 N   0  0  0  0  0  0  0  0  0  0  0  0
    9.9366   -4.8429   20.0494 C   0  0  0  0  0  0  0  0  0  0  0  0
    9.8903   -3.3030   24.0195 N   0  0  0  0  0  0  0  0  0  0  0  0
    7.2006   -7.9946   15.7293 N   0  0  0  0  0  0  0  0  0  0  0  0
    5.6067   -8.6145   17.1632 N   0  0  0  0  0  0  0  0  0  0  0  0
    8.4031   -6.3080   17.1450 C   0  0  0  0  0  0  0  0  0  0  0  0
    8.9392   -5.5270   16.1340 C   0  0  0  0  0  0  0  0  0  0  0  0
   10.2638   -4.1687   22.8231 O   0  0  0  0  0  0  0  0  0  0  0  0
    9.6467   -5.0942   18.7374 C   0  0  0  0  0  0  0  0  0  0  0  0
    9.1277    1.3918   24.5869 C   0  0  0  0  0  0  0  0  0  0  0  0
   10.9116   -3.1987   18.0768 N   0  0  0  0  0  0  0  0  0  0  0  0
   10.3942   -3.3063   21.8040 C   0  0  0  0  0  0  0  0  0  0  0  0
    8.8061   -6.1166   18.4047 C   0  0  0  0  0  0  0  0  0  0  0  0
    8.7671   -1.1610   25.5884 C   0  0  0  0  0  0  0  0  0  0  0  0
   10.5111   -3.6459   20.4405 C   0  0  0  0  0  0  0  0  0  0  0  0
  1  8  1  0
  1 12  4  0
  1 14  4  0
  2  3  4  0
  2 18  4  0
  3 20  4  0
  3 22  4  0
  4 11  4  0
  4 21  4  0
  5  9  4  0
  5 16  4  0
  6 15  4  0
  6 16  4  0
  7 22  4  0
  7 26  4  0
  8 10  4  0
  8 25  4  0
  9 15  4  0
  9 17  1  0
 10 21  4  0
 11 25  4  0
 12 23  4  0
 13 20  4  0
 13 26  4  0
 14 19  4  0
 17 18  4  0
 17 24  4  0
 19 23  4  0
 20 24  4  0
 23 26  1  0
M  END
$$$$

 Created by Python create_sdf_string function

 26 44  0  0  0  0  0  0  0  0999 V2000
   10.0515   -4.7404   16.4118 C   0  0  0  0  0  0  0  0  0  0  0  0
   10.1428   -4.3917   18.0021 C   0  0  0  0  0  0  0  0  0  0  0  0
    8.4952    1.1020   25.6470 N   0  0  0  0  0  0  0  0  0  0  0  0
    6.5443   -7.5813   18.0770 C   0  0  0  0  0  0  0  0  0  0  0  0
    5.9063   -8.9356   16.1120 O   0  0  0  0  0  0  0  0  0  0  0  0
   10.9693   -2.9196   19.4764 C   0  0  0  0  0  0  0  0  0  0  0  0
    9.3948   -0.6502   24.1330 C   0  0  0  0  0  0  0  0  0  0  0  0
    7.1863   -7.3834   16.7950 C   0  0  0  0  0  0  0  0  0  0  0  0
    9.6593    0.5383   23.9053 C   0  0  0  0  0  0  0  0  0  0  0  0
    8.4048    0.1451   26.2605 C   0  0  0  0  0  0  0  0  0  0  0  0
   10.1014   -2.0434   22.3759 N   0  0  0  0  0  0  0  0  0  0  0  0
    9.8600   -4.7716   20.1822 C   0  0  0  0  0  0  0  0  0  0  0  0
    9.8323   -3.1577   23.8644 N   0  0  0  0  0  0  0  0  0  0  0  0
    7.1721   -7.9025   15.8496 N   0  0  0  0  0  0  0  0  0  0  0  0
    5.6683   -8.6504   17.3793 N   0  0  0  0  0  0  0  0  0  0  0  0
    8.4163   -6.2088   17.1866 N   0  0  0  0  0  0  0  0  0  0  0  0
    9.0419   -5.7037   16.0996 C   0  0  0  0  0  0  0  0  0  0  0  0
   10.4982   -3.9940   22.8080 O   0  0  0  0  0  0  0  0  0  0  0  0
    9.7077   -5.1768   18.8632 C   0  0  0  0  0  0  0  0  0  0  0  0
    9.0721    1.2888   24.4281 C   0  0  0  0  0  0  0  0  0  0  0  0
   10.8991   -3.3059   18.0370 N   0  0  0  0  0  0  0  0  0  0  0  0
   10.3056   -3.2055   21.7575 C   0  0  0  0  0  0  0  0  0  0  0  0
    8.7626   -6.1840   18.4147 C   0  0  0  0  0  0  0  0  0  0  0  0
    8.5901   -1.3537   25.6619 C   0  0  0  0  0  0  0  0  0  0  0  0
   10.4547   -3.7769   20.3530 C   0  0  0  0  0  0  0  0  0  0  0  0
    9.7043   -2.2473   23.7522 He  0  0  0  0  0  0  0  0  0  0  0  0
  1  2  4  0
  1 11  4  0
  1 17  4  0
  2 10  2  0
  2 13  3  0
  2 14  2  0
  2 19  4  0
  2 21  4  0
  2 23  1  0
  3 14  4  0
  3 20  4  0
  4  8  4  0
  5  6  2  0
  5 14  4  0
  5 15  4  0
  6 21  4  0
  7  9  4  0
  7 20  1  0
  7 24  4  0
  8 12  4  0
  8 14  4  0
  8 15  2  0
  8 19  2  0
  9 20  4  0
 10 20  3  0
 10 24  4  0
 11 22  4  0
 12 19  4  0
 12 24  1  0
 12 25  4  0
 13 18  4  0
 13 23  3  0
 16 17  4  0
 16 21  1  0
 16 22  2  0
 16 23  4  0
 17 18  4  0
 18 21  4  0
 18 22  4  0
 19 21  1  0
 19 23  4  0
 19 24  4  0
 21 23  4  0
 22 25  1  0
M  END
$$$$

 Created by Python create_sdf_string function

 26 30  0  0  0  0  0  0  0  0999 V2000
    9.8374   -2.0277   23.5736 C   0  0  0  0  0  0  0  0  0  0  0  0
    9.9356   -4.6831   16.4472 C   0  0  0  0  0  0  0  0  0  0  0  0
   10.1736   -4.3739   17.7844 C   0  0  0  0  0  0  0  0  0  0  0  0
    8.4711    1.2477   25.7031 N   0  0  0  0  0  0  0  0  0  0  0  0
    6.4563   -7.7204   17.8993 C   0  0  0  0  0  0  0  0  0  0  0  0
    6.0678   -8.7568   16.1271 N   0  0  0  0  0  0  0  0  0  0  0  0
   11.0096   -2.8923   19.4722 C   0  0  0  0  0  0  0  0  0  0  0  0
    9.3944   -0.9023   24.3331 C   0  0  0  0  0  0  0  0  0  0  0  0
    7.3707   -7.2967   16.9653 C   0  0  0  0  0  0  0  0  0  0  0  0
    9.5549    0.3477   23.7635 C   0  0  0  0  0  0  0  0  0  0  0  0
    8.2860    0.0262   26.2481 C   0  0  0  0  0  0  0  0  0  0  0  0
   10.1723   -2.0125   22.2767 N   0  0  0  0  0  0  0  0  0  0  0  0
    9.8996   -4.8466   20.1093 C   0  0  0  0  0  0  0  0  0  0  0  0
    9.9708   -3.2446   24.0311 N   0  0  0  0  0  0  0  0  0  0  0  0
    7.0930   -7.9218   15.8420 N   0  0  0  0  0  0  0  0  0  0  0  0
    5.6924   -8.5977   17.3540 N   0  0  0  0  0  0  0  0  0  0  0  0
    8.4085   -6.3732   17.1605 C   0  0  0  0  0  0  0  0  0  0  0  0
    9.0417   -5.6683   16.1626 C   0  0  0  0  0  0  0  0  0  0  0  0
   10.3509   -4.0905   22.8618 O   0  0  0  0  0  0  0  0  0  0  0  0
    9.6165   -5.1362   18.7863 C   0  0  0  0  0  0  0  0  0  0  0  0
    9.0965    1.4419   24.5165 C   0  0  0  0  0  0  0  0  0  0  0  0
   10.9301   -3.2762   18.1286 N   0  0  0  0  0  0  0  0  0  0  0  0
   10.3766   -3.2575   21.7918 C   0  0  0  0  0  0  0  0  0  0  0  0
    8.7642   -6.1290   18.4151 C   0  0  0  0  0  0  0  0  0  0  0  0
    8.7800   -1.1031   25.5858 C   0  0  0  0  0  0  0  0  0  0  0  0
   10.4639   -3.6671   20.4475 C   0  0  0  0  0  0  0  0  0  0  0  0
  1  8  1  0
  1 12  4  0
  1 14  4  0
  2  3  4  0
  2 18  4  0
  3 20  4  0
  3 22  4  0
  4 11  4  0
  4 21  4  0
  5  9  4  0
  5 16  4  0
  6 15  4  0
  6 16  4  0
  7 22  4  0
  7 26  4  0
  8 10  4  0
  8 25  4  0
  9 15  4  0
  9 17  1  0
 10 21  4  0
 11 25  4  0
 12 23  4  0
 13 20  4  0
 13 26  4  0
 14 19  4  0
 17 18  4  0
 17 24  4  0
 19 23  4  0
 20 24  4  0
 23 26  1  0
M  END
$$$$

 Created by Python create_sdf_string function

 26 42  0  0  0  0  0  0  0  0999 V2000
    9.8010   -1.9420   23.4273 C   0  0  0  0  0  0  0  0  0  0  0  0
   10.1353   -4.7544   16.4624 C   0  0  0  0  0  0  0  0  0  0  0  0
   10.1767   -4.3668   17.8168 C   0  0  0  0  0  0  0  0  0  0  0  0
    8.5105    1.3126   25.7078 N   0  0  0  0  0  0  0  0  0  0  0  0
    6.3815   -7.6667   17.7209 F   0  0  0  0  0  0  0  0  0  0  0  0
    5.9651   -8.6489   16.2265 P   0  0  0  0  0  0  0  0  0  0  0  0
   10.9047   -3.0221   19.3710 C   0  0  0  0  0  0  0  0  0  0  0  0
    9.4768   -0.9443   24.4428 C   0  0  0  0  0  0  0  0  0  0  0  0
    7.1844   -7.0572   17.1832 C   0  0  0  0  0  0  0  0  0  0  0  0
    9.3401    0.3586   23.7684 C   0  0  0  0  0  0  0  0  0  0  0  0
    8.4415   -0.0329   26.5109 C   0  0  0  0  0  0  0  0  0  0  0  0
   10.1117   -2.0749   22.1459 N   0  0  0  0  0  0  0  0  0  0  0  0
    9.9234   -4.9602   20.1791 C   0  0  0  0  0  0  0  0  0  0  0  0
    9.8481   -3.1891   24.1572 N   0  0  0  0  0  0  0  0  0  0  0  0
    6.9561   -7.7205   15.6559 N   0  0  0  0  0  0  0  0  0  0  0  0
    8.3891   -6.3051   17.3656 C   0  0  0  0  0  0  0  0  0  0  0  0
    8.9326   -5.9193   15.9420 C   0  0  0  0  0  0  0  0  0  0  0  0
   10.1391   -4.2099   22.7861 O   0  0  0  0  0  0  0  0  0  0  0  0
    9.7199   -5.0059   18.8714 C   0  0  0  0  0  0  0  0  0  0  0  0
    9.0260    1.4362   24.6911 C   0  0  0  0  0  0  0  0  0  0  0  0
   10.7897   -3.1924   18.0971 N   0  0  0  0  0  0  0  0  0  0  0  0
    8.7748   -6.1149   18.4761 C   0  0  0  0  0  0  0  0  0  0  0  0
    8.7359   -1.1128   25.5852 C   0  0  0  0  0  0  0  0  0  0  0  0
   10.3881   -3.8471   20.2861 C   0  0  0  0  0  0  0  0  0  0  0  0
    5.6651   -8.6317   17.4849 He  0  0  0  0  0  0  0  0  0  0  0  0
   10.5096   -3.2564   21.9174 He  0  0  0  0  0  0  0  0  0  0  0  0
  1  8  1  0
  1  9  2  0
  1 12  4  0
  1 14  4  0
  2  3  3  0
  2 12  4  0
  2 17  4  0
  2 18  2  0
  3  9  4  0
  3 10  4  0
  3 19  4  0
  3 21  4  0
  4  6  1  0
  4 11  4  0
  4 13  2  0
  4 17  2  0
  4 20  4  0
  5  9  4  0
  6 15  4  0
  6 24  1  0
  7 21  4  0
  7 24  4  0
  8 10  4  0
  8 23  4  0
  9 15  4  0
  9 16  1  0
  9 17  1  0
  9 22  2  0
 10 20  4  0
 10 22  1  0
 11 23  4  0
 13 19  4  0
 13 22  2  0
 13 24  4  0
 14 18  4  0
 15 23  4  0
 16 17  4  0
 16 19  3  0
 16 22  4  0
 18 23  3  0
 19 22  4  0
 23 24  2  0
M  END
$$$$

 Created by Python create_sdf_string function

 26 30  0  0  0  0  0  0  0  0999 V2000
    9.8115   -2.0113   23.5565 C   0  0  0  0  0  0  0  0  0  0  0  0
    9.9376   -4.7032   16.4585 C   0  0  0  0  0  0  0  0  0  0  0  0
   10.1622   -4.3795   17.7877 C   0  0  0  0  0  0  0  0  0  0  0  0
    8.5108    1.2611   25.8239 N   0  0  0  0  0  0  0  0  0  0  0  0
    6.4080   -7.7036   17.9182 N   0  0  0  0  0  0  0  0  0  0  0  0
    5.9321   -8.6324   16.0994 C   0  0  0  0  0  0  0  0  0  0  0  0
   10.9456   -2.9242   19.4784 C   0  0  0  0  0  0  0  0  0  0  0  0
    9.3695   -0.8894   24.3433 C   0  0  0  0  0  0  0  0  0  0  0  0
    7.3003   -7.2267   17.0248 C   0  0  0  0  0  0  0  0  0  0  0  0
    9.4594    0.3673   23.7977 C   0  0  0  0  0  0  0  0  0  0  0  0
    8.4072    0.0046   26.3763 C   0  0  0  0  0  0  0  0  0  0  0  0
   10.1980   -2.0227   22.2414 N   0  0  0  0  0  0  0  0  0  0  0  0
    9.9178   -4.9091   20.1087 C   0  0  0  0  0  0  0  0  0  0  0  0
    9.8892   -3.2216   24.0347 N   0  0  0  0  0  0  0  0  0  0  0  0
    6.9583   -7.7679   15.8286 N   0  0  0  0  0  0  0  0  0  0  0  0
    5.6038   -8.5605   17.3583 N   0  0  0  0  0  0  0  0  0  0  0  0
    8.3618   -6.3547   17.1935 C   0  0  0  0  0  0  0  0  0  0  0  0
    9.0348   -5.6961   16.1699 C   0  0  0  0  0  0  0  0  0  0  0  0
   10.2727   -4.1163   22.8710 O   0  0  0  0  0  0  0  0  0  0  0  0
    9.6152   -5.1550   18.7833 C   0  0  0  0  0  0  0  0  0  0  0  0
    9.0003    1.4434   24.5715 C   0  0  0  0  0  0  0  0  0  0  0  0
   10.8722   -3.2778   18.1223 N   0  0  0  0  0  0  0  0  0  0  0  0
   10.3305   -3.2944   21.7979 C   0  0  0  0  0  0  0  0  0  0  0  0
    8.7433   -6.1135   18.4471 C   0  0  0  0  0  0  0  0  0  0  0  0
    8.8514   -1.1078   25.6431 C   0  0  0  0  0  0  0  0  0  0  0  0
   10.4298   -3.7057   20.4553 C   0  0  0  0  0  0  0  0  0  0  0  0
  1  8  1  0
  1 12  4  0
  1 14  4  0
  2  3  4  0
  2 18  4  0
  3 20  4  0
  3 22  4  0
  4 11  4  0
  4 21  4  0
  5  9  4  0
  5 16  4  0
  6 15  4  0
  6 16  4  0
  7 22  4  0
  7 26  4  0
  8 10  4  0
  8 25  4  0
  9 15  4  0
  9 17  1  0
 10 21  4  0
 11 25  4  0
 12 23  4  0
 13 20  4  0
 13 26  4  0
 14 19  4  0
 17 18  4  0
 17 24  4  0
 19 23  4  0
 20 24  4  0
 23 26  1  0
M  END
$$$$

 Created by Python create_sdf_string function

 26 39  0  0  0  0  0  0  0  0999 V2000
    9.9514   -4.6042   16.4278 C   0  0  0  0  0  0  0  0  0  0  0  0
   10.2343   -4.5025   17.7122 C   0  0  0  0  0  0  0  0  0  0  0  0
    8.5865    1.3780   25.8966 N   0  0  0  0  0  0  0  0  0  0  0  0
    6.5938   -7.9751   18.1885 N   0  0  0  0  0  0  0  0  0  0  0  0
    5.7790   -8.3628   15.8903 C   0  0  0  0  0  0  0  0  0  0  0  0
   11.0058   -2.8666   19.6509 C   0  0  0  0  0  0  0  0  0  0  0  0
    9.4531   -0.8681   24.2546 C   0  0  0  0  0  0  0  0  0  0  0  0
    7.3507   -7.1585   16.7820 C   0  0  0  0  0  0  0  0  0  0  0  0
    9.5086    0.3775   23.7132 C   0  0  0  0  0  0  0  0  0  0  0  0
    8.4222    0.1020   26.2972 C   0  0  0  0  0  0  0  0  0  0  0  0
   10.1817   -2.0121   22.3536 N   0  0  0  0  0  0  0  0  0  0  0  0
    9.9812   -4.8988   20.1652 C   0  0  0  0  0  0  0  0  0  0  0  0
    9.7738   -3.0984   24.0837 N   0  0  0  0  0  0  0  0  0  0  0  0
    7.1538   -7.3752   15.6770 N   0  0  0  0  0  0  0  0  0  0  0  0
    5.6252   -8.4484   17.4367 N   0  0  0  0  0  0  0  0  0  0  0  0
    8.3238   -6.2633   16.9398 C   0  0  0  0  0  0  0  0  0  0  0  0
    9.0040   -5.9024   16.2146 C   0  0  0  0  0  0  0  0  0  0  0  0
    9.5597   -5.2545   18.8416 C   0  0  0  0  0  0  0  0  0  0  0  0
    8.9634    1.5847   24.5167 C   0  0  0  0  0  0  0  0  0  0  0  0
   10.8695   -3.4587   18.2847 N   0  0  0  0  0  0  0  0  0  0  0  0
   10.5571   -3.1373   21.7415 C   0  0  0  0  0  0  0  0  0  0  0  0
    8.8502   -6.1475   18.5869 C   0  0  0  0  0  0  0  0  0  0  0  0
    8.9650   -1.1821   25.6929 C   0  0  0  0  0  0  0  0  0  0  0  0
   10.6383   -3.7375   20.6049 C   0  0  0  0  0  0  0  0  0  0  0  0
    9.7317   -2.1039   23.6922 He  0  0  0  0  0  0  0  0  0  0  0  0
   10.1622   -4.1149   22.7090 He  0  0  0  0  0  0  0  0  0  0  0  0
  1  2  4  0
  1  5  1  0
  1 17  4  0
  2 13  2  0
  2 18  4  0
  2 20  4  0
  3 10  4  0
  3 11  3  0
  3 19  4  0
  3 24  2  0
  4  8  4  0
  4 15  4  0
  4 23  2  0
  5 14  4  0
  5 15  4  0
  5 16  2  0
  6 13  1  0
  6 20  4  0
  6 24  4  0
  7  9  4  0
  7 23  3  0
  8 20  4  0
  8 21  1  0
  9 10  3  0
  9 19  4  0
 10 23  4  0
 11 21  4  0
 12 18  4  0
 12 24  4  0
 13 15  3  0
 14 16  3  0
 14 18  1  0
 15 24  3  0
 16 17  4  0
 16 22  4  0
 17 18  4  0
 18 19  3  0
 18 22  4  0
 21 24  1  0
M  END
$$$$

 Created by Python create_sdf_string function

 26 30  0  0  0  0  0  0  0  0999 V2000
    9.8466   -1.9938   23.5966 C   0  0  0  0  0  0  0  0  0  0  0  0
    9.9552   -4.6643   16.5153 C   0  0  0  0  0  0  0  0  0  0  0  0
   10.1957   -4.3759   17.8563 C   0  0  0  0  0  0  0  0  0  0  0  0
    8.5359    1.3186   25.7695 N   0  0  0  0  0  0  0  0  0  0  0  0
    6.6073   -7.8324   17.8990 N   0  0  0  0  0  0  0  0  0  0  0  0
    5.8387   -8.3399   15.9955 C   0  0  0  0  0  0  0  0  0  0  0  0
   11.0634   -2.9447   19.5398 C   0  0  0  0  0  0  0  0  0  0  0  0
    9.4176   -0.8683   24.3632 C   0  0  0  0  0  0  0  0  0  0  0  0
    7.3530   -7.2303   16.9318 C   0  0  0  0  0  0  0  0  0  0  0  0
    9.4895    0.3601   23.7643 C   0  0  0  0  0  0  0  0  0  0  0  0
    8.4859    0.0858   26.3653 C   0  0  0  0  0  0  0  0  0  0  0  0
   10.2576   -1.9984   22.3217 N   0  0  0  0  0  0  0  0  0  0  0  0
    9.9641   -4.8960   20.1641 C   0  0  0  0  0  0  0  0  0  0  0  0
    9.8645   -3.2115   24.0403 N   0  0  0  0  0  0  0  0  0  0  0  0
    6.8835   -7.5611   15.7422 N   0  0  0  0  0  0  0  0  0  0  0  0
    5.6652   -8.4997   17.3040 N   0  0  0  0  0  0  0  0  0  0  0  0
    8.4190   -6.3419   17.1822 C   0  0  0  0  0  0  0  0  0  0  0  0
    9.0426   -5.6219   16.1862 C   0  0  0  0  0  0  0  0  0  0  0  0
   10.2878   -4.0826   22.9235 O   0  0  0  0  0  0  0  0  0  0  0  0
    9.6471   -5.1733   18.8463 C   0  0  0  0  0  0  0  0  0  0  0  0
    9.0328    1.4718   24.5065 C   0  0  0  0  0  0  0  0  0  0  0  0
   10.9274   -3.3030   18.2012 N   0  0  0  0  0  0  0  0  0  0  0  0
   10.3851   -3.2666   21.8619 C   0  0  0  0  0  0  0  0  0  0  0  0
    8.7952   -6.1542   18.4664 C   0  0  0  0  0  0  0  0  0  0  0  0
    8.9170   -1.0554   25.6610 C   0  0  0  0  0  0  0  0  0  0  0  0
   10.4908   -3.6927   20.5159 C   0  0  0  0  0  0  0  0  0  0  0  0
  1  8  1  0
  1 12  4  0
  1 14  4  0
  2  3  4  0
  2 18  4  0
  3 20  4  0
  3 22  4  0
  4 11  4  0
  4 21  4  0
  5  9  4  0
  5 16  4  0
  6 15  4  0
  6 16  4  0
  7 22  4  0
  7 26  4  0
  8 10  4  0
  8 25  4  0
  9 15  4  0
  9 17  1  0
 10 21  4  0
 11 25  4  0
 12 23  4  0
 13 20  4  0
 13 26  4  0
 14 19  4  0
 17 18  4  0
 17 24  4  0
 19 23  4  0
 20 24  4  0
 23 26  1  0
M  END
$$$$

 Created by Python create_sdf_string function

 26 40  0  0  0  0  0  0  0  0999 V2000
   10.0057   -4.3536   17.8687 C   0  0  0  0  0  0  0  0  0  0  0  0
    8.2418    1.3986   25.7318 N   0  0  0  0  0  0  0  0  0  0  0  0
    6.4685   -7.4845   17.9513 N   0  0  0  0  0  0  0  0  0  0  0  0
    5.7761   -8.5104   16.0667 C   0  0  0  0  0  0  0  0  0  0  0  0
   10.9679   -2.9368   19.5055 C   0  0  0  0  0  0  0  0  0  0  0  0
    9.4124   -0.8065   24.4646 C   0  0  0  0  0  0  0  0  0  0  0  0
    7.2967   -7.3419   16.9919 C   0  0  0  0  0  0  0  0  0  0  0  0
    9.5668    0.5180   23.7517 C   0  0  0  0  0  0  0  0  0  0  0  0
    8.5776    0.0708   26.4404 P   0  0  0  0  0  0  0  0  0  0  0  0
   10.3324   -2.0294   22.3412 N   0  0  0  0  0  0  0  0  0  0  0  0
    9.9892   -4.9036   20.1052 C   0  0  0  0  0  0  0  0  0  0  0  0
    9.8239   -3.3508   24.0850 N   0  0  0  0  0  0  0  0  0  0  0  0
    6.9235   -7.5115   15.6273 N   0  0  0  0  0  0  0  0  0  0  0  0
    5.8104   -8.3376   17.3858 N   0  0  0  0  0  0  0  0  0  0  0  0
    8.3569   -6.4494   17.3777 C   0  0  0  0  0  0  0  0  0  0  0  0
    9.3393   -5.4145   16.1133 C   0  0  0  0  0  0  0  0  0  0  0  0
   10.2752   -4.0975   22.8947 O   0  0  0  0  0  0  0  0  0  0  0  0
    9.7766   -4.9416   18.9737 C   0  0  0  0  0  0  0  0  0  0  0  0
    9.1398    1.6370   24.5744 C   0  0  0  0  0  0  0  0  0  0  0  0
   10.8297   -3.5344   18.3598 N   0  0  0  0  0  0  0  0  0  0  0  0
   10.2701   -3.3019   21.8640 C   0  0  0  0  0  0  0  0  0  0  0  0
    8.8190   -6.2922   18.5505 C   0  0  0  0  0  0  0  0  0  0  0  0
    8.8289   -0.9355   25.7050 C   0  0  0  0  0  0  0  0  0  0  0  0
   10.4723   -3.7584   20.5878 C   0  0  0  0  0  0  0  0  0  0  0  0
    9.8863   -2.1615   23.6075 He  0  0  0  0  0  0  0  0  0  0  0  0
    9.9870   -4.8510   16.5389 He  0  0  0  0  0  0  0  0  0  0  0  0
  1 18  4  0
  1 20  4  0
  2  9  4  0
  2 10  2  0
  2 19  4  0
  3  4  2  0
  3  7  4  0
  3 14  4  0
  3 20  4  0
  3 23  2  0
  4 10  2  0
  4 13  4  0
  4 14  4  0
  4 21  2  0
  5  7  3  0
  5 20  4  0
  5 24  4  0
  6  8  4  0
  7 13  4  0
  7 14  2  0
  7 15  1  0
  7 16  1  0
  8 19  4  0
  8 22  4  0
  9 10  3  0
  9 14  1  0
  9 23  4  0
 10 21  4  0
 11 16  2  0
 11 18  4  0
 11 24  4  0
 12 14  4  0
 12 17  4  0
 14 17  4  0
 15 16  3  0
 15 22  4  0
 15 24  3  0
 17 21  4  0
 18 22  4  0
 21 24  1  0
M  END
$$$$

 Created by Python create_sdf_string function

 26 30  0  0  0  0  0  0  0  0999 V2000
    9.8635   -2.0127   23.6300 C   0  0  0  0  0  0  0  0  0  0  0  0
    9.9767   -4.6431   16.5670 C   0  0  0  0  0  0  0  0  0  0  0  0
   10.2072   -4.3807   17.8913 C   0  0  0  0  0  0  0  0  0  0  0  0
    8.4979    1.3541   25.7624 N   0  0  0  0  0  0  0  0  0  0  0  0
    6.5108   -7.6495   17.9057 N   0  0  0  0  0  0  0  0  0  0  0  0
    5.8642   -8.4021   16.0374 C   0  0  0  0  0  0  0  0  0  0  0  0
   10.9999   -2.9337   19.5760 C   0  0  0  0  0  0  0  0  0  0  0  0
    9.4472   -0.8565   24.4033 C   0  0  0  0  0  0  0  0  0  0  0  0
    7.3334   -7.1602   16.9657 C   0  0  0  0  0  0  0  0  0  0  0  0
    9.5479    0.3821   23.8079 C   0  0  0  0  0  0  0  0  0  0  0  0
    8.3998    0.1152   26.3631 C   0  0  0  0  0  0  0  0  0  0  0  0
   10.2572   -2.0381   22.3387 N   0  0  0  0  0  0  0  0  0  0  0  0
    9.9175   -4.8870   20.1956 C   0  0  0  0  0  0  0  0  0  0  0  0
    9.8978   -3.2238   24.1015 N   0  0  0  0  0  0  0  0  0  0  0  0
    6.9369   -7.6105   15.7800 N   0  0  0  0  0  0  0  0  0  0  0  0
    5.6093   -8.3827   17.3418 N   0  0  0  0  0  0  0  0  0  0  0  0
    8.4284   -6.3302   17.2027 C   0  0  0  0  0  0  0  0  0  0  0  0
    9.1091   -5.6291   16.2172 C   0  0  0  0  0  0  0  0  0  0  0  0
   10.2434   -4.1152   22.9688 O   0  0  0  0  0  0  0  0  0  0  0  0
    9.6617   -5.1890   18.8621 C   0  0  0  0  0  0  0  0  0  0  0  0
    9.0422    1.5057   24.5118 C   0  0  0  0  0  0  0  0  0  0  0  0
   10.8844   -3.2906   18.2498 N   0  0  0  0  0  0  0  0  0  0  0  0
   10.3687   -3.3017   21.9033 C   0  0  0  0  0  0  0  0  0  0  0  0
    8.8138   -6.1737   18.4833 C   0  0  0  0  0  0  0  0  0  0  0  0
    8.9090   -1.0160   25.6887 C   0  0  0  0  0  0  0  0  0  0  0  0
   10.4594   -3.7074   20.5617 C   0  0  0  0  0  0  0  0  0  0  0  0
  1  8  1  0
  1 12  4  0
  1 14  4  0
  2  3  4  0
  2 18  4  0
  3 20  4  0
  3 22  4  0
  4 11  4  0
  4 21  4  0
  5  9  4  0
  5 16  4  0
  6 15  4  0
  6 16  4  0
  7 22  4  0
  7 26  4  0
  8 10  4  0
  8 25  4  0
  9 15  4  0
  9 17  1  0
 10 21  4  0
 11 25  4  0
 12 23  4  0
 13 20  4  0
 13 26  4  0
 14 19  4  0
 17 18  4  0
 17 24  4  0
 19 23  4  0
 20 24  4  0
 23 26  1  0
M  END
$$$$

 Created by Python create_sdf_string function

 26 38  0  0  0  0  0  0  0  0999 V2000
   10.0264   -2.0327   23.4456 C   0  0  0  0  0  0  0  0  0  0  0  0
    9.8745   -4.8049   16.4577 C   0  0  0  0  0  0  0  0  0  0  0  0
   10.2148   -3.9795   17.7182 C   0  0  0  0  0  0  0  0  0  0  0  0
    8.6047    1.3116   25.6870 N   0  0  0  0  0  0  0  0  0  0  0  0
    6.3176   -7.4459   18.4042 N   0  0  0  0  0  0  0  0  0  0  0  0
    6.0385   -8.3259   16.0286 C   0  0  0  0  0  0  0  0  0  0  0  0
   11.0023   -2.8639   19.4167 S   0  0  0  0  0  0  0  0  0  0  0  0
    9.3956   -0.8970   24.4298 C   0  0  0  0  0  0  0  0  0  0  0  0
    7.3345   -7.1580   16.8660 C   0  0  0  0  0  0  0  0  0  0  0  0
    9.6970    0.3514   23.7570 C   0  0  0  0  0  0  0  0  0  0  0  0
    8.5871    0.1129   26.4304 C   0  0  0  0  0  0  0  0  0  0  0  0
   10.3287   -2.3242   22.3926 N   0  0  0  0  0  0  0  0  0  0  0  0
   10.0095   -4.9663   20.1662 C   0  0  0  0  0  0  0  0  0  0  0  0
    9.9481   -3.0810   24.0809 N   0  0  0  0  0  0  0  0  0  0  0  0
    7.1855   -7.5950   15.6947 N   0  0  0  0  0  0  0  0  0  0  0  0
    5.6944   -8.4421   17.5871 N   0  0  0  0  0  0  0  0  0  0  0  0
    8.4494   -6.3946   17.1767 C   0  0  0  0  0  0  0  0  0  0  0  0
    9.0071   -5.9031   16.2455 C   0  0  0  0  0  0  0  0  0  0  0  0
   10.3089   -4.1220   22.9519 O   0  0  0  0  0  0  0  0  0  0  0  0
    9.6465   -5.0800   18.9442 C   0  0  0  0  0  0  0  0  0  0  0  0
    9.0821    1.6345   24.4705 C   0  0  0  0  0  0  0  0  0  0  0  0
   10.8716   -3.1436   18.4101 N   0  0  0  0  0  0  0  0  0  0  0  0
   10.4011   -3.3890   21.9757 C   0  0  0  0  0  0  0  0  0  0  0  0
    8.7823   -6.0622   18.4940 N   0  0  0  0  0  0  0  0  0  0  0  0
    8.9179   -0.9545   25.7019 C   0  0  0  0  0  0  0  0  0  0  0  0
   10.5192   -3.8921   20.6026 C   0  0  0  0  0  0  0  0  0  0  0  0
  1  8  1  0
  1  9  3  0
  1 12  4  0
  1 14  4  0
  1 24  4  0
  2  3  4  0
  2 18  4  0
  3 22  4  0
  4 11  4  0
  4 21  3  0
  5  9  4  0
  5 13  1  0
  5 16  4  0
  6  8  4  0
  6 15  4  0
  6 16  4  0
  7 22  4  0
  7 25  2  0
  7 26  4  0
  8 10  4  0
  8 25  4  0
  9 15  4  0
  9 16  4  0
  9 17  1  0
 10 16  3  0
 10 21  4  0
 11 25  4  0
 12 22  3  0
 12 23  4  0
 13 20  4  0
 13 26  2  0
 14 19  4  0
 15 25  3  0
 17 24  4  0
 18 20  1  0
 19 23  4  0
 20 24  4  0
 23 26  1  0
M  END
$$$$

 Created by Python create_sdf_string function

 26 30  0  0  0  0  0  0  0  0999 V2000
    9.9374   -2.0202   23.6229 C   0  0  0  0  0  0  0  0  0  0  0  0
    9.9432   -4.6059   16.5257 C   0  0  0  0  0  0  0  0  0  0  0  0
   10.1847   -4.2811   17.8602 C   0  0  0  0  0  0  0  0  0  0  0  0
    8.6155    1.3493   25.7378 N   0  0  0  0  0  0  0  0  0  0  0  0
    6.4920   -7.5661   18.0334 N   0  0  0  0  0  0  0  0  0  0  0  0
    5.9670   -8.4291   16.1333 C   0  0  0  0  0  0  0  0  0  0  0  0
   11.0238   -2.8877   19.5983 C   0  0  0  0  0  0  0  0  0  0  0  0
    9.5038   -0.8496   24.3835 C   0  0  0  0  0  0  0  0  0  0  0  0
    7.3572   -7.1509   17.0546 C   0  0  0  0  0  0  0  0  0  0  0  0
    9.5867    0.3781   23.7680 C   0  0  0  0  0  0  0  0  0  0  0  0
    8.5276    0.1344   26.3566 C   0  0  0  0  0  0  0  0  0  0  0  0
   10.3292   -2.0846   22.3258 N   0  0  0  0  0  0  0  0  0  0  0  0
    9.9506   -4.9088   20.1749 C   0  0  0  0  0  0  0  0  0  0  0  0
    9.9771   -3.2086   24.1292 N   0  0  0  0  0  0  0  0  0  0  0  0
    7.0163   -7.6750   15.8656 N   0  0  0  0  0  0  0  0  0  0  0  0
    5.6274   -8.3470   17.4423 N   0  0  0  0  0  0  0  0  0  0  0  0
    8.4249   -6.2930   17.2414 C   0  0  0  0  0  0  0  0  0  0  0  0
    9.1033   -5.6349   16.1995 C   0  0  0  0  0  0  0  0  0  0  0  0
   10.3245   -4.1109   23.0084 O   0  0  0  0  0  0  0  0  0  0  0  0
    9.6525   -5.1149   18.8418 C   0  0  0  0  0  0  0  0  0  0  0  0
    9.1216    1.5019   24.4869 C   0  0  0  0  0  0  0  0  0  0  0  0
   10.8534   -3.1844   18.2267 N   0  0  0  0  0  0  0  0  0  0  0  0
   10.4289   -3.3350   21.9203 C   0  0  0  0  0  0  0  0  0  0  0  0
    8.7849   -6.0775   18.5139 N   0  0  0  0  0  0  0  0  0  0  0  0
    8.9812   -1.0159   25.6767 C   0  0  0  0  0  0  0  0  0  0  0  0
   10.4963   -3.7303   20.5658 C   0  0  0  0  0  0  0  0  0  0  0  0
  1  8  1  0
  1 12  4  0
  1 14  4  0
  2  3  4  0
  2 18  4  0
  3 20  4  0
  3 22  4  0
  4 11  4  0
  4 21  4  0
  5  9  4  0
  5 16  4  0
  6 15  4  0
  6 16  4  0
  7 22  4  0
  7 26  4  0
  8 10  4  0
  8 25  4  0
  9 15  4  0
  9 17  1  0
 10 21  4  0
 11 25  4  0
 12 23  4  0
 13 20  4  0
 13 26  4  0
 14 19  4  0
 17 18  4  0
 17 24  4  0
 19 23  4  0
 20 24  4  0
 23 26  1  0
M  END
$$$$

 Created by Python create_sdf_string function

 26 39  0  0  0  0  0  0  0  0999 V2000
    9.7767   -2.0887   23.8215 C   0  0  0  0  0  0  0  0  0  0  0  0
   10.1025   -4.6573   16.5535 C   0  0  0  0  0  0  0  0  0  0  0  0
   10.4044   -4.3565   17.8981 C   0  0  0  0  0  0  0  0  0  0  0  0
    8.7119    1.4217   25.6109 N   0  0  0  0  0  0  0  0  0  0  0  0
    6.7170   -7.3804   17.9389 N   0  0  0  0  0  0  0  0  0  0  0  0
    6.1807   -8.4606   16.1335 C   0  0  0  0  0  0  0  0  0  0  0  0
   11.0103   -2.8713   19.4766 C   0  0  0  0  0  0  0  0  0  0  0  0
    9.5460   -0.9827   24.4165 C   0  0  0  0  0  0  0  0  0  0  0  0
    7.7301   -7.1230   16.9679 C   0  0  0  0  0  0  0  0  0  0  0  0
    9.7659    0.3806   23.6317 C   0  0  0  0  0  0  0  0  0  0  0  0
    8.5526    0.2471   26.3985 C   0  0  0  0  0  0  0  0  0  0  0  0
   10.2668   -2.1452   22.3715 N   0  0  0  0  0  0  0  0  0  0  0  0
   10.0378   -5.0083   20.0787 C   0  0  0  0  0  0  0  0  0  0  0  0
   10.0321   -3.3298   23.9569 N   0  0  0  0  0  0  0  0  0  0  0  0
    7.0439   -7.9018   15.9702 N   0  0  0  0  0  0  0  0  0  0  0  0
    6.0312   -8.3171   17.3999 N   0  0  0  0  0  0  0  0  0  0  0  0
    8.3859   -6.2032   17.3091 C   0  0  0  0  0  0  0  0  0  0  0  0
    9.0093   -5.7807   16.0407 C   0  0  0  0  0  0  0  0  0  0  0  0
   10.4260   -4.1855   23.0341 O   0  0  0  0  0  0  0  0  0  0  0  0
    9.7026   -5.0952   18.8669 C   0  0  0  0  0  0  0  0  0  0  0  0
    9.1204    1.5211   24.5193 C   0  0  0  0  0  0  0  0  0  0  0  0
   10.8889   -3.1738   18.1815 N   0  0  0  0  0  0  0  0  0  0  0  0
   10.3367   -3.2944   21.7194 C   0  0  0  0  0  0  0  0  0  0  0  0
    8.8979   -5.9817   18.5030 N   0  0  0  0  0  0  0  0  0  0  0  0
    9.0224   -0.9696   25.6232 C   0  0  0  0  0  0  0  0  0  0  0  0
   10.5253   -3.7061   20.5657 C   0  0  0  0  0  0  0  0  0  0  0  0
  1  8  1  0
  1  9  4  0
  1 12  4  0
  1 14  4  0
  2 18  3  0
  3  5  1  0
  3  9  4  0
  3 20  4  0
  3 22  4  0
  4 11  4  0
  4 13  2  0
  4 21  4  0
  5  9  4  0
  5 16  4  0
  6  8  3  0
  6 12  2  0
  6 16  4  0
  6 19  2  0
  6 22  2  0
  7 19  1  0
  7 22  4  0
  7 26  4  0
  8 10  4  0
  8 25  4  0
  9 15  4  0
  9 17  1  0
  9 20  4  0
 10 21  4  0
 11 25  4  0
 12 23  4  0
 13 20  4  0
 13 26  4  0
 14 19  4  0
 17 18  4  0
 17 24  4  0
 18 19  1  0
 19 23  4  0
 20 24  4  0
 23 26  1  0
M  END
$$$$

 Created by Python create_sdf_string function

 26 30  0  0  0  0  0  0  0  0999 V2000
    9.9155   -2.0705   23.6436 C   0  0  0  0  0  0  0  0  0  0  0  0
   10.0514   -4.6026   16.4862 C   0  0  0  0  0  0  0  0  0  0  0  0
   10.2692   -4.2830   17.8426 C   0  0  0  0  0  0  0  0  0  0  0  0
    8.6845    1.3938   25.6718 N   0  0  0  0  0  0  0  0  0  0  0  0
    6.6629   -7.5560   17.9539 N   0  0  0  0  0  0  0  0  0  0  0  0
    6.1676   -8.5437   16.1765 C   0  0  0  0  0  0  0  0  0  0  0  0
   11.0265   -2.8892   19.5637 C   0  0  0  0  0  0  0  0  0  0  0  0
    9.5169   -0.8820   24.3839 C   0  0  0  0  0  0  0  0  0  0  0  0
    7.4851   -7.1652   16.9985 C   0  0  0  0  0  0  0  0  0  0  0  0
    9.6423    0.3440   23.7491 C   0  0  0  0  0  0  0  0  0  0  0  0
    8.5757    0.1893   26.3314 C   0  0  0  0  0  0  0  0  0  0  0  0
   10.2204   -2.0930   22.3399 N   0  0  0  0  0  0  0  0  0  0  0  0
   10.0061   -4.9006   20.1687 C   0  0  0  0  0  0  0  0  0  0  0  0
   10.0194   -3.2876   24.1145 N   0  0  0  0  0  0  0  0  0  0  0  0
    7.1937   -7.7776   15.8677 N   0  0  0  0  0  0  0  0  0  0  0  0
    5.8345   -8.3732   17.4297 N   0  0  0  0  0  0  0  0  0  0  0  0
    8.5291   -6.2694   17.2122 C   0  0  0  0  0  0  0  0  0  0  0  0
    9.1783   -5.5880   16.1691 C   0  0  0  0  0  0  0  0  0  0  0  0
   10.3624   -4.1442   22.9530 O   0  0  0  0  0  0  0  0  0  0  0  0
    9.7086   -5.1112   18.8190 C   0  0  0  0  0  0  0  0  0  0  0  0
    9.2090    1.4971   24.4331 C   0  0  0  0  0  0  0  0  0  0  0  0
   10.9667   -3.1983   18.2041 N   0  0  0  0  0  0  0  0  0  0  0  0
   10.4045   -3.3203   21.8883 C   0  0  0  0  0  0  0  0  0  0  0  0
    8.8628   -6.0697   18.4737 N   0  0  0  0  0  0  0  0  0  0  0  0
    9.0102   -0.9917   25.6678 C   0  0  0  0  0  0  0  0  0  0  0  0
   10.5192   -3.6979   20.5371 C   0  0  0  0  0  0  0  0  0  0  0  0
  1  8  1  0
  1 12  4  0
  1 14  4  0
  2  3  4  0
  2 18  4  0
  3 20  4  0
  3 22  4  0
  4 11  4  0
  4 21  4  0
  5  9  4  0
  5 16  4  0
  6 15  4  0
  6 16  4  0
  7 22  4  0
  7 26  4  0
  8 10  4  0
  8 25  4  0
  9 15  4  0
  9 17  1  0
 10 21  4  0
 11 25  4  0
 12 23  4  0
 13 20  4  0
 13 26  4  0
 14 19  4  0
 17 18  4  0
 17 24  4  0
 19 23  4  0
 20 24  4  0
 23 26  1  0
M  END
$$$$

 Created by Python create_sdf_string function

 26 29  0  0  0  0  0  0  0  0999 V2000
    9.8734   -2.0965   23.5998 C   0  0  0  0  0  0  0  0  0  0  0  0
   10.0314   -4.4383   16.4593 C   0  0  0  0  0  0  0  0  0  0  0  0
   10.2801   -4.2988   17.9474 C   0  0  0  0  0  0  0  0  0  0  0  0
    8.6203    1.2779   25.4240 N   0  0  0  0  0  0  0  0  0  0  0  0
    6.6560   -7.3929   17.9763 S   0  0  0  0  0  0  0  0  0  0  0  0
    6.1635   -8.4152   16.5150 C   0  0  0  0  0  0  0  0  0  0  0  0
   11.1171   -2.8059   19.4879 C   0  0  0  0  0  0  0  0  0  0  0  0
    9.4176   -0.9512   24.4522 C   0  0  0  0  0  0  0  0  0  0  0  0
    7.4423   -7.1940   16.9517 C   0  0  0  0  0  0  0  0  0  0  0  0
    9.8979    0.3895   23.8726 C   0  0  0  0  0  0  0  0  0  0  0  0
   10.2122   -2.1356   22.3966 N   0  0  0  0  0  0  0  0  0  0  0  0
   10.0131   -5.0100   20.1009 C   0  0  0  0  0  0  0  0  0  0  0  0
    9.8986   -3.3164   23.9159 N   0  0  0  0  0  0  0  0  0  0  0  0
    7.1698   -7.7334   15.7854 N   0  0  0  0  0  0  0  0  0  0  0  0
    8.5601   -6.1162   17.2973 C   0  0  0  0  0  0  0  0  0  0  0  0
    9.1850   -5.8251   16.2347 C   0  0  0  0  0  0  0  0  0  0  0  0
   10.1772   -4.1868   22.9636 O   0  0  0  0  0  0  0  0  0  0  0  0
    9.7884   -5.1928   18.8969 C   0  0  0  0  0  0  0  0  0  0  0  0
    9.3201    1.5647   24.2797 C   0  0  0  0  0  0  0  0  0  0  0  0
   11.0328   -3.3266   18.2135 N   0  0  0  0  0  0  0  0  0  0  0  0
   10.4915   -3.3972   21.7324 C   0  0  0  0  0  0  0  0  0  0  0  0
    8.5987   -6.1110   18.5458 N   0  0  0  0  0  0  0  0  0  0  0  0
    8.9353   -0.9126   25.7428 C   0  0  0  0  0  0  0  0  0  0  0  0
   10.3530   -3.5566   20.5908 C   0  0  0  0  0  0  0  0  0  0  0  0
    8.5211    0.0941   26.3959 He  0  0  0  0  0  0  0  0  0  0  0  0
    5.8250   -8.2188   17.5186 He  0  0  0  0  0  0  0  0  0  0  0  0
  1  8  1  0
  1 11  4  0
  1 13  4  0
  2  3  4  0
  2 16  4  0
  3 20  4  0
  4 19  4  0
  5  7  1  0
  5  9  4  0
  6 14  4  0
  7 10  2  0
  7 20  4  0
  7 24  4  0
  8 10  4  0
  8 23  4  0
  9 14  4  0
  9 15  1  0
 10 19  4  0
 11 21  4  0
 12 15  4  0
 12 17  4  0
 12 24  1  0
 13 15  2  0
 13 17  4  0
 15 16  3  0
 15 22  4  0
 17 21  4  0
 18 22  4  0
 21 24  1  0
M  END
$$$$

 Created by Python create_sdf_string function

 26 30  0  0  0  0  0  0  0  0999 V2000
    9.9008   -2.0605   23.6307 C   0  0  0  0  0  0  0  0  0  0  0  0
   10.0657   -4.6012   16.5175 C   0  0  0  0  0  0  0  0  0  0  0  0
   10.2711   -4.2961   17.8666 C   0  0  0  0  0  0  0  0  0  0  0  0
    8.6641    1.3523   25.5849 N   0  0  0  0  0  0  0  0  0  0  0  0
    6.5411   -7.4617   18.0769 N   0  0  0  0  0  0  0  0  0  0  0  0
    6.0641   -8.5350   16.2364 C   0  0  0  0  0  0  0  0  0  0  0  0
   11.0707   -2.8848   19.5702 C   0  0  0  0  0  0  0  0  0  0  0  0
    9.5473   -0.8927   24.3689 C   0  0  0  0  0  0  0  0  0  0  0  0
    7.4555   -7.1160   17.0532 C   0  0  0  0  0  0  0  0  0  0  0  0
    9.7666    0.3206   23.7559 C   0  0  0  0  0  0  0  0  0  0  0  0
    8.4859    0.1869   26.2337 C   0  0  0  0  0  0  0  0  0  0  0  0
   10.2850   -2.0667   22.3414 N   0  0  0  0  0  0  0  0  0  0  0  0
    9.9570   -4.8813   20.1860 C   0  0  0  0  0  0  0  0  0  0  0  0
    9.8821   -3.2869   24.0722 N   0  0  0  0  0  0  0  0  0  0  0  0
    7.1252   -7.7767   15.9269 N   0  0  0  0  0  0  0  0  0  0  0  0
    5.6891   -8.3671   17.4779 N   0  0  0  0  0  0  0  0  0  0  0  0
    8.5115   -6.2473   17.2267 C   0  0  0  0  0  0  0  0  0  0  0  0
    9.1582   -5.5523   16.2013 C   0  0  0  0  0  0  0  0  0  0  0  0
   10.2265   -4.1643   22.9158 O   0  0  0  0  0  0  0  0  0  0  0  0
    9.6859   -5.0893   18.8368 C   0  0  0  0  0  0  0  0  0  0  0  0
    9.2946    1.4693   24.4017 C   0  0  0  0  0  0  0  0  0  0  0  0
   10.9937   -3.2204   18.2125 N   0  0  0  0  0  0  0  0  0  0  0  0
   10.3760   -3.3090   21.8835 C   0  0  0  0  0  0  0  0  0  0  0  0
    8.8394   -6.0672   18.5057 N   0  0  0  0  0  0  0  0  0  0  0  0
    8.9452   -1.0045   25.6367 C   0  0  0  0  0  0  0  0  0  0  0  0
   10.5378   -3.6747   20.5379 C   0  0  0  0  0  0  0  0  0  0  0  0
  1  8  1  0
  1 12  4  0
  1 14  4  0
  2  3  4  0
  2 18  4  0
  3 20  4  0
  3 22  4  0
  4 11  4  0
  4 21  4  0
  5  9  4  0
  5 16  4  0
  6 15  4  0
  6 16  4  0
  7 22  4  0
  7 26  4  0
  8 10  4  0
  8 25  4  0
  9 15  4  0
  9 17  1  0
 10 21  4  0
 11 25  4  0
 12 23  4  0
 13 20  4  0
 13 26  4  0
 14 19  4  0
 17 18  4  0
 17 24  4  0
 19 23  4  0
 20 24  4  0
 23 26  1  0
M  END
$$$$

 Created by Python create_sdf_string function

 26 34  0  0  0  0  0  0  0  0999 V2000
    9.9701   -2.0837   23.5897 C   0  0  0  0  0  0  0  0  0  0  0  0
   10.1915   -4.5339   16.5071 C   0  0  0  0  0  0  0  0  0  0  0  0
   10.2606   -4.4582   17.9093 C   0  0  0  0  0  0  0  0  0  0  0  0
    8.5982    1.3782   25.5579 N   0  0  0  0  0  0  0  0  0  0  0  0
    6.6235   -7.3583   18.1366 N   0  0  0  0  0  0  0  0  0  0  0  0
    6.1321   -8.3333   16.2278 C   0  0  0  0  0  0  0  0  0  0  0  0
   10.9921   -2.9098   19.6706 C   0  0  0  0  0  0  0  0  0  0  0  0
    9.7686   -0.8257   24.5011 C   0  0  0  0  0  0  0  0  0  0  0  0
    7.5357   -7.1699   16.9588 C   0  0  0  0  0  0  0  0  0  0  0  0
    9.8278    0.2149   23.7451 C   0  0  0  0  0  0  0  0  0  0  0  0
   10.4717   -2.0975   22.5375 N   0  0  0  0  0  0  0  0  0  0  0  0
    9.9918   -4.7557   20.0196 C   0  0  0  0  0  0  0  0  0  0  0  0
    9.8817   -3.2379   24.0604 N   0  0  0  0  0  0  0  0  0  0  0  0
    7.1479   -7.9644   15.8757 N   0  0  0  0  0  0  0  0  0  0  0  0
    5.5306   -8.5811   17.3791 N   0  0  0  0  0  0  0  0  0  0  0  0
    8.4255   -6.1056   17.4140 C   0  0  0  0  0  0  0  0  0  0  0  0
    9.0561   -5.5322   16.1392 C   0  0  0  0  0  0  0  0  0  0  0  0
   10.2972   -4.0440   22.8969 O   0  0  0  0  0  0  0  0  0  0  0  0
    9.6213   -5.2476   18.9215 C   0  0  0  0  0  0  0  0  0  0  0  0
    9.0883    1.6037   24.3273 C   0  0  0  0  0  0  0  0  0  0  0  0
   11.0538   -3.0314   18.0830 N   0  0  0  0  0  0  0  0  0  0  0  0
   10.3913   -3.2965   21.8843 C   0  0  0  0  0  0  0  0  0  0  0  0
    8.8564   -6.0004   18.4150 N   0  0  0  0  0  0  0  0  0  0  0  0
    8.9970   -1.2293   25.8496 C   0  0  0  0  0  0  0  0  0  0  0  0
   10.5541   -3.6276   20.5602 C   0  0  0  0  0  0  0  0  0  0  0  0
    8.4148    0.3026   26.2105 He  0  0  0  0  0  0  0  0  0  0  0  0
  1  8  1  0
  1 11  4  0
  1 13  4  0
  2  3  4  0
  2 17  4  0
  3 19  4  0
  3 21  4  0
  4 20  4  0
  5 15  4  0
  5 17  2  0
  6 14  4  0
  6 15  4  0
  7 21  4  0
  7 25  4  0
  8 10  4  0
  8 20  2  0
  8 24  4  0
  9 14  4  0
  9 16  1  0
  9 19  4  0
 10 20  4  0
 11 22  4  0
 11 25  3  0
 12 19  4  0
 12 25  4  0
 13 18  4  0
 14 24  3  0
 15 23  3  0
 16 17  4  0
 16 23  4  0
 18 22  4  0
 19 23  4  0
 20 23  3  0
 22 25  1  0
M  END
$$$$

 Created by Python create_sdf_string function

 26 30  0  0  0  0  0  0  0  0999 V2000
    9.9936   -2.0331   23.6621 C   0  0  0  0  0  0  0  0  0  0  0  0
   10.0288   -4.5426   16.4950 C   0  0  0  0  0  0  0  0  0  0  0  0
   10.2672   -4.2435   17.8529 C   0  0  0  0  0  0  0  0  0  0  0  0
    8.5463    1.3578   25.5778 N   0  0  0  0  0  0  0  0  0  0  0  0
    6.5513   -7.5326   17.9871 N   0  0  0  0  0  0  0  0  0  0  0  0
    6.0808   -8.5281   16.1844 C   0  0  0  0  0  0  0  0  0  0  0  0
   11.0720   -2.8420   19.5972 C   0  0  0  0  0  0  0  0  0  0  0  0
    9.5804   -0.8617   24.3851 C   0  0  0  0  0  0  0  0  0  0  0  0
    7.4295   -7.1473   17.0247 C   0  0  0  0  0  0  0  0  0  0  0  0
    9.7312    0.3519   23.7590 C   0  0  0  0  0  0  0  0  0  0  0  0
    8.4734    0.1896   26.2622 C   0  0  0  0  0  0  0  0  0  0  0  0
   10.4145   -2.0474   22.4033 N   0  0  0  0  0  0  0  0  0  0  0  0
    9.9596   -4.8085   20.1729 C   0  0  0  0  0  0  0  0  0  0  0  0
    9.9664   -3.2462   24.1176 N   0  0  0  0  0  0  0  0  0  0  0  0
    7.1338   -7.7732   15.9067 N   0  0  0  0  0  0  0  0  0  0  0  0
    5.6729   -8.3605   17.4358 N   0  0  0  0  0  0  0  0  0  0  0  0
    8.4893   -6.2322   17.2379 C   0  0  0  0  0  0  0  0  0  0  0  0
    9.1265   -5.5386   16.1984 C   0  0  0  0  0  0  0  0  0  0  0  0
   10.2690   -4.1221   22.9463 O   0  0  0  0  0  0  0  0  0  0  0  0
    9.6812   -5.0532   18.8140 C   0  0  0  0  0  0  0  0  0  0  0  0
    9.1790    1.4840   24.3805 C   0  0  0  0  0  0  0  0  0  0  0  0
   11.0116   -3.1727   18.2179 N   0  0  0  0  0  0  0  0  0  0  0  0
   10.4430   -3.2820   21.9139 C   0  0  0  0  0  0  0  0  0  0  0  0
    8.8251   -6.0258   18.4847 N   0  0  0  0  0  0  0  0  0  0  0  0
    9.0116   -0.9716   25.6726 C   0  0  0  0  0  0  0  0  0  0  0  0
   10.5284   -3.6417   20.5569 C   0  0  0  0  0  0  0  0  0  0  0  0
  1  8  1  0
  1 12  4  0
  1 14  4  0
  2  3  4  0
  2 18  4  0
  3 20  4  0
  3 22  4  0
  4 11  4  0
  4 21  4  0
  5  9  4  0
  5 16  4  0
  6 15  4  0
  6 16  4  0
  7 22  4  0
  7 26  4  0
  8 10  4  0
  8 25  4  0
  9 15  4  0
  9 17  1  0
 10 21  4  0
 11 25  4  0
 12 23  4  0
 13 20  4  0
 13 26  4  0
 14 19  4  0
 17 18  4  0
 17 24  4  0
 19 23  4  0
 20 24  4  0
 23 26  1  0
M  END
$$$$

 Created by Python create_sdf_string function

 26 36  0  0  0  0  0  0  0  0999 V2000
   10.0439   -1.9815   23.7888 C   0  0  0  0  0  0  0  0  0  0  0  0
   10.1228   -4.4462   16.3975 C   0  0  0  0  0  0  0  0  0  0  0  0
   10.2734   -4.1770   17.8653 C   0  0  0  0  0  0  0  0  0  0  0  0
    8.5218    1.2521   25.4647 N   0  0  0  0  0  0  0  0  0  0  0  0
    6.6118   -7.4917   17.8471 N   0  0  0  0  0  0  0  0  0  0  0  0
    6.3670   -8.3620   16.1864 C   0  0  0  0  0  0  0  0  0  0  0  0
   11.1547   -2.7838   19.7508 C   0  0  0  0  0  0  0  0  0  0  0  0
    9.5429   -0.8802   24.3831 C   0  0  0  0  0  0  0  0  0  0  0  0
    7.5682   -7.2065   16.8469 C   0  0  0  0  0  0  0  0  0  0  0  0
    9.6858    0.2465   23.7590 C   0  0  0  0  0  0  0  0  0  0  0  0
    8.4470    0.2470   26.3217 C   0  0  0  0  0  0  0  0  0  0  0  0
   10.2465   -2.0712   22.3836 N   0  0  0  0  0  0  0  0  0  0  0  0
    9.8429   -4.8067   20.0344 C   0  0  0  0  0  0  0  0  0  0  0  0
   10.0900   -3.0183   24.1623 N   0  0  0  0  0  0  0  0  0  0  0  0
    7.2203   -7.7057   15.9486 N   0  0  0  0  0  0  0  0  0  0  0  0
    5.5493   -8.2202   17.2790 N   0  0  0  0  0  0  0  0  0  0  0  0
    8.4116   -6.4723   17.3502 C   0  0  0  0  0  0  0  0  0  0  0  0
   10.0975   -4.0698   22.9692 O   0  0  0  0  0  0  0  0  0  0  0  0
    9.7327   -5.0227   18.8531 C   0  0  0  0  0  0  0  0  0  0  0  0
    9.1869    1.5653   24.3022 C   0  0  0  0  0  0  0  0  0  0  0  0
   11.0529   -3.1413   18.0628 N   0  0  0  0  0  0  0  0  0  0  0  0
   10.4452   -3.4353   22.0144 C   0  0  0  0  0  0  0  0  0  0  0  0
    8.9555   -6.0035   18.4362 Cl  0  0  0  0  0  0  0  0  0  0  0  0
    9.1099   -0.9478   25.7107 C   0  0  0  0  0  0  0  0  0  0  0  0
   10.3893   -3.6613   20.6579 C   0  0  0  0  0  0  0  0  0  0  0  0
    9.0487   -5.5407   16.4204 He  0  0  0  0  0  0  0  0  0  0  0  0
  1  8  1  0
  1 12  4  0
  1 14  4  0
  1 21  4  0
  2  3  4  0
  2 19  1  0
  3 19  4  0
  3 21  4  0
  5 16  4  0
  5 20  4  0
  6 15  4  0
  6 16  4  0
  7 21  4  0
  7 23  2  0
  7 25  4  0
  8 10  4  0
  9 15  4  0
  9 17  4  0
  9 22  1  0
  9 23  4  0
 10 16  3  0
 10 17  3  0
 10 20  4  0
 11 12  2  0
 11 24  4  0
 12 22  4  0
 13 19  4  0
 13 25  4  0
 14 18  4  0
 14 22  2  0
 15 20  3  0
 17 23  4  0
 17 25  4  0
 18 22  4  0
 19 23  4  0
 22 25  1  0
M  END
$$$$

 Created by Python create_sdf_string function

 26 30  0  0  0  0  0  0  0  0999 V2000
    9.9839   -1.9964   23.6840 C   0  0  0  0  0  0  0  0  0  0  0  0
   10.0094   -4.4968   16.5386 C   0  0  0  0  0  0  0  0  0  0  0  0
   10.2632   -4.2062   17.8841 C   0  0  0  0  0  0  0  0  0  0  0  0
    8.5272    1.3827   25.5739 N   0  0  0  0  0  0  0  0  0  0  0  0
    6.5349   -7.5046   17.9010 N   0  0  0  0  0  0  0  0  0  0  0  0
    6.1612   -8.4608   16.0725 C   0  0  0  0  0  0  0  0  0  0  0  0
   11.0869   -2.8586   19.6388 C   0  0  0  0  0  0  0  0  0  0  0  0
    9.5765   -0.8128   24.3884 C   0  0  0  0  0  0  0  0  0  0  0  0
    7.4719   -7.1455   16.9875 C   0  0  0  0  0  0  0  0  0  0  0  0
    9.6640    0.3837   23.7186 C   0  0  0  0  0  0  0  0  0  0  0  0
    8.4849    0.2303   26.2492 C   0  0  0  0  0  0  0  0  0  0  0  0
   10.3269   -2.0419   22.4002 N   0  0  0  0  0  0  0  0  0  0  0  0
    9.8865   -4.7973   20.1694 C   0  0  0  0  0  0  0  0  0  0  0  0
   10.0291   -3.1896   24.1713 N   0  0  0  0  0  0  0  0  0  0  0  0
    7.2637   -7.7655   15.8591 N   0  0  0  0  0  0  0  0  0  0  0  0
    5.6913   -8.3032   17.2945 N   0  0  0  0  0  0  0  0  0  0  0  0
    8.5167   -6.2437   17.2165 C   0  0  0  0  0  0  0  0  0  0  0  0
    9.1516   -5.5256   16.2336 C   0  0  0  0  0  0  0  0  0  0  0  0
   10.2752   -4.0962   22.9995 O   0  0  0  0  0  0  0  0  0  0  0  0
    9.6881   -5.0407   18.8311 C   0  0  0  0  0  0  0  0  0  0  0  0
    9.1035    1.5008   24.3457 C   0  0  0  0  0  0  0  0  0  0  0  0
   11.0032   -3.1515   18.2804 N   0  0  0  0  0  0  0  0  0  0  0  0
   10.3852   -3.2761   21.9494 C   0  0  0  0  0  0  0  0  0  0  0  0
    8.8993   -6.0534   18.4585 N   0  0  0  0  0  0  0  0  0  0  0  0
    9.0386   -0.9348   25.6809 C   0  0  0  0  0  0  0  0  0  0  0  0
   10.4745   -3.6594   20.5830 C   0  0  0  0  0  0  0  0  0  0  0  0
  1  8  1  0
  1 12  4  0
  1 14  4  0
  2  3  4  0
  2 18  4  0
  3 20  4  0
  3 22  4  0
  4 11  4  0
  4 21  4  0
  5  9  4  0
  5 16  4  0
  6 15  4  0
  6 16  4  0
  7 22  4  0
  7 26  4  0
  8 10  4  0
  8 25  4  0
  9 15  4  0
  9 17  1  0
 10 21  4  0
 11 25  4  0
 12 23  4  0
 13 20  4  0
 13 26  4  0
 14 19  4  0
 17 18  4  0
 17 24  4  0
 19 23  4  0
 20 24  4  0
 23 26  1  0
M  END
$$$$

 Created by Python create_sdf_string function

 26 33  0  0  0  0  0  0  0  0999 V2000
    9.9436   -2.0377   23.7180 C   0  0  0  0  0  0  0  0  0  0  0  0
    9.9267   -4.3275   16.5619 C   0  0  0  0  0  0  0  0  0  0  0  0
   10.2138   -4.2570   17.9344 C   0  0  0  0  0  0  0  0  0  0  0  0
    8.4680    1.4033   25.6557 N   0  0  0  0  0  0  0  0  0  0  0  0
    6.6030   -7.5403   17.9588 N   0  0  0  0  0  0  0  0  0  0  0  0
    6.0120   -8.4235   16.1579 C   0  0  0  0  0  0  0  0  0  0  0  0
   11.0850   -2.7215   19.6152 C   0  0  0  0  0  0  0  0  0  0  0  0
    9.5598   -0.8875   24.5557 C   0  0  0  0  0  0  0  0  0  0  0  0
    7.5369   -7.2390   16.9482 C   0  0  0  0  0  0  0  0  0  0  0  0
    9.6152    0.4631   23.6653 C   0  0  0  0  0  0  0  0  0  0  0  0
    8.6043    0.1508   26.1650 C   0  0  0  0  0  0  0  0  0  0  0  0
   10.4153   -2.1203   22.2932 N   0  0  0  0  0  0  0  0  0  0  0  0
    9.8222   -4.7083   20.0255 C   0  0  0  0  0  0  0  0  0  0  0  0
    7.2397   -7.7232   16.0908 N   0  0  0  0  0  0  0  0  0  0  0  0
    5.5610   -8.2644   17.0792 N   0  0  0  0  0  0  0  0  0  0  0  0
    8.5725   -6.1097   17.1798 C   0  0  0  0  0  0  0  0  0  0  0  0
    9.0905   -5.5683   16.4119 C   0  0  0  0  0  0  0  0  0  0  0  0
   10.3603   -4.1776   22.9245 O   0  0  0  0  0  0  0  0  0  0  0  0
    9.6200   -5.1172   18.9162 C   0  0  0  0  0  0  0  0  0  0  0  0
    9.0155    1.4961   24.2880 C   0  0  0  0  0  0  0  0  0  0  0  0
   10.9322   -3.1190   18.2421 N   0  0  0  0  0  0  0  0  0  0  0  0
   10.3445   -3.2115   22.0014 C   0  0  0  0  0  0  0  0  0  0  0  0
    8.8650   -5.9294   18.5095 N   0  0  0  0  0  0  0  0  0  0  0  0
    9.0669   -0.8513   25.7185 C   0  0  0  0  0  0  0  0  0  0  0  0
   10.4413   -3.5748   20.5804 C   0  0  0  0  0  0  0  0  0  0  0  0
    9.9341   -3.1325   24.0270 He  0  0  0  0  0  0  0  0  0  0  0  0
  1  8  1  0
  1 12  4  0
  2  3  4  0
  3 19  4  0
  3 21  4  0
  4 11  4  0
  4 20  4  0
  4 22  4  0
  5  9  4  0
  5 20  3  0
  6 14  4  0
  6 15  4  0
  7 25  4  0
  8 10  4  0
  8 22  1  0
  8 24  4  0
  9 14  4  0
  9 16  1  0
  9 20  2  0
  9 25  1  0
 10 18  2  0
 10 20  4  0
 12 22  4  0
 12 23  2  0
 13 19  4  0
 13 24  3  0
 13 25  4  0
 16 17  4  0
 16 23  4  0
 18 22  4  0
 19 23  4  0
 21 22  2  0
 22 25  1  0
M  END
$$$$

 Created by Python create_sdf_string function

 26 30  0  0  0  0  0  0  0  0999 V2000
    9.9603   -1.9869   23.6567 C   0  0  0  0  0  0  0  0  0  0  0  0
    9.9638   -4.4399   16.5533 C   0  0  0  0  0  0  0  0  0  0  0  0
   10.1989   -4.1490   17.8975 C   0  0  0  0  0  0  0  0  0  0  0  0
    8.5059    1.4013   25.6026 N   0  0  0  0  0  0  0  0  0  0  0  0
    6.5739   -7.5239   17.9097 N   0  0  0  0  0  0  0  0  0  0  0  0
    6.0899   -8.4300   16.0623 C   0  0  0  0  0  0  0  0  0  0  0  0
   11.0482   -2.7906   19.6078 C   0  0  0  0  0  0  0  0  0  0  0  0
    9.5330   -0.8133   24.3809 C   0  0  0  0  0  0  0  0  0  0  0  0
    7.4634   -7.1453   17.0241 C   0  0  0  0  0  0  0  0  0  0  0  0
    9.5722    0.3974   23.7089 C   0  0  0  0  0  0  0  0  0  0  0  0
    8.5370    0.2375   26.2863 C   0  0  0  0  0  0  0  0  0  0  0  0
   10.3394   -2.0212   22.3595 N   0  0  0  0  0  0  0  0  0  0  0  0
    9.8633   -4.7571   20.1924 C   0  0  0  0  0  0  0  0  0  0  0  0
   10.0075   -3.2305   24.0974 N   0  0  0  0  0  0  0  0  0  0  0  0
    7.2222   -7.7513   15.9066 N   0  0  0  0  0  0  0  0  0  0  0  0
    5.6604   -8.2744   17.2654 N   0  0  0  0  0  0  0  0  0  0  0  0
    8.4954   -6.2089   17.2526 C   0  0  0  0  0  0  0  0  0  0  0  0
    9.1105   -5.4637   16.2416 C   0  0  0  0  0  0  0  0  0  0  0  0
   10.2945   -4.1096   22.9666 O   0  0  0  0  0  0  0  0  0  0  0  0
    9.6232   -4.9882   18.8569 C   0  0  0  0  0  0  0  0  0  0  0  0
    9.0192    1.5116   24.3467 C   0  0  0  0  0  0  0  0  0  0  0  0
   10.9381   -3.1017   18.2642 N   0  0  0  0  0  0  0  0  0  0  0  0
   10.4032   -3.2644   21.9141 C   0  0  0  0  0  0  0  0  0  0  0  0
    8.8321   -6.0020   18.5130 N   0  0  0  0  0  0  0  0  0  0  0  0
    9.0674   -0.9240   25.6950 C   0  0  0  0  0  0  0  0  0  0  0  0
   10.4667   -3.6109   20.5705 C   0  0  0  0  0  0  0  0  0  0  0  0
  1  8  1  0
  1 12  4  0
  1 14  4  0
  2  3  4  0
  2 18  4  0
  3 20  4  0
  3 22  4  0
  4 11  4  0
  4 21  4  0
  5  9  4  0
  5 16  4  0
  6 15  4  0
  6 16  4  0
  7 22  4  0
  7 26  4  0
  8 10  4  0
  8 25  4  0
  9 15  4  0
  9 17  1  0
 10 21  4  0
 11 25  4  0
 12 23  4  0
 13 20  4  0
 13 26  4  0
 14 19  4  0
 17 18  4  0
 17 24  4  0
 19 23  4  0
 20 24  4  0
 23 26  1  0
M  END
$$$$

 Created by Python create_sdf_string function

 26 39  0  0  0  0  0  0  0  0999 V2000
    9.9642   -2.0197   23.6410 C   0  0  0  0  0  0  0  0  0  0  0  0
    9.9795   -4.4145   16.6171 C   0  0  0  0  0  0  0  0  0  0  0  0
   10.1956   -4.0327   17.9557 C   0  0  0  0  0  0  0  0  0  0  0  0
    8.5951    1.3651   25.5250 N   0  0  0  0  0  0  0  0  0  0  0  0
    6.6818   -7.5538   17.8883 N   0  0  0  0  0  0  0  0  0  0  0  0
    6.0784   -8.5213   16.0918 C   0  0  0  0  0  0  0  0  0  0  0  0
   11.0853   -2.7419   19.5235 C   0  0  0  0  0  0  0  0  0  0  0  0
    9.5071   -0.8063   24.4800 C   0  0  0  0  0  0  0  0  0  0  0  0
    7.6290   -7.1395   17.1286 C   0  0  0  0  0  0  0  0  0  0  0  0
    9.5420    0.4249   23.6894 C   0  0  0  0  0  0  0  0  0  0  0  0
    8.4646    0.3273   26.2863 C   0  0  0  0  0  0  0  0  0  0  0  0
   10.2822   -1.9746   22.3840 N   0  0  0  0  0  0  0  0  0  0  0  0
    9.8877   -4.7338   20.2188 C   0  0  0  0  0  0  0  0  0  0  0  0
    9.9599   -3.1470   24.0999 N   0  0  0  0  0  0  0  0  0  0  0  0
    7.1313   -7.6159   15.8240 N   0  0  0  0  0  0  0  0  0  0  0  0
    5.5160   -8.3049   17.2726 N   0  0  0  0  0  0  0  0  0  0  0  0
    8.5826   -6.1112   17.0955 C   0  0  0  0  0  0  0  0  0  0  0  0
    9.2187   -5.4398   16.2098 C   0  0  0  0  0  0  0  0  0  0  0  0
   10.3262   -4.2205   23.0076 O   0  0  0  0  0  0  0  0  0  0  0  0
    9.5990   -4.9072   18.8898 C   0  0  0  0  0  0  0  0  0  0  0  0
   10.9054   -3.1900   18.3647 N   0  0  0  0  0  0  0  0  0  0  0  0
   10.2533   -3.2992   21.7666 C   0  0  0  0  0  0  0  0  0  0  0  0
    8.8895   -6.0024   18.5367 N   0  0  0  0  0  0  0  0  0  0  0  0
    8.9912   -0.7910   25.6349 C   0  0  0  0  0  0  0  0  0  0  0  0
   10.4768   -3.6568   20.5569 C   0  0  0  0  0  0  0  0  0  0  0  0
    9.0964    1.4911   24.3101 He  0  0  0  0  0  0  0  0  0  0  0  0
  1  8  1  0
  1 12  4  0
  1 14  4  0
  1 20  3  0
  2  3  4  0
  2 18  4  0
  3 20  4  0
  3 21  4  0
  4  6  3  0
  4 11  4  0
  5  9  4  0
  5 16  4  0
  6 15  4  0
  7 17  2  0
  7 21  4  0
  7 22  4  0
  7 25  4  0
  8 12  4  0
  8 24  4  0
  9 15  4  0
  9 17  1  0
  9 21  4  0
 10 20  3  0
 10 22  4  0
 11 14  2  0
 11 24  4  0
 12 15  2  0
 12 22  4  0
 12 25  4  0
 13 20  4  0
 13 25  4  0
 14 19  4  0
 16 19  4  0
 17 18  4  0
 17 23  4  0
 19 22  4  0
 19 25  3  0
 20 23  2  0
 22 25  1  0
M  END
$$$$

 Created by Python create_sdf_string function

 26 30  0  0  0  0  0  0  0  0999 V2000
    9.9169   -1.9650   23.6467 C   0  0  0  0  0  0  0  0  0  0  0  0
    9.9972   -4.3890   16.5493 C   0  0  0  0  0  0  0  0  0  0  0  0
   10.2214   -4.1265   17.8964 C   0  0  0  0  0  0  0  0  0  0  0  0
    8.5571    1.4575   25.5595 N   0  0  0  0  0  0  0  0  0  0  0  0
    6.6336   -7.5406   17.9081 N   0  0  0  0  0  0  0  0  0  0  0  0
    6.0831   -8.4195   16.0665 C   0  0  0  0  0  0  0  0  0  0  0  0
   11.0650   -2.7980   19.6189 C   0  0  0  0  0  0  0  0  0  0  0  0
    9.4933   -0.7788   24.3585 C   0  0  0  0  0  0  0  0  0  0  0  0
    7.4839   -7.0979   16.9753 C   0  0  0  0  0  0  0  0  0  0  0  0
    9.5759    0.4256   23.6841 C   0  0  0  0  0  0  0  0  0  0  0  0
    8.5062    0.2846   26.2532 C   0  0  0  0  0  0  0  0  0  0  0  0
   10.2776   -1.9940   22.3560 N   0  0  0  0  0  0  0  0  0  0  0  0
    9.8588   -4.7504   20.1842 C   0  0  0  0  0  0  0  0  0  0  0  0
    9.9882   -3.1631   24.1401 N   0  0  0  0  0  0  0  0  0  0  0  0
    7.1775   -7.6705   15.8362 N   0  0  0  0  0  0  0  0  0  0  0  0
    5.7319   -8.3161   17.3251 N   0  0  0  0  0  0  0  0  0  0  0  0
    8.5233   -6.1600   17.2051 C   0  0  0  0  0  0  0  0  0  0  0  0
    9.1758   -5.4185   16.2128 C   0  0  0  0  0  0  0  0  0  0  0  0
   10.2804   -4.0718   22.9797 O   0  0  0  0  0  0  0  0  0  0  0  0
    9.6371   -4.9842   18.8402 C   0  0  0  0  0  0  0  0  0  0  0  0
    9.0724    1.5485   24.3213 C   0  0  0  0  0  0  0  0  0  0  0  0
   10.9380   -3.0600   18.2827 N   0  0  0  0  0  0  0  0  0  0  0  0
   10.3799   -3.2360   21.9256 C   0  0  0  0  0  0  0  0  0  0  0  0
    8.8251   -5.9586   18.4663 N   0  0  0  0  0  0  0  0  0  0  0  0
    8.9970   -0.8808   25.6493 C   0  0  0  0  0  0  0  0  0  0  0  0
   10.4566   -3.6035   20.5719 C   0  0  0  0  0  0  0  0  0  0  0  0
  1  8  1  0
  1 12  4  0
  1 14  4  0
  2  3  4  0
  2 18  4  0
  3 20  4  0
  3 22  4  0
  4 11  4  0
  4 21  4  0
  5  9  4  0
  5 16  4  0
  6 15  4  0
  6 16  4  0
  7 22  4  0
  7 26  4  0
  8 10  4  0
  8 25  4  0
  9 15  4  0
  9 17  1  0
 10 21  4  0
 11 25  4  0
 12 23  4  0
 13 20  4  0
 13 26  4  0
 14 19  4  0
 17 18  4  0
 17 24  4  0
 19 23  4  0
 20 24  4  0
 23 26  1  0
M  END
$$$$

 Created by Python create_sdf_string function

 26 30  0  0  0  0  0  0  0  0999 V2000
   10.0000   -2.1213   23.7280 C   0  0  0  0  0  0  0  0  0  0  0  0
    9.9997   -4.3725   16.6893 C   0  0  0  0  0  0  0  0  0  0  0  0
   10.1262   -4.1924   18.0142 C   0  0  0  0  0  0  0  0  0  0  0  0
    8.5307    1.5963   25.4468 N   0  0  0  0  0  0  0  0  0  0  0  0
    6.7460   -7.5966   18.0081 O   0  0  0  0  0  0  0  0  0  0  0  0
    6.1291   -8.3597   16.3296 C   0  0  0  0  0  0  0  0  0  0  0  0
   11.0303   -2.7667   19.5797 C   0  0  0  0  0  0  0  0  0  0  0  0
    9.5555   -0.7319   24.3954 C   0  0  0  0  0  0  0  0  0  0  0  0
    7.3136   -6.9353   16.8349 C   0  0  0  0  0  0  0  0  0  0  0  0
    8.5155    0.3714   26.1493 C   0  0  0  0  0  0  0  0  0  0  0  0
   10.3182   -1.9885   22.3638 N   0  0  0  0  0  0  0  0  0  0  0  0
    9.8155   -4.6202   20.1647 C   0  0  0  0  0  0  0  0  0  0  0  0
    9.9917   -3.0355   24.1294 N   0  0  0  0  0  0  0  0  0  0  0  0
    7.4286   -7.7341   15.6337 N   0  0  0  0  0  0  0  0  0  0  0  0
    5.8520   -8.3002   17.2933 N   0  0  0  0  0  0  0  0  0  0  0  0
    8.5579   -6.1469   17.2434 O   0  0  0  0  0  0  0  0  0  0  0  0
    9.2131   -5.2781   16.1362 C   0  0  0  0  0  0  0  0  0  0  0  0
   10.2821   -4.0795   22.9216 O   0  0  0  0  0  0  0  0  0  0  0  0
    9.6716   -4.9996   18.8739 C   0  0  0  0  0  0  0  0  0  0  0  0
    9.1502    1.4731   24.2738 B   0  0  0  0  0  0  0  0  0  0  0  0
   10.9537   -3.1342   18.3677 N   0  0  0  0  0  0  0  0  0  0  0  0
   10.3135   -3.3366   21.9578 C   0  0  0  0  0  0  0  0  0  0  0  0
    8.9219   -6.0059   18.5122 N   0  0  0  0  0  0  0  0  0  0  0  0
    9.0538   -0.8364   25.6236 C   0  0  0  0  0  0  0  0  0  0  0  0
    9.5222    0.4074   23.6372 He  0  0  0  0  0  0  0  0  0  0  0  0
   10.4734   -3.5393   20.6284 He  0  0  0  0  0  0  0  0  0  0  0  0
  1  8  1  0
  1 11  4  0
  1 13  4  0
  1 20  4  0
  2  3  4  0
  2 17  4  0
  3  4  3  0
  3 19  4  0
  3 21  4  0
  4 10  4  0
  4 20  4  0
  5  9  4  0
  6 11  1  0
  6 14  4  0
  6 15  4  0
  7 18  3  0
  7 21  4  0
  8 24  4  0
  9 14  4  0
  9 16  2  0
 10 24  4  0
 11 22  4  0
 12 16  3  0
 12 19  3  0
 13 18  4  0
 15 20  2  0
 16 17  4  0
 16 23  4  0
 18 22  4  0
 19 23  4  0
M  END
$$$$

 Created by Python create_sdf_string function

 26 30  0  0  0  0  0  0  0  0999 V2000
    9.9453   -1.9462   23.6524 C   0  0  0  0  0  0  0  0  0  0  0  0
   10.0185   -4.3461   16.5787 C   0  0  0  0  0  0  0  0  0  0  0  0
   10.2368   -4.1045   17.9377 C   0  0  0  0  0  0  0  0  0  0  0  0
    8.5654    1.5234   25.4756 N   0  0  0  0  0  0  0  0  0  0  0  0
    6.7204   -7.5211   17.8949 O   0  0  0  0  0  0  0  0  0  0  0  0
    6.1782   -8.4353   16.0867 C   0  0  0  0  0  0  0  0  0  0  0  0
   11.0581   -2.7674   19.6624 C   0  0  0  0  0  0  0  0  0  0  0  0
    9.5204   -0.7571   24.3399 C   0  0  0  0  0  0  0  0  0  0  0  0
    7.5479   -7.0499   16.9678 C   0  0  0  0  0  0  0  0  0  0  0  0
    9.6011    0.4159   23.6376 C   0  0  0  0  0  0  0  0  0  0  0  0
    8.5210    0.3551   26.1923 C   0  0  0  0  0  0  0  0  0  0  0  0
   10.3029   -1.9872   22.3695 N   0  0  0  0  0  0  0  0  0  0  0  0
    9.8493   -4.7235   20.2108 C   0  0  0  0  0  0  0  0  0  0  0  0
   10.0139   -3.1421   24.1468 N   0  0  0  0  0  0  0  0  0  0  0  0
    7.2162   -7.6134   15.7925 N   0  0  0  0  0  0  0  0  0  0  0  0
    5.8784   -8.3352   17.3330 N   0  0  0  0  0  0  0  0  0  0  0  0
    8.5452   -6.1011   17.2018 C   0  0  0  0  0  0  0  0  0  0  0  0
    9.1681   -5.3223   16.2130 C   0  0  0  0  0  0  0  0  0  0  0  0
   10.2859   -4.0408   22.9822 O   0  0  0  0  0  0  0  0  0  0  0  0
    9.6463   -4.9549   18.8692 C   0  0  0  0  0  0  0  0  0  0  0  0
    9.0946    1.5513   24.2275 C   0  0  0  0  0  0  0  0  0  0  0  0
   10.9619   -3.0542   18.3429 N   0  0  0  0  0  0  0  0  0  0  0  0
   10.3770   -3.2212   21.9415 C   0  0  0  0  0  0  0  0  0  0  0  0
    8.8526   -5.9433   18.4788 N   0  0  0  0  0  0  0  0  0  0  0  0
    9.0268   -0.8313   25.6317 C   0  0  0  0  0  0  0  0  0  0  0  0
   10.4469   -3.5738   20.6004 C   0  0  0  0  0  0  0  0  0  0  0  0
  1  8  1  0
  1 12  4  0
  1 14  4  0
  2  3  4  0
  2 18  4  0
  3 20  4  0
  3 22  4  0
  4 11  4  0
  4 21  4  0
  5  9  4  0
  5 16  4  0
  6 15  4  0
  6 16  4  0
  7 22  4  0
  7 26  4  0
  8 10  4  0
  8 25  4  0
  9 15  4  0
  9 17  1  0
 10 21  4  0
 11 25  4  0
 12 23  4  0
 13 20  4  0
 13 26  4  0
 14 19  4  0
 17 18  4  0
 17 24  4  0
 19 23  4  0
 20 24  4  0
 23 26  1  0
M  END
$$$$

 Created by Python create_sdf_string function

 26 36  0  0  0  0  0  0  0  0999 V2000
    9.8942   -1.8907   23.4814 C   0  0  0  0  0  0  0  0  0  0  0  0
   10.0686   -4.4109   16.5209 C   0  0  0  0  0  0  0  0  0  0  0  0
   10.3179   -4.1403   17.9850 C   0  0  0  0  0  0  0  0  0  0  0  0
    8.6591    1.5230   25.4091 N   0  0  0  0  0  0  0  0  0  0  0  0
    6.6356   -7.6477   17.9120 O   0  0  0  0  0  0  0  0  0  0  0  0
    6.1804   -8.5640   16.1706 C   0  0  0  0  0  0  0  0  0  0  0  0
   11.0251   -2.7273   19.6957 C   0  0  0  0  0  0  0  0  0  0  0  0
    9.6034   -0.7025   24.3981 C   0  0  0  0  0  0  0  0  0  0  0  0
    7.4864   -7.0283   17.0527 C   0  0  0  0  0  0  0  0  0  0  0  0
    9.6853    0.3764   23.4923 C   0  0  0  0  0  0  0  0  0  0  0  0
    8.6088    0.2820   26.1420 C   0  0  0  0  0  0  0  0  0  0  0  0
   10.3738   -1.8885   22.3395 N   0  0  0  0  0  0  0  0  0  0  0  0
    9.8426   -4.8657   20.2421 C   0  0  0  0  0  0  0  0  0  0  0  0
   10.0081   -3.1347   24.0915 Se  0  0  0  0  0  0  0  0  0  0  0  0
    7.1196   -7.6225   15.9228 N   0  0  0  0  0  0  0  0  0  0  0  0
    5.9169   -8.2551   17.4038 N   0  0  0  0  0  0  0  0  0  0  0  0
    8.5646   -6.1623   17.1617 C   0  0  0  0  0  0  0  0  0  0  0  0
    9.1967   -5.4968   16.1725 C   0  0  0  0  0  0  0  0  0  0  0  0
   10.2415   -4.0381   23.0014 O   0  0  0  0  0  0  0  0  0  0  0  0
    9.5916   -4.9694   18.7886 C   0  0  0  0  0  0  0  0  0  0  0  0
    8.9744    1.6116   24.2536 C   0  0  0  0  0  0  0  0  0  0  0  0
   10.9018   -2.8799   18.2799 N   0  0  0  0  0  0  0  0  0  0  0  0
    9.0318   -0.8663   25.5539 C   0  0  0  0  0  0  0  0  0  0  0  0
   10.4891   -3.5117   20.5616 C   0  0  0  0  0  0  0  0  0  0  0  0
   10.4061   -3.1995   21.9485 He  0  0  0  0  0  0  0  0  0  0  0  0
    8.8085   -6.0399   18.5509 He  0  0  0  0  0  0  0  0  0  0  0  0
  1  2  4  0
  1  8  1  0
  1 12  4  0
  1 14  4  0
  2  3  4  0
  2 18  4  0
  3  5  2  0
  3 20  4  0
  3 22  4  0
  4  9  1  0
  4 11  4  0
  4 15  1  0
  4 21  4  0
  5  9  4  0
  5 16  4  0
  6 15  4  0
  6 16  4  0
  7 22  4  0
  7 24  4  0
  8 10  4  0
  8 15  2  0
  8 18  3  0
  8 23  4  0
  9 15  4  0
  9 17  1  0
  9 22  2  0
 10 21  4  0
 11 23  4  0
 13 20  4  0
 13 24  4  0
 14 19  4  0
 14 20  4  0
 16 24  1  0
 17 18  4  0
 17 23  4  0
 18 22  2  0
M  END
$$$$

 Created by Python create_sdf_string function

 26 30  0  0  0  0  0  0  0  0999 V2000
    9.9580   -1.9054   23.6020 C   0  0  0  0  0  0  0  0  0  0  0  0
   10.0502   -4.4102   16.5799 C   0  0  0  0  0  0  0  0  0  0  0  0
   10.2192   -4.1255   17.9305 C   0  0  0  0  0  0  0  0  0  0  0  0
    8.5890    1.5024   25.4870 N   0  0  0  0  0  0  0  0  0  0  0  0
    6.6698   -7.5877   17.9327 C   0  0  0  0  0  0  0  0  0  0  0  0
    6.1711   -8.4685   16.1592 C   0  0  0  0  0  0  0  0  0  0  0  0
   11.0254   -2.7207   19.6350 C   0  0  0  0  0  0  0  0  0  0  0  0
    9.5304   -0.7262   24.2821 C   0  0  0  0  0  0  0  0  0  0  0  0
    7.4967   -7.0969   17.0176 C   0  0  0  0  0  0  0  0  0  0  0  0
    9.5912    0.4825   23.5879 C   0  0  0  0  0  0  0  0  0  0  0  0
    8.5784    0.3375   26.1866 C   0  0  0  0  0  0  0  0  0  0  0  0
   10.3492   -1.9395   22.3189 N   0  0  0  0  0  0  0  0  0  0  0  0
    9.8872   -4.7507   20.2321 C   0  0  0  0  0  0  0  0  0  0  0  0
    9.9807   -3.1534   24.0817 N   0  0  0  0  0  0  0  0  0  0  0  0
    7.1605   -7.6295   15.8963 N   0  0  0  0  0  0  0  0  0  0  0  0
    5.8589   -8.3856   17.4083 N   0  0  0  0  0  0  0  0  0  0  0  0
    8.5199   -6.1765   17.2246 C   0  0  0  0  0  0  0  0  0  0  0  0
    9.2010   -5.4411   16.2426 C   0  0  0  0  0  0  0  0  0  0  0  0
   10.2610   -4.0213   23.0034 O   0  0  0  0  0  0  0  0  0  0  0  0
    9.6465   -4.9839   18.8895 C   0  0  0  0  0  0  0  0  0  0  0  0
    9.0714    1.6062   24.2211 C   0  0  0  0  0  0  0  0  0  0  0  0
   10.9119   -3.0384   18.3088 N   0  0  0  0  0  0  0  0  0  0  0  0
   10.3888   -3.2020   21.9308 C   0  0  0  0  0  0  0  0  0  0  0  0
    8.8452   -5.9758   18.5091 N   0  0  0  0  0  0  0  0  0  0  0  0
    9.0588   -0.8293   25.5909 C   0  0  0  0  0  0  0  0  0  0  0  0
   10.4605   -3.5700   20.5964 C   0  0  0  0  0  0  0  0  0  0  0  0
  1  8  1  0
  1 12  4  0
  1 14  4  0
  2  3  4  0
  2 18  4  0
  3 20  4  0
  3 22  4  0
  4 11  4  0
  4 21  4  0
  5  9  4  0
  5 16  4  0
  6 15  4  0
  6 16  4  0
  7 22  4  0
  7 26  4  0
  8 10  4  0
  8 25  4  0
  9 15  4  0
  9 17  1  0
 10 21  4  0
 11 25  4  0
 12 23  4  0
 13 20  4  0
 13 26  4  0
 14 19  4  0
 17 18  4  0
 17 24  4  0
 19 23  4  0
 20 24  4  0
 23 26  1  0
M  END
$$$$

 Created by Python create_sdf_string function

 26 33  0  0  0  0  0  0  0  0999 V2000
    9.9614   -1.9013   23.5941 C   0  0  0  0  0  0  0  0  0  0  0  0
    9.9748   -4.3718   16.6198 C   0  0  0  0  0  0  0  0  0  0  0  0
   10.3107   -4.2055   17.9232 C   0  0  0  0  0  0  0  0  0  0  0  0
    8.4827    1.5958   25.4587 N   0  0  0  0  0  0  0  0  0  0  0  0
    6.6978   -7.4352   17.8988 C   0  0  0  0  0  0  0  0  0  0  0  0
   11.0099   -2.7778   19.6258 C   0  0  0  0  0  0  0  0  0  0  0  0
    9.5769   -0.5866   24.2005 C   0  0  0  0  0  0  0  0  0  0  0  0
    7.3712   -7.0239   17.0307 C   0  0  0  0  0  0  0  0  0  0  0  0
    9.6198    0.5151   23.6549 C   0  0  0  0  0  0  0  0  0  0  0  0
    8.5160    0.2887   26.0922 C   0  0  0  0  0  0  0  0  0  0  0  0
   10.3661   -1.9186   22.3798 N   0  0  0  0  0  0  0  0  0  0  0  0
    9.8893   -4.7702   20.1972 C   0  0  0  0  0  0  0  0  0  0  0  0
   10.0192   -3.2156   24.1222 N   0  0  0  0  0  0  0  0  0  0  0  0
    7.1779   -7.5107   16.0260 N   0  0  0  0  0  0  0  0  0  0  0  0
    5.9708   -8.5175   17.5737 N   0  0  0  0  0  0  0  0  0  0  0  0
    8.6247   -6.2879   17.0974 N   0  0  0  0  0  0  0  0  0  0  0  0
    9.2737   -5.3386   16.2913 C   0  0  0  0  0  0  0  0  0  0  0  0
   10.1633   -4.0497   22.9764 O   0  0  0  0  0  0  0  0  0  0  0  0
    9.7213   -5.0403   18.8617 C   0  0  0  0  0  0  0  0  0  0  0  0
    9.1378    1.5451   24.1253 C   0  0  0  0  0  0  0  0  0  0  0  0
   10.9727   -3.0669   18.2341 N   0  0  0  0  0  0  0  0  0  0  0  0
   10.3045   -3.2890   21.9436 C   0  0  0  0  0  0  0  0  0  0  0  0
    8.7970   -5.9758   18.4954 N   0  0  0  0  0  0  0  0  0  0  0  0
    9.2123   -0.8204   25.5359 C   0  0  0  0  0  0  0  0  0  0  0  0
   10.5773   -3.5939   20.6488 C   0  0  0  0  0  0  0  0  0  0  0  0
    5.9939   -8.5306   16.1990 He  0  0  0  0  0  0  0  0  0  0  0  0
  1  7  1  0
  1 11  4  0
  1 13  4  0
  2  3  4  0
  2 14  1  0
  2 17  4  0
  3 19  4  0
  3 21  4  0
  4 10  4  0
  4 17  1  0
  4 20  4  0
  5  8  4  0
  5 15  4  0
  5 16  1  0
  6 21  4  0
  6 25  4  0
  7  9  4  0
  7 24  4  0
  8 14  4  0
  8 16  1  0
  8 18  4  0
  9 20  4  0
 10 24  4  0
 11 22  4  0
 12 19  4  0
 12 25  4  0
 13 18  4  0
 16 17  4  0
 16 23  4  0
 18 22  4  0
 19 23  4  0
 21 24  3  0
 22 25  1  0
M  END
$$$$

 Created by Python create_sdf_string function

 26 30  0  0  0  0  0  0  0  0999 V2000
    9.9748   -1.9005   23.5870 C   0  0  0  0  0  0  0  0  0  0  0  0
   10.0428   -4.4109   16.5791 C   0  0  0  0  0  0  0  0  0  0  0  0
   10.2520   -4.1475   17.9297 C   0  0  0  0  0  0  0  0  0  0  0  0
    8.5388    1.5176   25.4228 N   0  0  0  0  0  0  0  0  0  0  0  0
    6.7016   -7.5300   17.9826 C   0  0  0  0  0  0  0  0  0  0  0  0
    6.1269   -8.4476   16.2135 N   0  0  0  0  0  0  0  0  0  0  0  0
   11.0616   -2.7825   19.6405 C   0  0  0  0  0  0  0  0  0  0  0  0
    9.5724   -0.7088   24.2727 C   0  0  0  0  0  0  0  0  0  0  0  0
    7.4989   -7.0411   17.0318 C   0  0  0  0  0  0  0  0  0  0  0  0
    9.6258    0.4846   23.5835 C   0  0  0  0  0  0  0  0  0  0  0  0
    8.5415    0.3463   26.1328 C   0  0  0  0  0  0  0  0  0  0  0  0
   10.3412   -1.9611   22.3239 N   0  0  0  0  0  0  0  0  0  0  0  0
    9.9200   -4.7778   20.2133 C   0  0  0  0  0  0  0  0  0  0  0  0
    9.9781   -3.1257   24.0893 N   0  0  0  0  0  0  0  0  0  0  0  0
    7.1182   -7.5669   15.9165 N   0  0  0  0  0  0  0  0  0  0  0  0
    5.8929   -8.4108   17.4798 N   0  0  0  0  0  0  0  0  0  0  0  0
    8.5298   -6.1287   17.2078 C   0  0  0  0  0  0  0  0  0  0  0  0
    9.1941   -5.3963   16.2225 C   0  0  0  0  0  0  0  0  0  0  0  0
   10.2060   -4.0273   22.9901 O   0  0  0  0  0  0  0  0  0  0  0  0
    9.6835   -5.0023   18.8762 C   0  0  0  0  0  0  0  0  0  0  0  0
    9.0873    1.6200   24.1779 C   0  0  0  0  0  0  0  0  0  0  0  0
   10.9783   -3.0772   18.3190 N   0  0  0  0  0  0  0  0  0  0  0  0
   10.3709   -3.2203   21.9301 C   0  0  0  0  0  0  0  0  0  0  0  0
    8.8847   -5.9843   18.4826 N   0  0  0  0  0  0  0  0  0  0  0  0
    9.0944   -0.7920   25.5655 C   0  0  0  0  0  0  0  0  0  0  0  0
   10.4718   -3.5963   20.5876 C   0  0  0  0  0  0  0  0  0  0  0  0
  1  8  1  0
  1 12  4  0
  1 14  4  0
  2  3  4  0
  2 18  4  0
  3 20  4  0
  3 22  4  0
  4 11  4  0
  4 21  4  0
  5  9  4  0
  5 16  4  0
  6 15  4  0
  6 16  4  0
  7 22  4  0
  7 26  4  0
  8 10  4  0
  8 25  4  0
  9 15  4  0
  9 17  1  0
 10 21  4  0
 11 25  4  0
 12 23  4  0
 13 20  4  0
 13 26  4  0
 14 19  4  0
 17 18  4  0
 17 24  4  0
 19 23  4  0
 20 24  4  0
 23 26  1  0
M  END
$$$$

 Created by Python create_sdf_string function

 26 34  0  0  0  0  0  0  0  0999 V2000
    9.9414   -1.8468   23.5780 C   0  0  0  0  0  0  0  0  0  0  0  0
   10.0456   -4.4228   16.5856 C   0  0  0  0  0  0  0  0  0  0  0  0
   10.2111   -4.3490   17.8832 C   0  0  0  0  0  0  0  0  0  0  0  0
    8.5510    1.5058   25.4110 N   0  0  0  0  0  0  0  0  0  0  0  0
    6.8270   -7.5679   17.8951 C   0  0  0  0  0  0  0  0  0  0  0  0
    6.0757   -8.4876   16.2513 N   0  0  0  0  0  0  0  0  0  0  0  0
   10.9815   -2.7729   19.5902 C   0  0  0  0  0  0  0  0  0  0  0  0
    9.6080   -0.6979   24.2950 C   0  0  0  0  0  0  0  0  0  0  0  0
    7.3446   -7.1489   17.0290 C   0  0  0  0  0  0  0  0  0  0  0  0
    9.6021    0.4517   23.5853 C   0  0  0  0  0  0  0  0  0  0  0  0
    8.5738    0.3729   26.2115 C   0  0  0  0  0  0  0  0  0  0  0  0
   10.3850   -1.9085   22.3103 Se  0  0  0  0  0  0  0  0  0  0  0  0
    9.9088   -4.8270   20.1645 C   0  0  0  0  0  0  0  0  0  0  0  0
   10.0185   -3.2065   24.0815 F   0  0  0  0  0  0  0  0  0  0  0  0
    7.0463   -7.5948   15.7968 N   0  0  0  0  0  0  0  0  0  0  0  0
    5.8025   -8.2917   17.3826 O   0  0  0  0  0  0  0  0  0  0  0  0
    8.4337   -6.1787   17.1688 C   0  0  0  0  0  0  0  0  0  0  0  0
   10.1907   -4.0239   23.0352 O   0  0  0  0  0  0  0  0  0  0  0  0
    9.7138   -4.9309   18.7648 C   0  0  0  0  0  0  0  0  0  0  0  0
    9.1015    1.5559   24.1518 C   0  0  0  0  0  0  0  0  0  0  0  0
   10.9318   -3.0585   18.3042 N   0  0  0  0  0  0  0  0  0  0  0  0
   10.3904   -3.2903   21.9203 C   0  0  0  0  0  0  0  0  0  0  0  0
    8.9157   -5.9744   18.5109 P   0  0  0  0  0  0  0  0  0  0  0  0
    9.1224   -0.7382   25.5409 C   0  0  0  0  0  0  0  0  0  0  0  0
   10.4622   -3.4008   20.4801 C   0  0  0  0  0  0  0  0  0  0  0  0
    9.0744   -5.3232   16.2084 He  0  0  0  0  0  0  0  0  0  0  0  0
  1  8  1  0
  1 12  4  0
  1 14  4  0
  2  3  4  0
  3 19  4  0
  3 21  4  0
  4 11  4  0
  4 16  2  0
  4 20  4  0
  5  9  4  0
  5 12  2  0
  5 16  4  0
  5 20  3  0
  6 15  4  0
  6 16  4  0
  7 21  4  0
  7 25  4  0
  8 10  4  0
  8 24  4  0
  9 15  4  0
  9 17  1  0
  9 19  1  0
 10 20  4  0
 11 24  4  0
 12 22  4  0
 13 15  4  0
 13 19  4  0
 13 25  4  0
 14 18  4  0
 15 25  2  0
 17 23  4  0
 18 22  4  0
 19 23  4  0
 22 25  1  0
M  END
$$$$

 Created by Python create_sdf_string function

 26 30  0  0  0  0  0  0  0  0999 V2000
    9.9740   -1.8725   23.6071 C   0  0  0  0  0  0  0  0  0  0  0  0
    9.9844   -4.4112   16.5489 C   0  0  0  0  0  0  0  0  0  0  0  0
   10.2293   -4.1526   17.8862 C   0  0  0  0  0  0  0  0  0  0  0  0
    8.5684    1.5439   25.4397 N   0  0  0  0  0  0  0  0  0  0  0  0
    6.6665   -7.6296   17.9556 C   0  0  0  0  0  0  0  0  0  0  0  0
    6.0570   -8.4169   16.1309 N   0  0  0  0  0  0  0  0  0  0  0  0
   11.0321   -2.7590   19.5795 C   0  0  0  0  0  0  0  0  0  0  0  0
    9.5593   -0.7023   24.2838 C   0  0  0  0  0  0  0  0  0  0  0  0
    7.4528   -7.0860   17.0025 C   0  0  0  0  0  0  0  0  0  0  0  0
    9.6041    0.4887   23.5652 C   0  0  0  0  0  0  0  0  0  0  0  0
    8.5824    0.3839   26.1707 C   0  0  0  0  0  0  0  0  0  0  0  0
   10.3551   -1.9388   22.3159 N   0  0  0  0  0  0  0  0  0  0  0  0
    9.9127   -4.7448   20.1798 C   0  0  0  0  0  0  0  0  0  0  0  0
    9.9990   -3.1450   24.0604 N   0  0  0  0  0  0  0  0  0  0  0  0
    7.0421   -7.5983   15.8631 N   0  0  0  0  0  0  0  0  0  0  0  0
    5.7984   -8.4080   17.3885 N   0  0  0  0  0  0  0  0  0  0  0  0
    8.4791   -6.1641   17.1981 C   0  0  0  0  0  0  0  0  0  0  0  0
    9.0963   -5.4035   16.2179 C   0  0  0  0  0  0  0  0  0  0  0  0
   10.2460   -4.0090   22.9843 O   0  0  0  0  0  0  0  0  0  0  0  0
    9.6736   -4.9951   18.8464 C   0  0  0  0  0  0  0  0  0  0  0  0
    9.0719    1.6179   24.1784 C   0  0  0  0  0  0  0  0  0  0  0  0
   10.9440   -3.0886   18.2607 N   0  0  0  0  0  0  0  0  0  0  0  0
   10.3904   -3.1919   21.9056 C   0  0  0  0  0  0  0  0  0  0  0  0
    8.8792   -5.9938   18.4743 N   0  0  0  0  0  0  0  0  0  0  0  0
    9.1014   -0.7804   25.5945 C   0  0  0  0  0  0  0  0  0  0  0  0
   10.4736   -3.5786   20.5647 C   0  0  0  0  0  0  0  0  0  0  0  0
  1  8  1  0
  1 12  4  0
  1 14  4  0
  2  3  4  0
  2 18  4  0
  3 20  4  0
  3 22  4  0
  4 11  4  0
  4 21  4  0
  5  9  4  0
  5 16  4  0
  6 15  4  0
  6 16  4  0
  7 22  4  0
  7 26  4  0
  8 10  4  0
  8 25  4  0
  9 15  4  0
  9 17  1  0
 10 21  4  0
 11 25  4  0
 12 23  4  0
 13 20  4  0
 13 26  4  0
 14 19  4  0
 17 18  4  0
 17 24  4  0
 19 23  4  0
 20 24  4  0
 23 26  1  0
M  END
$$$$

 Created by Python create_sdf_string function

 26 35  0  0  0  0  0  0  0  0999 V2000
    9.9571   -1.8315   23.5911 C   0  0  0  0  0  0  0  0  0  0  0  0
   10.0013   -4.4360   16.5570 C   0  0  0  0  0  0  0  0  0  0  0  0
   10.1889   -4.1270   17.9263 C   0  0  0  0  0  0  0  0  0  0  0  0
    8.6592    1.6107   25.2673 N   0  0  0  0  0  0  0  0  0  0  0  0
    6.6780   -7.5702   17.9062 C   0  0  0  0  0  0  0  0  0  0  0  0
    6.0245   -8.3482   16.0917 N   0  0  0  0  0  0  0  0  0  0  0  0
   11.0509   -2.8512   19.4877 C   0  0  0  0  0  0  0  0  0  0  0  0
    9.6306   -0.5944   24.1670 C   0  0  0  0  0  0  0  0  0  0  0  0
    7.4747   -7.0818   17.0265 C   0  0  0  0  0  0  0  0  0  0  0  0
    9.5428    0.5004   23.6152 C   0  0  0  0  0  0  0  0  0  0  0  0
    8.4611    0.3442   26.2186 C   0  0  0  0  0  0  0  0  0  0  0  0
   10.2873   -1.8611   22.3291 N   0  0  0  0  0  0  0  0  0  0  0  0
    9.8965   -4.7067   20.2649 C   0  0  0  0  0  0  0  0  0  0  0  0
    9.9915   -3.1112   24.0592 N   0  0  0  0  0  0  0  0  0  0  0  0
    7.1171   -7.5170   15.9103 N   0  0  0  0  0  0  0  0  0  0  0  0
    5.8281   -8.3471   17.3281 N   0  0  0  0  0  0  0  0  0  0  0  0
    8.5560   -6.1511   17.2244 C   0  0  0  0  0  0  0  0  0  0  0  0
    9.1635   -5.2355   16.1538 C   0  0  0  0  0  0  0  0  0  0  0  0
   10.2710   -3.9873   22.9453 O   0  0  0  0  0  0  0  0  0  0  0  0
    9.6987   -5.0656   18.8263 C   0  0  0  0  0  0  0  0  0  0  0  0
    9.1041    1.5695   24.1958 C   0  0  0  0  0  0  0  0  0  0  0  0
   10.9454   -3.1000   18.2291 N   0  0  0  0  0  0  0  0  0  0  0  0
   10.5179   -3.1212   21.8679 C   0  0  0  0  0  0  0  0  0  0  0  0
    8.8579   -6.0263   18.4337 N   0  0  0  0  0  0  0  0  0  0  0  0
    9.0426   -0.7109   25.6209 C   0  0  0  0  0  0  0  0  0  0  0  0
   10.4171   -3.4826   20.5314 C   0  0  0  0  0  0  0  0  0  0  0  0
  1  7  1  0
  1  8  1  0
  1 12  4  0
  1 14  4  0
  2  3  4  0
  2 18  4  0
  3 16  2  0
  3 20  4  0
  3 22  2  0
  4 11  4  0
  4 14  1  0
  4 21  4  0
  5  9  4  0
  5 16  4  0
  6 15  4  0
  6 16  4  0
  6 19  4  0
  7 22  4  0
  7 26  4  0
  8 10  4  0
  8 25  4  0
  9 15  4  0
  9 17  1  0
  9 18  4  0
 10 21  4  0
 11 25  4  0
 12 23  4  0
 13 20  4  0
 13 26  4  0
 14 19  4  0
 17 18  4  0
 17 24  4  0
 19 23  4  0
 20 24  4  0
 23 26  1  0
M  END
$$$$

 Created by Python create_sdf_string function

 26 30  0  0  0  0  0  0  0  0999 V2000
    9.9563   -1.8442   23.5608 C   0  0  0  0  0  0  0  0  0  0  0  0
    9.9918   -4.3758   16.5404 C   0  0  0  0  0  0  0  0  0  0  0  0
   10.2287   -4.1431   17.9014 C   0  0  0  0  0  0  0  0  0  0  0  0
    8.5655    1.5817   25.4307 N   0  0  0  0  0  0  0  0  0  0  0  0
    6.6843   -7.5990   17.9374 C   0  0  0  0  0  0  0  0  0  0  0  0
    6.0855   -8.3189   16.0760 N   0  0  0  0  0  0  0  0  0  0  0  0
   11.0537   -2.7688   19.5621 C   0  0  0  0  0  0  0  0  0  0  0  0
    9.5250   -0.6655   24.2542 C   0  0  0  0  0  0  0  0  0  0  0  0
    7.4843   -7.0481   17.0001 C   0  0  0  0  0  0  0  0  0  0  0  0
    9.5915    0.5244   23.5698 C   0  0  0  0  0  0  0  0  0  0  0  0
    8.5197    0.4233   26.1573 C   0  0  0  0  0  0  0  0  0  0  0  0
   10.3395   -1.8692   22.2868 N   0  0  0  0  0  0  0  0  0  0  0  0
    9.8944   -4.7251   20.2195 C   0  0  0  0  0  0  0  0  0  0  0  0
   10.0071   -3.0804   24.0442 N   0  0  0  0  0  0  0  0  0  0  0  0
    7.1147   -7.5102   15.8593 N   0  0  0  0  0  0  0  0  0  0  0  0
    5.8197   -8.3517   17.3379 N   0  0  0  0  0  0  0  0  0  0  0  0
    8.5207   -6.1262   17.1946 C   0  0  0  0  0  0  0  0  0  0  0  0
    9.1340   -5.3567   16.1990 C   0  0  0  0  0  0  0  0  0  0  0  0
   10.2930   -3.9490   22.9442 O   0  0  0  0  0  0  0  0  0  0  0  0
    9.6626   -4.9849   18.8718 C   0  0  0  0  0  0  0  0  0  0  0  0
    9.0861    1.6531   24.1936 C   0  0  0  0  0  0  0  0  0  0  0  0
   10.9596   -3.0791   18.2587 N   0  0  0  0  0  0  0  0  0  0  0  0
   10.4117   -3.1386   21.8891 C   0  0  0  0  0  0  0  0  0  0  0  0
    8.8816   -5.9838   18.4807 N   0  0  0  0  0  0  0  0  0  0  0  0
    9.0503   -0.7531   25.5609 C   0  0  0  0  0  0  0  0  0  0  0  0
   10.4933   -3.5406   20.5477 C   0  0  0  0  0  0  0  0  0  0  0  0
  1  8  1  0
  1 12  4  0
  1 14  4  0
  2  3  4  0
  2 18  4  0
  3 20  4  0
  3 22  4  0
  4 11  4  0
  4 21  4  0
  5  9  4  0
  5 16  4  0
  6 15  4  0
  6 16  4  0
  7 22  4  0
  7 26  4  0
  8 10  4  0
  8 25  4  0
  9 15  4  0
  9 17  1  0
 10 21  4  0
 11 25  4  0
 12 23  4  0
 13 20  4  0
 13 26  4  0
 14 19  4  0
 17 18  4  0
 17 24  4  0
 19 23  4  0
 20 24  4  0
 23 26  1  0
M  END
$$$$

 Created by Python create_sdf_string function

 26 31  0  0  0  0  0  0  0  0999 V2000
    9.9713   -1.8183   23.5700 C   0  0  0  0  0  0  0  0  0  0  0  0
   10.1362   -4.3803   16.4953 C   0  0  0  0  0  0  0  0  0  0  0  0
    8.5736    1.4945   25.4496 N   0  0  0  0  0  0  0  0  0  0  0  0
    6.6496   -7.6284   17.8430 C   0  0  0  0  0  0  0  0  0  0  0  0
    6.0171   -8.2930   15.9795 N   0  0  0  0  0  0  0  0  0  0  0  0
   11.1360   -2.7191   19.5546 C   0  0  0  0  0  0  0  0  0  0  0  0
    9.5563   -0.7990   24.2352 C   0  0  0  0  0  0  0  0  0  0  0  0
    7.5384   -6.9573   17.0564 C   0  0  0  0  0  0  0  0  0  0  0  0
    9.6325    0.4997   23.4841 C   0  0  0  0  0  0  0  0  0  0  0  0
    8.5425    0.4230   26.1825 P   0  0  0  0  0  0  0  0  0  0  0  0
   10.3897   -1.9214   22.3226 N   0  0  0  0  0  0  0  0  0  0  0  0
    9.8827   -4.7461   20.1878 C   0  0  0  0  0  0  0  0  0  0  0  0
   10.0372   -3.0882   24.1193 N   0  0  0  0  0  0  0  0  0  0  0  0
    7.0342   -7.4475   15.8935 N   0  0  0  0  0  0  0  0  0  0  0  0
    5.7243   -8.4175   17.2748 N   0  0  0  0  0  0  0  0  0  0  0  0
    8.5882   -6.1756   17.0556 C   0  0  0  0  0  0  0  0  0  0  0  0
    9.1374   -5.3563   16.1626 C   0  0  0  0  0  0  0  0  0  0  0  0
   10.2322   -3.9949   22.9381 O   0  0  0  0  0  0  0  0  0  0  0  0
    9.6861   -4.9366   18.9067 C   0  0  0  0  0  0  0  0  0  0  0  0
    9.0941    1.7272   24.1753 C   0  0  0  0  0  0  0  0  0  0  0  0
   10.9823   -3.0407   18.2609 N   0  0  0  0  0  0  0  0  0  0  0  0
   10.4613   -3.1616   21.9078 C   0  0  0  0  0  0  0  0  0  0  0  0
    8.7967   -5.9247   18.5059 N   0  0  0  0  0  0  0  0  0  0  0  0
    8.9918   -0.8048   25.5324 C   0  0  0  0  0  0  0  0  0  0  0  0
   10.6135   -3.5344   20.5273 C   0  0  0  0  0  0  0  0  0  0  0  0
   10.2110   -4.0993   17.9176 He  0  0  0  0  0  0  0  0  0  0  0  0
  1  7  1  0
  1 11  4  0
  1 13  4  0
  2 17  4  0
  3 10  4  0
  3 20  4  0
  4  8  4  0
  4 15  4  0
  5 14  4  0
  5 15  4  0
  6 12  4  0
  6 21  4  0
  6 25  4  0
  7  9  4  0
  7 24  4  0
  8 14  4  0
  8 16  1  0
  9 20  4  0
 10 24  4  0
 11 13  4  0
 11 22  4  0
 12 19  4  0
 12 25  4  0
 13 18  4  0
 13 22  1  0
 16 17  4  0
 16 23  4  0
 18 22  4  0
 19 23  4  0
 22 25  1  0
 23 25  1  0
M  END
$$$$

 Created by Python create_sdf_string function

 26 30  0  0  0  0  0  0  0  0999 V2000
    9.9800   -1.8657   23.5639 C   0  0  0  0  0  0  0  0  0  0  0  0
   10.0665   -4.3698   16.5164 C   0  0  0  0  0  0  0  0  0  0  0  0
   10.2669   -4.1023   17.8817 C   0  0  0  0  0  0  0  0  0  0  0  0
    8.5810    1.5440   25.4593 N   0  0  0  0  0  0  0  0  0  0  0  0
    6.6609   -7.6337   17.8773 C   0  0  0  0  0  0  0  0  0  0  0  0
    6.0360   -8.2721   15.9868 N   0  0  0  0  0  0  0  0  0  0  0  0
   11.1231   -2.7466   19.5764 C   0  0  0  0  0  0  0  0  0  0  0  0
    9.5260   -0.6799   24.2481 C   0  0  0  0  0  0  0  0  0  0  0  0
    7.4718   -7.0231   16.9656 C   0  0  0  0  0  0  0  0  0  0  0  0
    9.6052    0.5191   23.5424 C   0  0  0  0  0  0  0  0  0  0  0  0
    8.5275    0.3801   26.1625 C   0  0  0  0  0  0  0  0  0  0  0  0
   10.4042   -1.9189   22.3082 N   0  0  0  0  0  0  0  0  0  0  0  0
    9.9150   -4.7070   20.1906 C   0  0  0  0  0  0  0  0  0  0  0  0
   10.0062   -3.0791   24.0471 N   0  0  0  0  0  0  0  0  0  0  0  0
    7.0668   -7.4348   15.8316 N   0  0  0  0  0  0  0  0  0  0  0  0
    5.7708   -8.3829   17.2672 N   0  0  0  0  0  0  0  0  0  0  0  0
    8.5255   -6.0925   17.1820 C   0  0  0  0  0  0  0  0  0  0  0  0
    9.1974   -5.3684   16.1827 C   0  0  0  0  0  0  0  0  0  0  0  0
   10.2766   -3.9692   22.9641 O   0  0  0  0  0  0  0  0  0  0  0  0
    9.6683   -4.9398   18.8576 C   0  0  0  0  0  0  0  0  0  0  0  0
    9.0912    1.6754   24.1947 C   0  0  0  0  0  0  0  0  0  0  0  0
   10.9957   -3.0427   18.2550 N   0  0  0  0  0  0  0  0  0  0  0  0
   10.4429   -3.1697   21.9032 C   0  0  0  0  0  0  0  0  0  0  0  0
    8.8490   -5.9144   18.4720 N   0  0  0  0  0  0  0  0  0  0  0  0
    9.0124   -0.7888   25.5427 C   0  0  0  0  0  0  0  0  0  0  0  0
   10.5332   -3.5468   20.5530 C   0  0  0  0  0  0  0  0  0  0  0  0
  1  8  1  0
  1 12  4  0
  1 14  4  0
  2  3  4  0
  2 18  4  0
  3 20  4  0
  3 22  4  0
  4 11  4  0
  4 21  4  0
  5  9  4  0
  5 16  4  0
  6 15  4  0
  6 16  4  0
  7 22  4  0
  7 26  4  0
  8 10  4  0
  8 25  4  0
  9 15  4  0
  9 17  1  0
 10 21  4  0
 11 25  4  0
 12 23  4  0
 13 20  4  0
 13 26  4  0
 14 19  4  0
 17 18  4  0
 17 24  4  0
 19 23  4  0
 20 24  4  0
 23 26  1  0
M  END
$$$$

 Created by Python create_sdf_string function

 26 36  0  0  0  0  0  0  0  0999 V2000
   10.0795   -1.9476   23.5874 C   0  0  0  0  0  0  0  0  0  0  0  0
   10.0269   -4.3979   16.5402 C   0  0  0  0  0  0  0  0  0  0  0  0
   10.2940   -4.1802   17.8727 C   0  0  0  0  0  0  0  0  0  0  0  0
    8.6144    1.6280   25.4106 N   0  0  0  0  0  0  0  0  0  0  0  0
    6.6683   -7.6505   17.8503 C   0  0  0  0  0  0  0  0  0  0  0  0
    6.0136   -8.1862   16.0237 N   0  0  0  0  0  0  0  0  0  0  0  0
   11.1113   -2.7782   19.5796 C   0  0  0  0  0  0  0  0  0  0  0  0
    9.5604   -0.6354   24.2604 C   0  0  0  0  0  0  0  0  0  0  0  0
    7.4543   -7.0234   16.9655 C   0  0  0  0  0  0  0  0  0  0  0  0
    9.6281    0.4859   23.5467 C   0  0  0  0  0  0  0  0  0  0  0  0
    8.5615    0.3744   26.0899 C   0  0  0  0  0  0  0  0  0  0  0  0
   10.4514   -1.9397   22.3380 N   0  0  0  0  0  0  0  0  0  0  0  0
    9.8158   -4.7308   20.1825 C   0  0  0  0  0  0  0  0  0  0  0  0
   10.0636   -3.0660   24.0123 N   0  0  0  0  0  0  0  0  0  0  0  0
    7.1252   -7.4156   15.7994 N   0  0  0  0  0  0  0  0  0  0  0  0
    5.7794   -8.4069   17.3427 N   0  0  0  0  0  0  0  0  0  0  0  0
    8.4843   -6.1745   17.1431 C   0  0  0  0  0  0  0  0  0  0  0  0
    9.1909   -5.3511   16.2408 C   0  0  0  0  0  0  0  0  0  0  0  0
   10.2983   -3.9387   22.8753 O   0  0  0  0  0  0  0  0  0  0  0  0
    9.6971   -4.9153   18.8848 C   0  0  0  0  0  0  0  0  0  0  0  0
    9.0333    1.6046   24.1609 C   0  0  0  0  0  0  0  0  0  0  0  0
   10.9244   -2.9533   18.2357 N   0  0  0  0  0  0  0  0  0  0  0  0
   10.4888   -3.0987   21.8754 C   0  0  0  0  0  0  0  0  0  0  0  0
    8.8385   -5.9597   18.3861 N   0  0  0  0  0  0  0  0  0  0  0  0
    9.0215   -0.8309   25.5600 C   0  0  0  0  0  0  0  0  0  0  0  0
   10.5155   -3.5886   20.6170 C   0  0  0  0  0  0  0  0  0  0  0  0
  1  8  1  0
  1 12  4  0
  1 14  4  0
  2  3  4  0
  2 18  4  0
  3  6  2  0
  3 22  4  0
  4 11  4  0
  4 21  4  0
  5  9  4  0
  5 16  4  0
  6 11  2  0
  6 15  4  0
  6 16  4  0
  7 22  4  0
  7 26  4  0
  8 10  4  0
  8 16  3  0
  8 25  4  0
  9 15  4  0
  9 17  1  0
  9 18  4  0
 10 21  4  0
 11 25  4  0
 12 23  4  0
 13 16  3  0
 13 20  4  0
 13 26  2  0
 14 19  4  0
 17 18  4  0
 17 24  4  0
 18 24  3  0
 19 23  4  0
 20 24  4  0
 21 22  1  0
 23 26  1  0
M  END
$$$$

 Created by Python create_sdf_string function

 26 30  0  0  0  0  0  0  0  0999 V2000
   10.0346   -1.8629   23.5691 C   0  0  0  0  0  0  0  0  0  0  0  0
   10.0340   -4.3985   16.5522 C   0  0  0  0  0  0  0  0  0  0  0  0
   10.2584   -4.0988   17.8803 C   0  0  0  0  0  0  0  0  0  0  0  0
    8.5897    1.5557   25.4059 N   0  0  0  0  0  0  0  0  0  0  0  0
    6.6905   -7.6432   17.8712 C   0  0  0  0  0  0  0  0  0  0  0  0
    6.0511   -8.2147   16.0009 N   0  0  0  0  0  0  0  0  0  0  0  0
   11.1069   -2.7412   19.5880 C   0  0  0  0  0  0  0  0  0  0  0  0
    9.5667   -0.6872   24.2478 C   0  0  0  0  0  0  0  0  0  0  0  0
    7.4670   -7.0371   16.9442 C   0  0  0  0  0  0  0  0  0  0  0  0
    9.6160    0.4942   23.5385 C   0  0  0  0  0  0  0  0  0  0  0  0
    8.5482    0.3757   26.1272 C   0  0  0  0  0  0  0  0  0  0  0  0
   10.4544   -1.8911   22.3214 N   0  0  0  0  0  0  0  0  0  0  0  0
    9.8860   -4.6919   20.1572 C   0  0  0  0  0  0  0  0  0  0  0  0
   10.0613   -3.0940   24.0364 N   0  0  0  0  0  0  0  0  0  0  0  0
    7.0804   -7.4186   15.7713 N   0  0  0  0  0  0  0  0  0  0  0  0
    5.8100   -8.3602   17.2787 N   0  0  0  0  0  0  0  0  0  0  0  0
    8.4989   -6.1272   17.1738 C   0  0  0  0  0  0  0  0  0  0  0  0
    9.1718   -5.3892   16.2204 C   0  0  0  0  0  0  0  0  0  0  0  0
   10.3110   -3.9416   22.9239 O   0  0  0  0  0  0  0  0  0  0  0  0
    9.6617   -4.9432   18.8369 C   0  0  0  0  0  0  0  0  0  0  0  0
    9.0783    1.6329   24.1331 C   0  0  0  0  0  0  0  0  0  0  0  0
   10.9825   -3.0313   18.2629 N   0  0  0  0  0  0  0  0  0  0  0  0
   10.4587   -3.1398   21.8916 C   0  0  0  0  0  0  0  0  0  0  0  0
    8.8506   -5.9319   18.4498 N   0  0  0  0  0  0  0  0  0  0  0  0
    9.0497   -0.7986   25.5363 C   0  0  0  0  0  0  0  0  0  0  0  0
   10.5081   -3.5464   20.5437 C   0  0  0  0  0  0  0  0  0  0  0  0
  1  8  1  0
  1 12  4  0
  1 14  4  0
  2  3  4  0
  2 18  4  0
  3 20  4  0
  3 22  4  0
  4 11  4  0
  4 21  4  0
  5  9  4  0
  5 16  4  0
  6 15  4  0
  6 16  4  0
  7 22  4  0
  7 26  4  0
  8 10  4  0
  8 25  4  0
  9 15  4  0
  9 17  1  0
 10 21  4  0
 11 25  4  0
 12 23  4  0
 13 20  4  0
 13 26  4  0
 14 19  4  0
 17 18  4  0
 17 24  4  0
 19 23  4  0
 20 24  4  0
 23 26  1  0
M  END
$$$$

 Created by Python create_sdf_string function

 26 33  0  0  0  0  0  0  0  0999 V2000
   10.0681   -1.8139   23.5682 C   0  0  0  0  0  0  0  0  0  0  0  0
   10.2256   -4.1474   17.8544 C   0  0  0  0  0  0  0  0  0  0  0  0
    8.5156    1.5853   25.4305 N   0  0  0  0  0  0  0  0  0  0  0  0
    6.6973   -7.5909   17.8908 C   0  0  0  0  0  0  0  0  0  0  0  0
    6.0410   -8.2683   16.0343 N   0  0  0  0  0  0  0  0  0  0  0  0
   11.0251   -2.7242   19.5934 C   0  0  0  0  0  0  0  0  0  0  0  0
    9.5693   -0.7200   24.2850 C   0  0  0  0  0  0  0  0  0  0  0  0
    7.4231   -7.0770   16.8720 C   0  0  0  0  0  0  0  0  0  0  0  0
    9.6164    0.3912   23.5432 C   0  0  0  0  0  0  0  0  0  0  0  0
    8.5521    0.4400   26.2127 C   0  0  0  0  0  0  0  0  0  0  0  0
   10.3858   -1.8189   22.3033 N   0  0  0  0  0  0  0  0  0  0  0  0
    9.8822   -4.8002   20.2320 C   0  0  0  0  0  0  0  0  0  0  0  0
   10.0502   -3.0808   24.0981 N   0  0  0  0  0  0  0  0  0  0  0  0
    7.0856   -7.4382   15.6760 N   0  0  0  0  0  0  0  0  0  0  0  0
    5.7935   -8.4317   17.2936 N   0  0  0  0  0  0  0  0  0  0  0  0
    8.4630   -6.1473   17.1045 C   0  0  0  0  0  0  0  0  0  0  0  0
    9.1951   -5.3940   16.1959 C   0  0  0  0  0  0  0  0  0  0  0  0
   10.2704   -3.9301   22.8995 O   0  0  0  0  0  0  0  0  0  0  0  0
    9.6892   -4.8975   18.8943 C   0  0  0  0  0  0  0  0  0  0  0  0
    9.0852    1.6397   24.0921 C   0  0  0  0  0  0  0  0  0  0  0  0
   10.8997   -3.0178   18.3351 N   0  0  0  0  0  0  0  0  0  0  0  0
   10.4965   -3.1805   21.9535 C   0  0  0  0  0  0  0  0  0  0  0  0
    8.8517   -5.8710   18.4322 N   0  0  0  0  0  0  0  0  0  0  0  0
    9.0199   -0.8088   25.5451 C   0  0  0  0  0  0  0  0  0  0  0  0
   10.5683   -3.4567   20.5280 C   0  0  0  0  0  0  0  0  0  0  0  0
    9.9513   -4.3853   16.4852 He  0  0  0  0  0  0  0  0  0  0  0  0
  1  7  1  0
  1 11  4  0
  1 13  4  0
  2  6  3  0
  2 19  4  0
  2 21  4  0
  3 10  4  0
  3 20  4  0
  4  8  4  0
  4 15  4  0
  5 14  4  0
  5 15  4  0
  6 21  4  0
  6 23  2  0
  6 25  4  0
  7  9  4  0
  7 24  4  0
  8 14  4  0
  8 16  1  0
  9 20  4  0
 10 18  4  0
 10 24  4  0
 11 22  4  0
 12 19  4  0
 12 25  4  0
 13 17  2  0
 13 18  4  0
 16 17  4  0
 16 23  4  0
 18 22  4  0
 19 23  4  0
 20 24  3  0
 22 25  1  0
M  END
$$$$

 Created by Python create_sdf_string function

 26 30  0  0  0  0  0  0  0  0999 V2000
   10.0107   -1.8485   23.5777 C   0  0  0  0  0  0  0  0  0  0  0  0
   10.0071   -4.3687   16.5541 C   0  0  0  0  0  0  0  0  0  0  0  0
   10.2179   -4.0910   17.8866 C   0  0  0  0  0  0  0  0  0  0  0  0
    8.5538    1.5693   25.4137 N   0  0  0  0  0  0  0  0  0  0  0  0
    6.6964   -7.6170   17.8541 C   0  0  0  0  0  0  0  0  0  0  0  0
    6.0632   -8.2734   15.9746 N   0  0  0  0  0  0  0  0  0  0  0  0
   11.0522   -2.7275   19.5769 C   0  0  0  0  0  0  0  0  0  0  0  0
    9.5472   -0.6794   24.2646 C   0  0  0  0  0  0  0  0  0  0  0  0
    7.4670   -7.0240   16.9089 C   0  0  0  0  0  0  0  0  0  0  0  0
    9.5983    0.5019   23.5411 C   0  0  0  0  0  0  0  0  0  0  0  0
    8.5435    0.3981   26.1706 C   0  0  0  0  0  0  0  0  0  0  0  0
   10.4185   -1.8691   22.2988 N   0  0  0  0  0  0  0  0  0  0  0  0
    9.9205   -4.7178   20.2003 C   0  0  0  0  0  0  0  0  0  0  0  0
   10.0496   -3.0713   24.0554 N   0  0  0  0  0  0  0  0  0  0  0  0
    7.0772   -7.4403   15.7313 N   0  0  0  0  0  0  0  0  0  0  0  0
    5.8314   -8.3856   17.2647 N   0  0  0  0  0  0  0  0  0  0  0  0
    8.4971   -6.1042   17.1474 C   0  0  0  0  0  0  0  0  0  0  0  0
    9.1715   -5.3635   16.1732 C   0  0  0  0  0  0  0  0  0  0  0  0
   10.3036   -3.9295   22.9594 O   0  0  0  0  0  0  0  0  0  0  0  0
    9.6546   -4.9375   18.8450 C   0  0  0  0  0  0  0  0  0  0  0  0
    9.0666    1.6422   24.1370 C   0  0  0  0  0  0  0  0  0  0  0  0
   10.9233   -3.0320   18.2575 N   0  0  0  0  0  0  0  0  0  0  0  0
   10.4516   -3.1304   21.9029 C   0  0  0  0  0  0  0  0  0  0  0  0
    8.8385   -5.9027   18.4346 N   0  0  0  0  0  0  0  0  0  0  0  0
    9.0471   -0.7711   25.5649 C   0  0  0  0  0  0  0  0  0  0  0  0
   10.5113   -3.5301   20.5630 C   0  0  0  0  0  0  0  0  0  0  0  0
  1  8  1  0
  1 12  4  0
  1 14  4  0
  2  3  4  0
  2 18  4  0
  3 20  4  0
  3 22  4  0
  4 11  4  0
  4 21  4  0
  5  9  4  0
  5 16  4  0
  6 15  4  0
  6 16  4  0
  7 22  4  0
  7 26  4  0
  8 10  4  0
  8 25  4  0
  9 15  4  0
  9 17  1  0
 10 21  4  0
 11 25  4  0
 12 23  4  0
 13 20  4  0
 13 26  4  0
 14 19  4  0
 17 18  4  0
 17 24  4  0
 19 23  4  0
 20 24  4  0
 23 26  1  0
M  END
$$$$

 Created by Python create_sdf_string function

 26 39  0  0  0  0  0  0  0  0999 V2000
   10.0055   -1.7930   23.5050 C   0  0  0  0  0  0  0  0  0  0  0  0
    9.9397   -4.3926   16.4728 C   0  0  0  0  0  0  0  0  0  0  0  0
   10.1932   -4.0706   17.9079 C   0  0  0  0  0  0  0  0  0  0  0  0
    8.5396    1.5587   25.3533 N   0  0  0  0  0  0  0  0  0  0  0  0
    6.6362   -7.6552   17.9609 C   0  0  0  0  0  0  0  0  0  0  0  0
    6.1155   -8.3395   15.9120 N   0  0  0  0  0  0  0  0  0  0  0  0
   10.9962   -2.7405   19.5867 C   0  0  0  0  0  0  0  0  0  0  0  0
    9.5623   -0.6481   24.2461 C   0  0  0  0  0  0  0  0  0  0  0  0
    7.3892   -6.9910   16.9229 C   0  0  0  0  0  0  0  0  0  0  0  0
    9.6187    0.5507   23.5481 C   0  0  0  0  0  0  0  0  0  0  0  0
    8.5123    0.3674   26.1302 C   0  0  0  0  0  0  0  0  0  0  0  0
   10.4841   -1.9321   22.1873 N   0  0  0  0  0  0  0  0  0  0  0  0
    9.8615   -4.7545   20.2222 C   0  0  0  0  0  0  0  0  0  0  0  0
   10.0417   -3.0257   23.9810 N   0  0  0  0  0  0  0  0  0  0  0  0
    7.0332   -7.4210   15.6926 N   0  0  0  0  0  0  0  0  0  0  0  0
    5.7274   -8.3948   17.3251 N   0  0  0  0  0  0  0  0  0  0  0  0
    8.5793   -6.0564   17.2541 C   0  0  0  0  0  0  0  0  0  0  0  0
    9.1521   -5.3766   16.1573 C   0  0  0  0  0  0  0  0  0  0  0  0
   10.2514   -3.9207   23.0167 O   0  0  0  0  0  0  0  0  0  0  0  0
    9.7214   -4.8827   18.7747 C   0  0  0  0  0  0  0  0  0  0  0  0
    9.1505    1.6481   24.1497 C   0  0  0  0  0  0  0  0  0  0  0  0
   10.8535   -3.0767   18.2977 N   0  0  0  0  0  0  0  0  0  0  0  0
   10.4274   -3.1842   21.9458 I   0  0  0  0  0  0  0  0  0  0  0  0
    8.8177   -5.9603   18.4670 N   0  0  0  0  0  0  0  0  0  0  0  0
    8.9731   -0.7038   25.5201 C   0  0  0  0  0  0  0  0  0  0  0  0
   10.4085   -3.5514   20.5260 C   0  0  0  0  0  0  0  0  0  0  0  0
  1  8  1  0
  1 12  4  0
  1 14  4  0
  2  3  4  0
  2 18  4  0
  3  5  1  0
  3 20  4  0
  3 22  4  0
  4 11  4  0
  4 13  3  0
  4 21  4  0
  5  7  3  0
  5  8  2  0
  5  9  4  0
  5 16  4  0
  6 15  4  0
  6 16  4  0
  7 12  4  0
  7 22  4  0
  7 26  4  0
  8 10  4  0
  8 25  4  0
  9 15  4  0
  9 17  1  0
 10 21  4  0
 10 24  4  0
 11 25  4  0
 12 23  4  0
 13 20  4  0
 13 23  3  0
 13 26  4  0
 14 19  4  0
 17 18  4  0
 17 24  4  0
 19 21  4  0
 19 23  4  0
 20 24  4  0
 23 24  4  0
 23 26  1  0
M  END
$$$$

 Created by Python create_sdf_string function

 26 30  0  0  0  0  0  0  0  0999 V2000
   10.0089   -1.8217   23.5199 C   0  0  0  0  0  0  0  0  0  0  0  0
    9.9826   -4.3505   16.5223 C   0  0  0  0  0  0  0  0  0  0  0  0
   10.1942   -4.0950   17.8749 C   0  0  0  0  0  0  0  0  0  0  0  0
    8.5591    1.5711   25.3945 N   0  0  0  0  0  0  0  0  0  0  0  0
    6.6516   -7.6295   17.8760 C   0  0  0  0  0  0  0  0  0  0  0  0
    6.0855   -8.2942   15.9457 N   0  0  0  0  0  0  0  0  0  0  0  0
   11.0139   -2.7370   19.5748 C   0  0  0  0  0  0  0  0  0  0  0  0
    9.5482   -0.6428   24.2169 C   0  0  0  0  0  0  0  0  0  0  0  0
    7.4453   -7.0169   16.9463 C   0  0  0  0  0  0  0  0  0  0  0  0
    9.6364    0.5582   23.5401 C   0  0  0  0  0  0  0  0  0  0  0  0
    8.4966    0.3958   26.1077 C   0  0  0  0  0  0  0  0  0  0  0  0
   10.4383   -1.9046   22.2289 N   0  0  0  0  0  0  0  0  0  0  0  0
    9.8789   -4.7186   20.1836 C   0  0  0  0  0  0  0  0  0  0  0  0
   10.0182   -3.0370   24.0351 N   0  0  0  0  0  0  0  0  0  0  0  0
    7.0574   -7.4183   15.7511 N   0  0  0  0  0  0  0  0  0  0  0  0
    5.8023   -8.3873   17.2393 N   0  0  0  0  0  0  0  0  0  0  0  0
    8.4903   -6.0969   17.1794 C   0  0  0  0  0  0  0  0  0  0  0  0
    9.1270   -5.3598   16.1776 C   0  0  0  0  0  0  0  0  0  0  0  0
   10.2650   -3.9296   22.9997 O   0  0  0  0  0  0  0  0  0  0  0  0
    9.6402   -4.9422   18.8411 C   0  0  0  0  0  0  0  0  0  0  0  0
    9.1182    1.6824   24.1634 C   0  0  0  0  0  0  0  0  0  0  0  0
   10.8923   -3.0368   18.2644 N   0  0  0  0  0  0  0  0  0  0  0  0
   10.4130   -3.1659   21.8849 C   0  0  0  0  0  0  0  0  0  0  0  0
    8.8404   -5.9343   18.4589 N   0  0  0  0  0  0  0  0  0  0  0  0
    9.0098   -0.7511   25.4960 C   0  0  0  0  0  0  0  0  0  0  0  0
   10.4628   -3.5550   20.5575 C   0  0  0  0  0  0  0  0  0  0  0  0
  1  8  1  0
  1 12  4  0
  1 14  4  0
  2  3  4  0
  2 18  4  0
  3 20  4  0
  3 22  4  0
  4 11  4  0
  4 21  4  0
  5  9  4  0
  5 16  4  0
  6 15  4  0
  6 16  4  0
  7 22  4  0
  7 26  4  0
  8 10  4  0
  8 25  4  0
  9 15  4  0
  9 17  1  0
 10 21  4  0
 11 25  4  0
 12 23  4  0
 13 20  4  0
 13 26  4  0
 14 19  4  0
 17 18  4  0
 17 24  4  0
 19 23  4  0
 20 24  4  0
 23 26  1  0
M  END
$$$$

 Created by Python create_sdf_string function

 26 29  0  0  0  0  0  0  0  0999 V2000
    9.9951   -1.7962   23.4836 C   0  0  0  0  0  0  0  0  0  0  0  0
    9.9357   -4.3407   16.5489 C   0  0  0  0  0  0  0  0  0  0  0  0
   10.2810   -4.0953   17.8697 C   0  0  0  0  0  0  0  0  0  0  0  0
    8.5310    1.6204   25.4117 N   0  0  0  0  0  0  0  0  0  0  0  0
    6.6372   -7.6306   17.9393 C   0  0  0  0  0  0  0  0  0  0  0  0
    6.1712   -8.2812   15.9580 N   0  0  0  0  0  0  0  0  0  0  0  0
   11.0051   -2.7635   19.6047 C   0  0  0  0  0  0  0  0  0  0  0  0
    9.5737   -0.6225   24.2730 C   0  0  0  0  0  0  0  0  0  0  0  0
    7.4450   -6.9749   16.9325 C   0  0  0  0  0  0  0  0  0  0  0  0
    9.5923    0.5092   23.6111 C   0  0  0  0  0  0  0  0  0  0  0  0
    8.4468    0.4612   26.1422 C   0  0  0  0  0  0  0  0  0  0  0  0
   10.4577   -1.9230   22.1705 N   0  0  0  0  0  0  0  0  0  0  0  0
    9.8518   -4.7122   20.2039 C   0  0  0  0  0  0  0  0  0  0  0  0
   10.0398   -3.0633   24.0119 N   0  0  0  0  0  0  0  0  0  0  0  0
    6.9825   -7.3806   15.7595 N   0  0  0  0  0  0  0  0  0  0  0  0
    5.8089   -8.3211   17.2856 N   0  0  0  0  0  0  0  0  0  0  0  0
    8.4504   -6.1042   17.2013 C   0  0  0  0  0  0  0  0  0  0  0  0
    9.0616   -5.2898   16.2481 C   0  0  0  0  0  0  0  0  0  0  0  0
   10.3287   -3.9419   22.9952 O   0  0  0  0  0  0  0  0  0  0  0  0
    9.6717   -4.8823   18.7735 C   0  0  0  0  0  0  0  0  0  0  0  0
    9.1175    1.7073   24.1343 C   0  0  0  0  0  0  0  0  0  0  0  0
    8.8180   -6.0127   18.5305 N   0  0  0  0  0  0  0  0  0  0  0  0
    9.0039   -0.7636   25.5286 C   0  0  0  0  0  0  0  0  0  0  0  0
   10.4451   -3.5891   20.5567 C   0  0  0  0  0  0  0  0  0  0  0  0
   10.9313   -2.9919   18.2945 He  0  0  0  0  0  0  0  0  0  0  0  0
   10.3952   -3.1623   21.8963 He  0  0  0  0  0  0  0  0  0  0  0  0
  1  7  2  0
  1  8  1  0
  1 12  4  0
  1 14  4  0
  2  3  4  0
  2 18  4  0
  3 12  3  0
  3 20  4  0
  4 11  4  0
  4 21  4  0
  5  9  4  0
  5 11  2  0
  5 16  4  0
  6 10  4  0
  6 15  4  0
  6 16  4  0
  7 24  4  0
  8 10  4  0
  8 23  4  0
  9 15  4  0
  9 17  1  0
 11 23  4  0
 13 20  4  0
 13 24  4  0
 14 16  1  0
 14 19  4  0
 17 18  4  0
 17 22  4  0
 20 22  4  0
M  END
$$$$

 Created by Python create_sdf_string function

 26 30  0  0  0  0  0  0  0  0999 V2000
   10.0026   -1.8278   23.5159 C   0  0  0  0  0  0  0  0  0  0  0  0
    9.9600   -4.3263   16.5566 C   0  0  0  0  0  0  0  0  0  0  0  0
   10.2182   -4.0757   17.8826 C   0  0  0  0  0  0  0  0  0  0  0  0
    8.5395    1.6148   25.4101 N   0  0  0  0  0  0  0  0  0  0  0  0
    6.6720   -7.6105   17.8936 C   0  0  0  0  0  0  0  0  0  0  0  0
    6.1131   -8.2536   15.9684 N   0  0  0  0  0  0  0  0  0  0  0  0
   11.0595   -2.7096   19.5875 C   0  0  0  0  0  0  0  0  0  0  0  0
    9.5359   -0.6428   24.2353 C   0  0  0  0  0  0  0  0  0  0  0  0
    7.4291   -6.9914   16.9647 C   0  0  0  0  0  0  0  0  0  0  0  0
    9.6190    0.5644   23.5595 C   0  0  0  0  0  0  0  0  0  0  0  0
    8.4709    0.4206   26.1290 C   0  0  0  0  0  0  0  0  0  0  0  0
   10.4191   -1.8970   22.2109 N   0  0  0  0  0  0  0  0  0  0  0  0
    9.8734   -4.7068   20.1743 C   0  0  0  0  0  0  0  0  0  0  0  0
   10.0345   -3.0537   24.0274 N   0  0  0  0  0  0  0  0  0  0  0  0
    7.0454   -7.3640   15.7640 N   0  0  0  0  0  0  0  0  0  0  0  0
    5.8303   -8.3607   17.2533 N   0  0  0  0  0  0  0  0  0  0  0  0
    8.4584   -6.0787   17.2052 C   0  0  0  0  0  0  0  0  0  0  0  0
    9.0771   -5.3031   16.2346 C   0  0  0  0  0  0  0  0  0  0  0  0
   10.3048   -3.9250   22.9846 O   0  0  0  0  0  0  0  0  0  0  0  0
    9.6484   -4.9329   18.8412 C   0  0  0  0  0  0  0  0  0  0  0  0
    9.1060    1.7071   24.1574 C   0  0  0  0  0  0  0  0  0  0  0  0
   10.9570   -3.0112   18.2683 N   0  0  0  0  0  0  0  0  0  0  0  0
   10.4228   -3.1629   21.8760 C   0  0  0  0  0  0  0  0  0  0  0  0
    8.8399   -5.9311   18.4763 N   0  0  0  0  0  0  0  0  0  0  0  0
    9.0041   -0.7405   25.5248 C   0  0  0  0  0  0  0  0  0  0  0  0
   10.4746   -3.5449   20.5444 C   0  0  0  0  0  0  0  0  0  0  0  0
  1  8  1  0
  1 12  4  0
  1 14  4  0
  2  3  4  0
  2 18  4  0
  3 20  4  0
  3 22  4  0
  4 11  4  0
  4 21  4  0
  5  9  4  0
  5 16  4  0
  6 15  4  0
  6 16  4  0
  7 22  4  0
  7 26  4  0
  8 10  4  0
  8 25  4  0
  9 15  4  0
  9 17  1  0
 10 21  4  0
 11 25  4  0
 12 23  4  0
 13 20  4  0
 13 26  4  0
 14 19  4  0
 17 18  4  0
 17 24  4  0
 19 23  4  0
 20 24  4  0
 23 26  1  0
M  END
$$$$

 Created by Python create_sdf_string function

 26 36  0  0  0  0  0  0  0  0999 V2000
   10.0181   -1.8295   23.4945 C   0  0  0  0  0  0  0  0  0  0  0  0
    9.8850   -4.3154   16.5500 C   0  0  0  0  0  0  0  0  0  0  0  0
   10.1878   -4.0510   17.9279 C   0  0  0  0  0  0  0  0  0  0  0  0
    8.4876    1.5796   25.3466 N   0  0  0  0  0  0  0  0  0  0  0  0
    6.6735   -7.6386   17.8791 C   0  0  0  0  0  0  0  0  0  0  0  0
    6.0769   -8.2889   16.0047 N   0  0  0  0  0  0  0  0  0  0  0  0
   11.0942   -2.7288   19.6233 C   0  0  0  0  0  0  0  0  0  0  0  0
    9.4946   -0.6657   24.2453 C   0  0  0  0  0  0  0  0  0  0  0  0
    7.4034   -6.9546   16.9444 C   0  0  0  0  0  0  0  0  0  0  0  0
    9.5718    0.5487   23.5100 C   0  0  0  0  0  0  0  0  0  0  0  0
    8.4283    0.3651   26.0933 C   0  0  0  0  0  0  0  0  0  0  0  0
   10.4871   -1.9209   22.2422 N   0  0  0  0  0  0  0  0  0  0  0  0
    9.8510   -4.6725   20.1591 C   0  0  0  0  0  0  0  0  0  0  0  0
    9.9580   -3.1199   24.0626 N   0  0  0  0  0  0  0  0  0  0  0  0
    7.0471   -7.3906   15.7318 N   0  0  0  0  0  0  0  0  0  0  0  0
    5.8281   -8.3557   17.2736 N   0  0  0  0  0  0  0  0  0  0  0  0
    8.4073   -6.0857   17.2707 C   0  0  0  0  0  0  0  0  0  0  0  0
    9.0835   -5.3123   16.2397 C   0  0  0  0  0  0  0  0  0  0  0  0
   10.3819   -3.8937   22.9814 O   0  0  0  0  0  0  0  0  0  0  0  0
    9.6412   -4.9098   18.8460 C   0  0  0  0  0  0  0  0  0  0  0  0
    9.1363    1.7461   24.1674 C   0  0  0  0  0  0  0  0  0  0  0  0
   10.9636   -3.0001   18.2817 N   0  0  0  0  0  0  0  0  0  0  0  0
   10.4231   -3.1174   21.8581 C   0  0  0  0  0  0  0  0  0  0  0  0
    8.8382   -5.9352   18.5116 N   0  0  0  0  0  0  0  0  0  0  0  0
    9.0207   -0.7762   25.4881 C   0  0  0  0  0  0  0  0  0  0  0  0
   10.5104   -3.5066   20.5217 C   0  0  0  0  0  0  0  0  0  0  0  0
  1  8  1  0
  1  9  1  0
  1 12  4  0
  1 14  4  0
  1 18  3  0
  2  3  4  0
  2 18  4  0
  3 20  4  0
  3 22  4  0
  4 11  4  0
  4 21  4  0
  5 16  4  0
  6 15  4  0
  6 16  4  0
  7  9  3  0
  7 22  4  0
  7 26  4  0
  8 10  4  0
  8 25  4  0
  9 15  4  0
  9 17  1  0
 10 21  4  0
 11 25  4  0
 12 23  4  0
 12 24  4  0
 13 19  2  0
 13 20  4  0
 13 26  4  0
 14 19  4  0
 17 18  4  0
 17 24  4  0
 19 23  4  0
 19 25  2  0
 20 24  4  0
 23 26  1  0
 24 25  1  0
M  END
$$$$

 Created by Python create_sdf_string function

 26 30  0  0  0  0  0  0  0  0999 V2000
    9.9992   -1.8467   23.5119 C   0  0  0  0  0  0  0  0  0  0  0  0
    9.9192   -4.3011   16.5715 C   0  0  0  0  0  0  0  0  0  0  0  0
   10.2006   -4.0468   17.9011 C   0  0  0  0  0  0  0  0  0  0  0  0
    8.5111    1.5707   25.3760 N   0  0  0  0  0  0  0  0  0  0  0  0
    6.6791   -7.6221   17.8918 C   0  0  0  0  0  0  0  0  0  0  0  0
    6.0896   -8.2531   15.9767 N   0  0  0  0  0  0  0  0  0  0  0  0
   11.1051   -2.7078   19.5795 C   0  0  0  0  0  0  0  0  0  0  0  0
    9.5227   -0.6551   24.2059 C   0  0  0  0  0  0  0  0  0  0  0  0
    7.4303   -6.9942   16.9671 C   0  0  0  0  0  0  0  0  0  0  0  0
    9.6023    0.5544   23.5129 C   0  0  0  0  0  0  0  0  0  0  0  0
    8.4382    0.3784   26.0868 C   0  0  0  0  0  0  0  0  0  0  0  0
   10.4533   -1.8812   22.2425 N   0  0  0  0  0  0  0  0  0  0  0  0
    9.8782   -4.6633   20.1790 C   0  0  0  0  0  0  0  0  0  0  0  0
    9.9960   -3.0765   24.0220 N   0  0  0  0  0  0  0  0  0  0  0  0
    7.0487   -7.3814   15.7635 N   0  0  0  0  0  0  0  0  0  0  0  0
    5.8313   -8.3771   17.2570 N   0  0  0  0  0  0  0  0  0  0  0  0
    8.4431   -6.0668   17.2126 C   0  0  0  0  0  0  0  0  0  0  0  0
    9.0642   -5.2906   16.2466 C   0  0  0  0  0  0  0  0  0  0  0  0
   10.3309   -3.9032   22.9636 O   0  0  0  0  0  0  0  0  0  0  0  0
    9.6344   -4.8998   18.8634 C   0  0  0  0  0  0  0  0  0  0  0  0
    9.1108    1.7071   24.1454 C   0  0  0  0  0  0  0  0  0  0  0  0
   10.9621   -3.0030   18.2743 N   0  0  0  0  0  0  0  0  0  0  0  0
   10.4664   -3.1320   21.8805 C   0  0  0  0  0  0  0  0  0  0  0  0
    8.8202   -5.8922   18.4808 N   0  0  0  0  0  0  0  0  0  0  0  0
    8.9918   -0.7727   25.4893 C   0  0  0  0  0  0  0  0  0  0  0  0
   10.5090   -3.5190   20.5399 C   0  0  0  0  0  0  0  0  0  0  0  0
  1  8  1  0
  1 12  4  0
  1 14  4  0
  2  3  4  0
  2 18  4  0
  3 20  4  0
  3 22  4  0
  4 11  4  0
  4 21  4  0
  5  9  4  0
  5 16  4  0
  6 15  4  0
  6 16  4  0
  7 22  4  0
  7 26  4  0
  8 10  4  0
  8 25  4  0
  9 15  4  0
  9 17  1  0
 10 21  4  0
 11 25  4  0
 12 23  4  0
 13 20  4  0
 13 26  4  0
 14 19  4  0
 17 18  4  0
 17 24  4  0
 19 23  4  0
 20 24  4  0
 23 26  1  0
M  END
$$$$

 Created by Python create_sdf_string function

 26 31  0  0  0  0  0  0  0  0999 V2000
    9.9649   -1.8361   23.5225 C   0  0  0  0  0  0  0  0  0  0  0  0
    9.9160   -4.2855   16.5731 C   0  0  0  0  0  0  0  0  0  0  0  0
   10.1760   -4.0878   17.9051 C   0  0  0  0  0  0  0  0  0  0  0  0
    6.6833   -7.6398   17.8855 C   0  0  0  0  0  0  0  0  0  0  0  0
    6.1109   -8.2486   15.9877 N   0  0  0  0  0  0  0  0  0  0  0  0
   11.1415   -2.6592   19.6257 C   0  0  0  0  0  0  0  0  0  0  0  0
    9.5774   -0.6974   24.2232 C   0  0  0  0  0  0  0  0  0  0  0  0
    7.3808   -7.0192   16.9371 C   0  0  0  0  0  0  0  0  0  0  0  0
    9.5977    0.5610   23.5282 C   0  0  0  0  0  0  0  0  0  0  0  0
    8.4059    0.3903   26.1043 C   0  0  0  0  0  0  0  0  0  0  0  0
   10.4489   -1.8726   22.1853 N   0  0  0  0  0  0  0  0  0  0  0  0
    9.8333   -4.7007   20.1974 C   0  0  0  0  0  0  0  0  0  0  0  0
    9.9859   -3.0495   24.0224 N   0  0  0  0  0  0  0  0  0  0  0  0
    7.0582   -7.4000   15.7529 N   0  0  0  0  0  0  0  0  0  0  0  0
    5.8101   -8.3767   17.2758 N   0  0  0  0  0  0  0  0  0  0  0  0
    8.4457   -6.0727   17.1407 C   0  0  0  0  0  0  0  0  0  0  0  0
    9.0911   -5.3069   16.1974 C   0  0  0  0  0  0  0  0  0  0  0  0
   10.3970   -3.9204   23.0044 O   0  0  0  0  0  0  0  0  0  0  0  0
    9.6279   -4.8747   18.8627 C   0  0  0  0  0  0  0  0  0  0  0  0
    9.0976    1.6821   24.1899 C   0  0  0  0  0  0  0  0  0  0  0  0
   10.9333   -2.9845   18.2778 N   0  0  0  0  0  0  0  0  0  0  0  0
   10.4354   -3.1456   21.8867 C   0  0  0  0  0  0  0  0  0  0  0  0
    8.8046   -5.8894   18.4618 N   0  0  0  0  0  0  0  0  0  0  0  0
    9.0193   -0.7804   25.5259 C   0  0  0  0  0  0  0  0  0  0  0  0
   10.5905   -3.5114   20.5338 C   0  0  0  0  0  0  0  0  0  0  0  0
    8.5371    1.5944   25.4302 He  0  0  0  0  0  0  0  0  0  0  0  0
  1  7  1  0
  1 11  4  0
  1 13  4  0
  2  3  4  0
  2 17  4  0
  3 19  4  0
  3 21  4  0
  3 24  1  0
  4  8  4  0
  4 15  4  0
  5 14  4  0
  5 15  4  0
  6 16  2  0
  6 21  4  0
  6 25  4  0
  7  9  4  0
  7 24  4  0
  8 14  4  0
  8 16  1  0
  9 20  4  0
 10 12  2  0
 10 24  4  0
 11 22  4  0
 12 19  4  0
 12 25  4  0
 13 18  4  0
 16 17  4  0
 16 23  4  0
 18 22  4  0
 19 23  4  0
 22 25  1  0
M  END
$$$$

 Created by Python create_sdf_string function

 26 30  0  0  0  0  0  0  0  0999 V2000
    9.9919   -1.8262   23.5099 C   0  0  0  0  0  0  0  0  0  0  0  0
    9.9338   -4.2921   16.5791 C   0  0  0  0  0  0  0  0  0  0  0  0
   10.1977   -4.0385   17.9041 C   0  0  0  0  0  0  0  0  0  0  0  0
    8.5271    1.5861   25.4292 N   0  0  0  0  0  0  0  0  0  0  0  0
    6.6960   -7.6231   17.8691 C   0  0  0  0  0  0  0  0  0  0  0  0
    6.0958   -8.2496   15.9752 N   0  0  0  0  0  0  0  0  0  0  0  0
   11.1268   -2.6874   19.5858 C   0  0  0  0  0  0  0  0  0  0  0  0
    9.5288   -0.6472   24.2191 C   0  0  0  0  0  0  0  0  0  0  0  0
    7.4424   -6.9982   16.9413 C   0  0  0  0  0  0  0  0  0  0  0  0
    9.6088    0.5678   23.5415 C   0  0  0  0  0  0  0  0  0  0  0  0
    8.4431    0.3757   26.1103 C   0  0  0  0  0  0  0  0  0  0  0  0
   10.4283   -1.8617   22.2134 N   0  0  0  0  0  0  0  0  0  0  0  0
    9.8829   -4.6675   20.1888 C   0  0  0  0  0  0  0  0  0  0  0  0
   10.0130   -3.0524   24.0243 N   0  0  0  0  0  0  0  0  0  0  0  0
    7.0645   -7.3904   15.7526 N   0  0  0  0  0  0  0  0  0  0  0  0
    5.8405   -8.3749   17.2613 N   0  0  0  0  0  0  0  0  0  0  0  0
    8.4499   -6.0624   17.1673 C   0  0  0  0  0  0  0  0  0  0  0  0
    9.0897   -5.2860   16.2033 C   0  0  0  0  0  0  0  0  0  0  0  0
   10.3553   -3.8964   22.9946 O   0  0  0  0  0  0  0  0  0  0  0  0
    9.6229   -4.8927   18.8597 C   0  0  0  0  0  0  0  0  0  0  0  0
    9.1009    1.7004   24.1684 C   0  0  0  0  0  0  0  0  0  0  0  0
   10.9578   -2.9887   18.2777 N   0  0  0  0  0  0  0  0  0  0  0  0
   10.4778   -3.1331   21.8808 C   0  0  0  0  0  0  0  0  0  0  0  0
    8.7987   -5.8750   18.4490 N   0  0  0  0  0  0  0  0  0  0  0  0
    8.9975   -0.7599   25.5088 C   0  0  0  0  0  0  0  0  0  0  0  0
   10.5301   -3.5232   20.5453 C   0  0  0  0  0  0  0  0  0  0  0  0
  1  8  1  0
  1 12  4  0
  1 14  4  0
  2  3  4  0
  2 18  4  0
  3 20  4  0
  3 22  4  0
  4 11  4  0
  4 21  4  0
  5  9  4  0
  5 16  4  0
  6 15  4  0
  6 16  4  0
  7 22  4  0
  7 26  4  0
  8 10  4  0
  8 25  4  0
  9 15  4  0
  9 17  1  0
 10 21  4  0
 11 25  4  0
 12 23  4  0
 13 20  4  0
 13 26  4  0
 14 19  4  0
 17 18  4  0
 17 24  4  0
 19 23  4  0
 20 24  4  0
 23 26  1  0
M  END
$$$$

 Created by Python create_sdf_string function

 26 31  0  0  0  0  0  0  0  0999 V2000
   10.0078   -1.8561   23.4661 C   0  0  0  0  0  0  0  0  0  0  0  0
    9.9158   -4.2799   16.5972 C   0  0  0  0  0  0  0  0  0  0  0  0
   10.2206   -4.0741   17.8810 C   0  0  0  0  0  0  0  0  0  0  0  0
    8.4843    1.5600   25.3862 N   0  0  0  0  0  0  0  0  0  0  0  0
    6.1339   -8.2100   15.9697 N   0  0  0  0  0  0  0  0  0  0  0  0
   11.1156   -2.6998   19.5835 C   0  0  0  0  0  0  0  0  0  0  0  0
    9.5051   -0.6554   24.2387 C   0  0  0  0  0  0  0  0  0  0  0  0
    7.4368   -6.9455   16.9400 C   0  0  0  0  0  0  0  0  0  0  0  0
    9.6089    0.5360   23.5688 C   0  0  0  0  0  0  0  0  0  0  0  0
    8.4470    0.4138   26.1323 C   0  0  0  0  0  0  0  0  0  0  0  0
   10.3833   -1.9001   22.2125 N   0  0  0  0  0  0  0  0  0  0  0  0
    9.9001   -4.6720   20.2204 C   0  0  0  0  0  0  0  0  0  0  0  0
   10.0305   -3.0466   24.0125 N   0  0  0  0  0  0  0  0  0  0  0  0
    7.0746   -7.3705   15.7912 N   0  0  0  0  0  0  0  0  0  0  0  0
    5.7870   -8.3761   17.2564 N   0  0  0  0  0  0  0  0  0  0  0  0
    8.4642   -6.0824   17.1669 C   0  0  0  0  0  0  0  0  0  0  0  0
    9.0860   -5.2784   16.1498 C   0  0  0  0  0  0  0  0  0  0  0  0
   10.3805   -3.9045   22.9801 O   0  0  0  0  0  0  0  0  0  0  0  0
    9.6502   -4.9005   18.8364 C   0  0  0  0  0  0  0  0  0  0  0  0
    9.1405    1.6743   24.0844 C   0  0  0  0  0  0  0  0  0  0  0  0
   10.9781   -2.9891   18.3000 N   0  0  0  0  0  0  0  0  0  0  0  0
   10.4682   -3.1089   21.8865 C   0  0  0  0  0  0  0  0  0  0  0  0
    8.7928   -5.8894   18.4597 N   0  0  0  0  0  0  0  0  0  0  0  0
    9.0010   -0.7417   25.4999 C   0  0  0  0  0  0  0  0  0  0  0  0
   10.4859   -3.5053   20.5827 C   0  0  0  0  0  0  0  0  0  0  0  0
    6.6829   -7.6136   17.8746 He  0  0  0  0  0  0  0  0  0  0  0  0
  1  7  1  0
  1 11  4  0
  1 13  4  0
  2  3  4  0
  2 17  4  0
  3 19  4  0
  3 21  4  0
  4 10  4  0
  4 20  4  0
  4 22  2  0
  5 14  4  0
  5 15  4  0
  6 21  4  0
  6 25  4  0
  7  9  4  0
  7 14  3  0
  7 24  4  0
  8 14  4  0
  8 16  1  0
  9 20  4  0
 10 24  4  0
 11 22  4  0
 12 19  4  0
 12 25  4  0
 13 18  4  0
 13 21  4  0
 16 17  4  0
 16 23  4  0
 18 22  4  0
 19 23  4  0
 22 25  1  0
M  END
$$$$

 Created by Python create_sdf_string function

 26 30  0  0  0  0  0  0  0  0999 V2000
    9.9904   -1.8283   23.5042 C   0  0  0  0  0  0  0  0  0  0  0  0
    9.9452   -4.2845   16.5757 C   0  0  0  0  0  0  0  0  0  0  0  0
   10.2199   -4.0416   17.9016 C   0  0  0  0  0  0  0  0  0  0  0  0
    8.5219    1.5682   25.3668 N   0  0  0  0  0  0  0  0  0  0  0  0
    6.7071   -7.5909   17.8779 C   0  0  0  0  0  0  0  0  0  0  0  0
    6.1093   -8.2191   15.9710 N   0  0  0  0  0  0  0  0  0  0  0  0
   11.1176   -2.6931   19.5816 C   0  0  0  0  0  0  0  0  0  0  0  0
    9.5251   -0.6527   24.2162 C   0  0  0  0  0  0  0  0  0  0  0  0
    7.4589   -6.9711   16.9480 C   0  0  0  0  0  0  0  0  0  0  0  0
    9.6259    0.5396   23.5168 C   0  0  0  0  0  0  0  0  0  0  0  0
    8.4594    0.3913   26.1109 C   0  0  0  0  0  0  0  0  0  0  0  0
   10.3940   -1.8503   22.2187 N   0  0  0  0  0  0  0  0  0  0  0  0
    9.9077   -4.6617   20.1960 C   0  0  0  0  0  0  0  0  0  0  0  0
   10.0423   -3.0420   24.0196 N   0  0  0  0  0  0  0  0  0  0  0  0
    7.0842   -7.3571   15.7754 N   0  0  0  0  0  0  0  0  0  0  0  0
    5.8463   -8.3436   17.2575 N   0  0  0  0  0  0  0  0  0  0  0  0
    8.4677   -6.0397   17.1800 C   0  0  0  0  0  0  0  0  0  0  0  0
    9.0973   -5.2636   16.2011 C   0  0  0  0  0  0  0  0  0  0  0  0
   10.3603   -3.8908   22.9752 O   0  0  0  0  0  0  0  0  0  0  0  0
    9.6487   -4.8941   18.8647 C   0  0  0  0  0  0  0  0  0  0  0  0
    9.1092    1.6833   24.1229 C   0  0  0  0  0  0  0  0  0  0  0  0
   10.9817   -3.0006   18.2865 N   0  0  0  0  0  0  0  0  0  0  0  0
   10.4568   -3.1117   21.8818 C   0  0  0  0  0  0  0  0  0  0  0  0
    8.8208   -5.8650   18.4600 N   0  0  0  0  0  0  0  0  0  0  0  0
    8.9957   -0.7646   25.5066 C   0  0  0  0  0  0  0  0  0  0  0  0
   10.5240   -3.5027   20.5473 C   0  0  0  0  0  0  0  0  0  0  0  0
  1  8  1  0
  1 12  4  0
  1 14  4  0
  2  3  4  0
  2 18  4  0
  3 20  4  0
  3 22  4  0
  4 11  4  0
  4 21  4  0
  5  9  4  0
  5 16  4  0
  6 15  4  0
  6 16  4  0
  7 22  4  0
  7 26  4  0
  8 10  4  0
  8 25  4  0
  9 15  4  0
  9 17  1  0
 10 21  4  0
 11 25  4  0
 12 23  4  0
 13 20  4  0
 13 26  4  0
 14 19  4  0
 17 18  4  0
 17 24  4  0
 19 23  4  0
 20 24  4  0
 23 26  1  0
M  END
$$$$

 Created by Python create_sdf_string function

 26 26  0  0  0  0  0  0  0  0999 V2000
   10.0011   -1.7767   23.5282 C   0  0  0  0  0  0  0  0  0  0  0  0
    9.9067   -4.2957   16.6341 C   0  0  0  0  0  0  0  0  0  0  0  0
   10.2685   -4.0448   17.8846 C   0  0  0  0  0  0  0  0  0  0  0  0
    8.5437    1.6468   25.3570 N   0  0  0  0  0  0  0  0  0  0  0  0
    6.7005   -7.5377   17.9004 C   0  0  0  0  0  0  0  0  0  0  0  0
    6.1384   -8.2256   15.9932 N   0  0  0  0  0  0  0  0  0  0  0  0
   11.1306   -2.7227   19.5728 C   0  0  0  0  0  0  0  0  0  0  0  0
    9.5293   -0.6752   24.2253 S   0  0  0  0  0  0  0  0  0  0  0  0
    7.5019   -6.9528   16.9878 C   0  0  0  0  0  0  0  0  0  0  0  0
    9.6160    0.5731   23.5684 C   0  0  0  0  0  0  0  0  0  0  0  0
    8.4377    0.3725   26.1158 C   0  0  0  0  0  0  0  0  0  0  0  0
   10.4036   -1.8806   22.2681 N   0  0  0  0  0  0  0  0  0  0  0  0
    9.9509   -4.6793   20.2739 C   0  0  0  0  0  0  0  0  0  0  0  0
    8.4350   -6.0492   17.2186 C   0  0  0  0  0  0  0  0  0  0  0  0
    9.1293   -5.2690   16.2134 C   0  0  0  0  0  0  0  0  0  0  0  0
   10.4125   -3.9110   22.9732 O   0  0  0  0  0  0  0  0  0  0  0  0
    9.6417   -4.9024   18.8480 C   0  0  0  0  0  0  0  0  0  0  0  0
    9.1134    1.6890   24.1658 C   0  0  0  0  0  0  0  0  0  0  0  0
   10.9657   -3.0081   18.2845 N   0  0  0  0  0  0  0  0  0  0  0  0
   10.4367   -3.1092   21.8579 C   0  0  0  0  0  0  0  0  0  0  0  0
    8.8302   -5.8837   18.4194 N   0  0  0  0  0  0  0  0  0  0  0  0
    8.9777   -0.7411   25.4884 C   0  0  0  0  0  0  0  0  0  0  0  0
   10.5417   -3.5199   20.5343 C   0  0  0  0  0  0  0  0  0  0  0  0
   10.0401   -3.0499   24.0308 He  0  0  0  0  0  0  0  0  0  0  0  0
    7.1037   -7.3423   15.7278 He  0  0  0  0  0  0  0  0  0  0  0  0
    5.8977   -8.3543   17.2524 He  0  0  0  0  0  0  0  0  0  0  0  0
  1  8  1  0
  1 12  4  0
  1 16  1  0
  2  3  4  0
  2 11  2  0
  2 15  4  0
  3 17  4  0
  3 19  4  0
  4 11  4  0
  4 18  4  0
  5  9  4  0
  7 19  4  0
  7 23  4  0
  8 10  3  0
  8 22  4  0
  9 14  1  0
 10 18  4  0
 11 22  4  0
 12 20  4  0
 13 17  4  0
 13 23  4  0
 14 15  4  0
 14 21  4  0
 16 20  4  0
 17 21  4  0
 20 23  1  0
M  END
$$$$

 Created by Python create_sdf_string function

 26 30  0  0  0  0  0  0  0  0999 V2000
    9.9892   -1.8161   23.5364 C   0  0  0  0  0  0  0  0  0  0  0  0
    9.9574   -4.2852   16.5952 C   0  0  0  0  0  0  0  0  0  0  0  0
   10.2335   -4.0356   17.9179 C   0  0  0  0  0  0  0  0  0  0  0  0
    8.5364    1.6050   25.3952 N   0  0  0  0  0  0  0  0  0  0  0  0
    6.7151   -7.5669   17.8822 C   0  0  0  0  0  0  0  0  0  0  0  0
    6.1417   -8.2238   15.9741 N   0  0  0  0  0  0  0  0  0  0  0  0
   11.1341   -2.7091   19.5752 C   0  0  0  0  0  0  0  0  0  0  0  0
    9.5308   -0.6350   24.2098 C   0  0  0  0  0  0  0  0  0  0  0  0
    7.4767   -6.9454   16.9626 C   0  0  0  0  0  0  0  0  0  0  0  0
    9.6254    0.5786   23.5358 C   0  0  0  0  0  0  0  0  0  0  0  0
    8.4505    0.4021   26.0890 C   0  0  0  0  0  0  0  0  0  0  0  0
   10.3924   -1.8505   22.2601 N   0  0  0  0  0  0  0  0  0  0  0  0
    9.9316   -4.6864   20.2066 C   0  0  0  0  0  0  0  0  0  0  0  0
   10.0508   -3.0539   24.0392 N   0  0  0  0  0  0  0  0  0  0  0  0
    7.1035   -7.3557   15.7400 C   0  0  0  0  0  0  0  0  0  0  0  0
    5.8922   -8.3518   17.2399 N   0  0  0  0  0  0  0  0  0  0  0  0
    8.4806   -6.0308   17.1941 C   0  0  0  0  0  0  0  0  0  0  0  0
    9.1094   -5.2533   16.2159 C   0  0  0  0  0  0  0  0  0  0  0  0
   10.3688   -3.8943   22.9765 O   0  0  0  0  0  0  0  0  0  0  0  0
    9.6659   -4.8924   18.8766 C   0  0  0  0  0  0  0  0  0  0  0  0
    9.1100    1.7049   24.1602 C   0  0  0  0  0  0  0  0  0  0  0  0
   10.9939   -3.0011   18.2771 N   0  0  0  0  0  0  0  0  0  0  0  0
   10.4741   -3.1149   21.8840 C   0  0  0  0  0  0  0  0  0  0  0  0
    8.8454   -5.8557   18.4837 N   0  0  0  0  0  0  0  0  0  0  0  0
    8.9744   -0.7568   25.4914 C   0  0  0  0  0  0  0  0  0  0  0  0
   10.5471   -3.5053   20.5502 C   0  0  0  0  0  0  0  0  0  0  0  0
  1  8  1  0
  1 12  4  0
  1 14  4  0
  2  3  4  0
  2 18  4  0
  3 20  4  0
  3 22  4  0
  4 11  4  0
  4 21  4  0
  5  9  4  0
  5 16  4  0
  6 15  4  0
  6 16  4  0
  7 22  4  0
  7 26  4  0
  8 10  4  0
  8 25  4  0
  9 15  4  0
  9 17  1  0
 10 21  4  0
 11 25  4  0
 12 23  4  0
 13 20  4  0
 13 26  4  0
 14 19  4  0
 17 18  4  0
 17 24  4  0
 19 23  4  0
 20 24  4  0
 23 26  1  0
M  END
$$$$

 Created by Python create_sdf_string function

 26 29  0  0  0  0  0  0  0  0999 V2000
    9.9376   -1.8335   23.5499 C   0  0  0  0  0  0  0  0  0  0  0  0
    9.9479   -4.2809   16.5930 C   0  0  0  0  0  0  0  0  0  0  0  0
   10.2274   -4.0437   17.9029 C   0  0  0  0  0  0  0  0  0  0  0  0
    8.5087    1.5705   25.4174 N   0  0  0  0  0  0  0  0  0  0  0  0
    6.6908   -7.5461   17.8887 C   0  0  0  0  0  0  0  0  0  0  0  0
    6.1720   -8.2219   15.9999 N   0  0  0  0  0  0  0  0  0  0  0  0
   11.1348   -2.7091   19.5744 F   0  0  0  0  0  0  0  0  0  0  0  0
    9.5285   -0.6506   24.2120 C   0  0  0  0  0  0  0  0  0  0  0  0
    7.5154   -6.9185   16.9647 C   0  0  0  0  0  0  0  0  0  0  0  0
    9.6280    0.5303   23.5498 C   0  0  0  0  0  0  0  0  0  0  0  0
    8.4629    0.3874   26.0868 C   0  0  0  0  0  0  0  0  0  0  0  0
   10.3816   -1.8662   22.2609 N   0  0  0  0  0  0  0  0  0  0  0  0
    9.9012   -4.6796   20.2353 C   0  0  0  0  0  0  0  0  0  0  0  0
   10.0192   -3.0459   24.0691 N   0  0  0  0  0  0  0  0  0  0  0  0
    7.1228   -7.3501   15.7414 C   0  0  0  0  0  0  0  0  0  0  0  0
    5.9140   -8.3411   17.2442 N   0  0  0  0  0  0  0  0  0  0  0  0
    8.4673   -6.0509   17.2029 C   0  0  0  0  0  0  0  0  0  0  0  0
    9.0982   -5.2486   16.2129 C   0  0  0  0  0  0  0  0  0  0  0  0
   10.4148   -3.8663   22.9802 O   0  0  0  0  0  0  0  0  0  0  0  0
    9.7009   -4.9032   18.8688 C   0  0  0  0  0  0  0  0  0  0  0  0
    9.1395    1.6737   24.1338 C   0  0  0  0  0  0  0  0  0  0  0  0
   10.9821   -3.0083   18.2589 N   0  0  0  0  0  0  0  0  0  0  0  0
   10.5087   -3.0754   21.8598 C   0  0  0  0  0  0  0  0  0  0  0  0
    8.8424   -5.8573   18.4956 N   0  0  0  0  0  0  0  0  0  0  0  0
   10.5302   -3.5063   20.5039 C   0  0  0  0  0  0  0  0  0  0  0  0
    8.9785   -0.7801   25.5151 He  0  0  0  0  0  0  0  0  0  0  0  0
  1  8  1  0
  1 12  4  0
  1 14  4  0
  2  3  4  0
  2 18  4  0
  3 20  4  0
  3 22  4  0
  4 11  4  0
  4 21  4  0
  5  9  4  0
  5 16  4  0
  5 19  2  0
  6 15  4  0
  6 16  4  0
  7 22  4  0
  7 25  4  0
  8 10  4  0
  9 15  4  0
  9 17  1  0
 10 21  4  0
 12 23  4  0
 13 20  4  0
 13 25  4  0
 14 19  4  0
 17 18  4  0
 17 24  4  0
 19 23  4  0
 20 24  4  0
 23 25  1  0
M  END
$$$$

 Created by Python create_sdf_string function

 26 30  0  0  0  0  0  0  0  0999 V2000
    9.9720   -1.8204   23.5343 C   0  0  0  0  0  0  0  0  0  0  0  0
    9.9587   -4.2817   16.5813 C   0  0  0  0  0  0  0  0  0  0  0  0
   10.2408   -4.0390   17.9023 C   0  0  0  0  0  0  0  0  0  0  0  0
    8.5401    1.5563   25.3968 N   0  0  0  0  0  0  0  0  0  0  0  0
    6.7244   -7.5462   17.8764 C   0  0  0  0  0  0  0  0  0  0  0  0
    6.1662   -8.2256   15.9763 N   0  0  0  0  0  0  0  0  0  0  0  0
   11.1309   -2.7068   19.5740 C   0  0  0  0  0  0  0  0  0  0  0  0
    9.5166   -0.6556   24.2164 C   0  0  0  0  0  0  0  0  0  0  0  0
    7.4919   -6.9364   16.9527 C   0  0  0  0  0  0  0  0  0  0  0  0
    9.6286    0.5451   23.5294 C   0  0  0  0  0  0  0  0  0  0  0  0
    8.4635    0.3643   26.1021 C   0  0  0  0  0  0  0  0  0  0  0  0
   10.3800   -1.8224   22.2525 N   0  0  0  0  0  0  0  0  0  0  0  0
    9.9257   -4.6657   20.2014 C   0  0  0  0  0  0  0  0  0  0  0  0
   10.0336   -3.0515   24.0349 N   0  0  0  0  0  0  0  0  0  0  0  0
    7.1140   -7.3625   15.7603 C   0  0  0  0  0  0  0  0  0  0  0  0
    5.9153   -8.3334   17.2513 N   0  0  0  0  0  0  0  0  0  0  0  0
    8.4956   -6.0112   17.1961 C   0  0  0  0  0  0  0  0  0  0  0  0
    9.1184   -5.2325   16.2142 C   0  0  0  0  0  0  0  0  0  0  0  0
   10.3841   -3.8534   22.9729 O   0  0  0  0  0  0  0  0  0  0  0  0
    9.6791   -4.8858   18.8753 C   0  0  0  0  0  0  0  0  0  0  0  0
    9.1261    1.6820   24.1496 C   0  0  0  0  0  0  0  0  0  0  0  0
   10.9991   -2.9989   18.2719 N   0  0  0  0  0  0  0  0  0  0  0  0
   10.4834   -3.0865   21.8773 C   0  0  0  0  0  0  0  0  0  0  0  0
    8.8564   -5.8529   18.4832 N   0  0  0  0  0  0  0  0  0  0  0  0
    8.9811   -0.7816   25.4973 C   0  0  0  0  0  0  0  0  0  0  0  0
   10.5465   -3.4997   20.5414 C   0  0  0  0  0  0  0  0  0  0  0  0
  1  8  1  0
  1 12  4  0
  1 14  4  0
  2  3  4  0
  2 18  4  0
  3 20  4  0
  3 22  4  0
  4 11  4  0
  4 21  4  0
  5  9  4  0
  5 16  4  0
  6 15  4  0
  6 16  4  0
  7 22  4  0
  7 26  4  0
  8 10  4  0
  8 25  4  0
  9 15  4  0
  9 17  1  0
 10 21  4  0
 11 25  4  0
 12 23  4  0
 13 20  4  0
 13 26  4  0
 14 19  4  0
 17 18  4  0
 17 24  4  0
 19 23  4  0
 20 24  4  0
 23 26  1  0
M  END
$$$$

 Created by Python create_sdf_string function

 26 31  0  0  0  0  0  0  0  0999 V2000
    9.9563   -1.8371   23.5241 C   0  0  0  0  0  0  0  0  0  0  0  0
    9.9596   -4.2968   16.5682 C   0  0  0  0  0  0  0  0  0  0  0  0
   10.2476   -4.0543   17.9116 C   0  0  0  0  0  0  0  0  0  0  0  0
    8.5123    1.5826   25.3728 N   0  0  0  0  0  0  0  0  0  0  0  0
    6.7123   -7.5407   17.8844 C   0  0  0  0  0  0  0  0  0  0  0  0
    6.1536   -8.2042   15.9794 N   0  0  0  0  0  0  0  0  0  0  0  0
   11.1462   -2.7008   19.5825 C   0  0  0  0  0  0  0  0  0  0  0  0
    9.5169   -0.6662   24.2204 C   0  0  0  0  0  0  0  0  0  0  0  0
    7.4781   -6.9332   16.9516 C   0  0  0  0  0  0  0  0  0  0  0  0
    9.6629    0.5541   23.5332 C   0  0  0  0  0  0  0  0  0  0  0  0
    8.4384    0.3805   26.0867 C   0  0  0  0  0  0  0  0  0  0  0  0
   10.4057   -1.8480   22.2529 N   0  0  0  0  0  0  0  0  0  0  0  0
    9.8948   -4.6748   20.2032 C   0  0  0  0  0  0  0  0  0  0  0  0
   10.0291   -3.0466   24.0389 N   0  0  0  0  0  0  0  0  0  0  0  0
    7.1119   -7.3702   15.7844 C   0  0  0  0  0  0  0  0  0  0  0  0
    5.8966   -8.3328   17.2478 N   0  0  0  0  0  0  0  0  0  0  0  0
    8.4735   -6.0426   17.2133 C   0  0  0  0  0  0  0  0  0  0  0  0
    9.1262   -5.2366   16.2077 C   0  0  0  0  0  0  0  0  0  0  0  0
   10.3947   -3.8633   22.9636 O   0  0  0  0  0  0  0  0  0  0  0  0
    9.6769   -4.8704   18.8577 C   0  0  0  0  0  0  0  0  0  0  0  0
    9.1176    1.6698   24.1601 C   0  0  0  0  0  0  0  0  0  0  0  0
   11.0172   -3.0000   18.2536 N   0  0  0  0  0  0  0  0  0  0  0  0
   10.4629   -3.0830   21.8735 C   0  0  0  0  0  0  0  0  0  0  0  0
    8.8415   -5.8570   18.4814 N   0  0  0  0  0  0  0  0  0  0  0  0
    8.9704   -0.7804   25.4749 C   0  0  0  0  0  0  0  0  0  0  0  0
   10.5692   -3.5003   20.5381 C   0  0  0  0  0  0  0  0  0  0  0  0
  1  8  1  0
  1 12  4  0
  1 14  4  0
  2  3  4  0
  2 18  4  0
  3 20  4  0
  3 22  4  0
  4 11  4  0
  4 21  4  0
  5  9  4  0
  5 16  4  0
  6 15  4  0
  6 16  4  0
  7 22  4  0
  7 26  4  0
  8 10  4  0
  8 25  4  0
  9 15  4  0
  9 17  1  0
 10 21  4  0
 10 24  3  0
 11 25  4  0
 12 23  4  0
 13 20  4  0
 13 26  4  0
 14 19  4  0
 17 18  4  0
 17 24  4  0
 19 23  4  0
 20 24  4  0
 23 26  1  0
M  END
$$$$

 Created by Python create_sdf_string function

 26 30  0  0  0  0  0  0  0  0999 V2000
    9.9828   -1.8210   23.5165 C   0  0  0  0  0  0  0  0  0  0  0  0
    9.9817   -4.2848   16.5712 C   0  0  0  0  0  0  0  0  0  0  0  0
   10.2579   -4.0354   17.9008 C   0  0  0  0  0  0  0  0  0  0  0  0
    8.5284    1.5619   25.3760 N   0  0  0  0  0  0  0  0  0  0  0  0
    6.7356   -7.5398   17.8724 C   0  0  0  0  0  0  0  0  0  0  0  0
    6.1491   -8.2122   15.9800 N   0  0  0  0  0  0  0  0  0  0  0  0
   11.1537   -2.6931   19.5725 C   0  0  0  0  0  0  0  0  0  0  0  0
    9.5222   -0.6530   24.2084 C   0  0  0  0  0  0  0  0  0  0  0  0
    7.4963   -6.9341   16.9589 C   0  0  0  0  0  0  0  0  0  0  0  0
    9.6524    0.5499   23.5290 C   0  0  0  0  0  0  0  0  0  0  0  0
    8.4391    0.3633   26.0941 C   0  0  0  0  0  0  0  0  0  0  0  0
   10.4000   -1.8136   22.2423 N   0  0  0  0  0  0  0  0  0  0  0  0
    9.9211   -4.6381   20.1878 C   0  0  0  0  0  0  0  0  0  0  0  0
   10.0344   -3.0571   24.0175 N   0  0  0  0  0  0  0  0  0  0  0  0
    7.1073   -7.3676   15.7784 C   0  0  0  0  0  0  0  0  0  0  0  0
    5.9073   -8.3185   17.2582 N   0  0  0  0  0  0  0  0  0  0  0  0
    8.5015   -6.0029   17.1985 C   0  0  0  0  0  0  0  0  0  0  0  0
    9.1353   -5.2330   16.2136 C   0  0  0  0  0  0  0  0  0  0  0  0
   10.3684   -3.8631   22.9561 O   0  0  0  0  0  0  0  0  0  0  0  0
    9.6753   -4.8723   18.8691 C   0  0  0  0  0  0  0  0  0  0  0  0
    9.1284    1.6823   24.1402 C   0  0  0  0  0  0  0  0  0  0  0  0
   11.0250   -3.0006   18.2734 N   0  0  0  0  0  0  0  0  0  0  0  0
   10.4763   -3.0863   21.8737 C   0  0  0  0  0  0  0  0  0  0  0  0
    8.8461   -5.8406   18.4797 N   0  0  0  0  0  0  0  0  0  0  0  0
    8.9690   -0.7843   25.4786 C   0  0  0  0  0  0  0  0  0  0  0  0
   10.5548   -3.4899   20.5418 C   0  0  0  0  0  0  0  0  0  0  0  0
  1  8  1  0
  1 12  4  0
  1 14  4  0
  2  3  4  0
  2 18  4  0
  3 20  4  0
  3 22  4  0
  4 11  4  0
  4 21  4  0
  5  9  4  0
  5 16  4  0
  6 15  4  0
  6 16  4  0
  7 22  4  0
  7 26  4  0
  8 10  4  0
  8 25  4  0
  9 15  4  0
  9 17  1  0
 10 21  4  0
 11 25  4  0
 12 23  4  0
 13 20  4  0
 13 26  4  0
 14 19  4  0
 17 18  4  0
 17 24  4  0
 19 23  4  0
 20 24  4  0
 23 26  1  0
M  END
$$$$

 Created by Python create_sdf_string function

 26 31  0  0  0  0  0  0  0  0999 V2000
    9.9734   -1.8151   23.5389 C   0  0  0  0  0  0  0  0  0  0  0  0
    9.9599   -4.2674   16.5714 C   0  0  0  0  0  0  0  0  0  0  0  0
   10.2555   -4.0343   17.8966 C   0  0  0  0  0  0  0  0  0  0  0  0
    8.5242    1.5680   25.3842 N   0  0  0  0  0  0  0  0  0  0  0  0
    6.7326   -7.5562   17.8821 C   0  0  0  0  0  0  0  0  0  0  0  0
    6.1521   -8.2234   15.9573 N   0  0  0  0  0  0  0  0  0  0  0  0
   11.1562   -2.6997   19.5666 C   0  0  0  0  0  0  0  0  0  0  0  0
    9.5584   -0.6476   24.1933 C   0  0  0  0  0  0  0  0  0  0  0  0
    7.5132   -6.9568   16.9802 C   0  0  0  0  0  0  0  0  0  0  0  0
    9.6872    0.5505   23.5327 C   0  0  0  0  0  0  0  0  0  0  0  0
    8.4519    0.3635   26.0917 C   0  0  0  0  0  0  0  0  0  0  0  0
   10.3986   -1.8155   22.2414 N   0  0  0  0  0  0  0  0  0  0  0  0
    9.9214   -4.6561   20.1883 C   0  0  0  0  0  0  0  0  0  0  0  0
   10.0247   -3.0499   24.0310 N   0  0  0  0  0  0  0  0  0  0  0  0
    7.1202   -7.3725   15.7610 C   0  0  0  0  0  0  0  0  0  0  0  0
    5.9038   -8.3182   17.2532 N   0  0  0  0  0  0  0  0  0  0  0  0
    8.5078   -6.0025   17.2033 C   0  0  0  0  0  0  0  0  0  0  0  0
    9.1433   -5.2330   16.2106 C   0  0  0  0  0  0  0  0  0  0  0  0
   10.3582   -3.8600   22.9616 O   0  0  0  0  0  0  0  0  0  0  0  0
    9.6829   -4.8853   18.8601 C   0  0  0  0  0  0  0  0  0  0  0  0
    9.1455    1.7137   24.1316 C   0  0  0  0  0  0  0  0  0  0  0  0
   11.0125   -2.9988   18.2833 N   0  0  0  0  0  0  0  0  0  0  0  0
   10.4896   -3.0918   21.8639 C   0  0  0  0  0  0  0  0  0  0  0  0
    8.8548   -5.8432   18.4731 N   0  0  0  0  0  0  0  0  0  0  0  0
    8.9725   -0.7826   25.4779 C   0  0  0  0  0  0  0  0  0  0  0  0
   10.5658   -3.4725   20.5180 C   0  0  0  0  0  0  0  0  0  0  0  0
  1  8  1  0
  1 12  4  0
  1 14  4  0
  2  3  4  0
  2 18  4  0
  3 20  4  0
  3 22  4  0
  3 24  2  0
  4 11  4  0
  4 21  4  0
  5  9  4  0
  5 16  4  0
  6 15  4  0
  6 16  4  0
  7 22  4  0
  7 26  4  0
  8 10  4  0
  8 25  4  0
  9 15  4  0
  9 17  1  0
 10 21  4  0
 11 25  4  0
 12 23  4  0
 13 20  4  0
 13 26  4  0
 14 19  4  0
 17 18  4  0
 17 24  4  0
 19 23  4  0
 20 24  4  0
 23 26  1  0
M  END
$$$$

 Created by Python create_sdf_string function

 26 30  0  0  0  0  0  0  0  0999 V2000
    9.9952   -1.8118   23.5124 C   0  0  0  0  0  0  0  0  0  0  0  0
    9.9826   -4.2643   16.5739 C   0  0  0  0  0  0  0  0  0  0  0  0
   10.2574   -4.0250   17.9011 C   0  0  0  0  0  0  0  0  0  0  0  0
    8.5447    1.5561   25.3765 N   0  0  0  0  0  0  0  0  0  0  0  0
    6.7568   -7.5520   17.8751 C   0  0  0  0  0  0  0  0  0  0  0  0
    6.1583   -8.2186   15.9707 N   0  0  0  0  0  0  0  0  0  0  0  0
   11.1638   -2.6795   19.5675 C   0  0  0  0  0  0  0  0  0  0  0  0
    9.5425   -0.6423   24.2016 C   0  0  0  0  0  0  0  0  0  0  0  0
    7.5129   -6.9379   16.9569 C   0  0  0  0  0  0  0  0  0  0  0  0
    9.6795    0.5647   23.5210 C   0  0  0  0  0  0  0  0  0  0  0  0
    8.4550    0.3572   26.0882 C   0  0  0  0  0  0  0  0  0  0  0  0
   10.4076   -1.7942   22.2376 N   0  0  0  0  0  0  0  0  0  0  0  0
    9.9404   -4.6274   20.1812 C   0  0  0  0  0  0  0  0  0  0  0  0
   10.0304   -3.0575   24.0089 N   0  0  0  0  0  0  0  0  0  0  0  0
    7.1204   -7.3732   15.7695 C   0  0  0  0  0  0  0  0  0  0  0  0
    5.9198   -8.3159   17.2554 N   0  0  0  0  0  0  0  0  0  0  0  0
    8.5138   -6.0035   17.1915 C   0  0  0  0  0  0  0  0  0  0  0  0
    9.1437   -5.2271   16.2178 C   0  0  0  0  0  0  0  0  0  0  0  0
   10.3466   -3.8550   22.9554 O   0  0  0  0  0  0  0  0  0  0  0  0
    9.6826   -4.8687   18.8639 C   0  0  0  0  0  0  0  0  0  0  0  0
    9.1499    1.7009   24.1352 C   0  0  0  0  0  0  0  0  0  0  0  0
   11.0257   -2.9915   18.2731 N   0  0  0  0  0  0  0  0  0  0  0  0
   10.4812   -3.0740   21.8666 C   0  0  0  0  0  0  0  0  0  0  0  0
    8.8606   -5.8361   18.4718 N   0  0  0  0  0  0  0  0  0  0  0  0
    8.9819   -0.7918   25.4747 C   0  0  0  0  0  0  0  0  0  0  0  0
   10.5632   -3.4742   20.5381 C   0  0  0  0  0  0  0  0  0  0  0  0
  1  8  1  0
  1 12  4  0
  1 14  4  0
  2  3  4  0
  2 18  4  0
  3 20  4  0
  3 22  4  0
  4 11  4  0
  4 21  4  0
  5  9  4  0
  5 16  4  0
  6 15  4  0
  6 16  4  0
  7 22  4  0
  7 26  4  0
  8 10  4  0
  8 25  4  0
  9 15  4  0
  9 17  1  0
 10 21  4  0
 11 25  4  0
 12 23  4  0
 13 20  4  0
 13 26  4  0
 14 19  4  0
 17 18  4  0
 17 24  4  0
 19 23  4  0
 20 24  4  0
 23 26  1  0
M  END
$$$$

 Created by Python create_sdf_string function

 26 31  0  0  0  0  0  0  0  0999 V2000
   10.0064   -1.8062   23.5284 C   0  0  0  0  0  0  0  0  0  0  0  0
    9.9768   -4.2664   16.5666 C   0  0  0  0  0  0  0  0  0  0  0  0
   10.2477   -4.0365   17.8957 C   0  0  0  0  0  0  0  0  0  0  0  0
    8.5394    1.5591   25.3874 N   0  0  0  0  0  0  0  0  0  0  0  0
    6.7592   -7.5634   17.8808 C   0  0  0  0  0  0  0  0  0  0  0  0
    6.1668   -8.2233   15.9696 N   0  0  0  0  0  0  0  0  0  0  0  0
   11.1588   -2.6818   19.5591 C   0  0  0  0  0  0  0  0  0  0  0  0
    9.5460   -0.6465   24.2023 C   0  0  0  0  0  0  0  0  0  0  0  0
    7.5095   -6.9403   16.9499 C   0  0  0  0  0  0  0  0  0  0  0  0
    9.6850    0.5640   23.5262 C   0  0  0  0  0  0  0  0  0  0  0  0
    8.4479    0.3714   26.0786 C   0  0  0  0  0  0  0  0  0  0  0  0
   10.4057   -1.7992   22.2321 N   0  0  0  0  0  0  0  0  0  0  0  0
    9.9583   -4.6184   20.1850 C   0  0  0  0  0  0  0  0  0  0  0  0
   10.0289   -3.0542   24.0152 N   0  0  0  0  0  0  0  0  0  0  0  0
    7.1147   -7.3744   15.7619 C   0  0  0  0  0  0  0  0  0  0  0  0
    5.9330   -8.3233   17.2614 N   0  0  0  0  0  0  0  0  0  0  0  0
    8.5185   -6.0135   17.1803 C   0  0  0  0  0  0  0  0  0  0  0  0
    9.1337   -5.2185   16.2085 C   0  0  0  0  0  0  0  0  0  0  0  0
   10.3541   -3.8476   22.9569 O   0  0  0  0  0  0  0  0  0  0  0  0
    9.6803   -4.8700   18.8550 C   0  0  0  0  0  0  0  0  0  0  0  0
    9.1556    1.7038   24.1368 C   0  0  0  0  0  0  0  0  0  0  0  0
   11.0274   -2.9890   18.2731 N   0  0  0  0  0  0  0  0  0  0  0  0
   10.4783   -3.0589   21.8763 C   0  0  0  0  0  0  0  0  0  0  0  0
    8.8496   -5.8277   18.4718 N   0  0  0  0  0  0  0  0  0  0  0  0
    8.9760   -0.7874   25.4765 C   0  0  0  0  0  0  0  0  0  0  0  0
   10.5513   -3.4751   20.5404 C   0  0  0  0  0  0  0  0  0  0  0  0
  1  8  1  0
  1 12  4  0
  1 14  4  0
  2  3  4  0
  2 18  4  0
  3 20  4  0
  3 22  4  0
  4 11  4  0
  4 21  4  0
  5  9  4  0
  5 16  4  0
  6 15  4  0
  6 16  4  0
  7 22  4  0
  7 26  4  0
  8 10  4  0
  8 25  4  0
  9 15  4  0
  9 17  1  0
 10 17  3  0
 10 21  4  0
 11 25  4  0
 12 23  4  0
 13 20  4  0
 13 26  4  0
 14 19  4  0
 17 18  4  0
 17 24  4  0
 19 23  4  0
 20 24  4  0
 23 26  1  0
M  END
$$$$

 Created by Python create_sdf_string function

 26 30  0  0  0  0  0  0  0  0999 V2000
   10.0068   -1.8047   23.5060 C   0  0  0  0  0  0  0  0  0  0  0  0
    9.9912   -4.2603   16.5659 C   0  0  0  0  0  0  0  0  0  0  0  0
   10.2659   -4.0174   17.8899 C   0  0  0  0  0  0  0  0  0  0  0  0
    8.5542    1.5542   25.3781 N   0  0  0  0  0  0  0  0  0  0  0  0
    6.7844   -7.5530   17.8728 C   0  0  0  0  0  0  0  0  0  0  0  0
    6.1669   -8.2218   15.9796 N   0  0  0  0  0  0  0  0  0  0  0  0
   11.1656   -2.6673   19.5616 C   0  0  0  0  0  0  0  0  0  0  0  0
    9.5476   -0.6377   24.2009 C   0  0  0  0  0  0  0  0  0  0  0  0
    7.5221   -6.9349   16.9502 C   0  0  0  0  0  0  0  0  0  0  0  0
    9.6792    0.5663   23.5238 C   0  0  0  0  0  0  0  0  0  0  0  0
    8.4504    0.3579   26.0849 C   0  0  0  0  0  0  0  0  0  0  0  0
   10.4162   -1.7794   22.2312 N   0  0  0  0  0  0  0  0  0  0  0  0
    9.9504   -4.6123   20.1787 C   0  0  0  0  0  0  0  0  0  0  0  0
   10.0364   -3.0549   24.0009 N   0  0  0  0  0  0  0  0  0  0  0  0
    7.1171   -7.3703   15.7690 C   0  0  0  0  0  0  0  0  0  0  0  0
    5.9458   -8.3221   17.2630 N   0  0  0  0  0  0  0  0  0  0  0  0
    8.5214   -5.9900   17.1842 C   0  0  0  0  0  0  0  0  0  0  0  0
    9.1449   -5.2171   16.2098 C   0  0  0  0  0  0  0  0  0  0  0  0
   10.3436   -3.8398   22.9436 O   0  0  0  0  0  0  0  0  0  0  0  0
    9.6883   -4.8572   18.8592 C   0  0  0  0  0  0  0  0  0  0  0  0
    9.1568    1.7043   24.1386 C   0  0  0  0  0  0  0  0  0  0  0  0
   11.0340   -2.9858   18.2709 N   0  0  0  0  0  0  0  0  0  0  0  0
   10.4785   -3.0545   21.8684 C   0  0  0  0  0  0  0  0  0  0  0  0
    8.8592   -5.8235   18.4679 N   0  0  0  0  0  0  0  0  0  0  0  0
    8.9852   -0.7871   25.4679 C   0  0  0  0  0  0  0  0  0  0  0  0
   10.5646   -3.4577   20.5366 C   0  0  0  0  0  0  0  0  0  0  0  0
  1  8  1  0
  1 12  4  0
  1 14  4  0
  2  3  4  0
  2 18  4  0
  3 20  4  0
  3 22  4  0
  4 11  4  0
  4 21  4  0
  5  9  4  0
  5 16  4  0
  6 15  4  0
  6 16  4  0
  7 22  4  0
  7 26  4  0
  8 10  4  0
  8 25  4  0
  9 15  4  0
  9 17  1  0
 10 21  4  0
 11 25  4  0
 12 23  4  0
 13 20  4  0
 13 26  4  0
 14 19  4  0
 17 18  4  0
 17 24  4  0
 19 23  4  0
 20 24  4  0
 23 26  1  0
M  END
$$$$

 Created by Python create_sdf_string function

 26 30  0  0  0  0  0  0  0  0999 V2000
   10.0012   -1.8093   23.5095 C   0  0  0  0  0  0  0  0  0  0  0  0
    9.9874   -4.2572   16.5624 C   0  0  0  0  0  0  0  0  0  0  0  0
   10.2616   -4.0116   17.8852 C   0  0  0  0  0  0  0  0  0  0  0  0
    8.5556    1.5542   25.3822 N   0  0  0  0  0  0  0  0  0  0  0  0
    6.7864   -7.5510   17.8813 C   0  0  0  0  0  0  0  0  0  0  0  0
    6.1655   -8.2256   15.9763 N   0  0  0  0  0  0  0  0  0  0  0  0
   11.1685   -2.6782   19.5634 C   0  0  0  0  0  0  0  0  0  0  0  0
    9.5471   -0.6378   24.1962 C   0  0  0  0  0  0  0  0  0  0  0  0
    7.5153   -6.9332   16.9524 C   0  0  0  0  0  0  0  0  0  0  0  0
    9.6769    0.5685   23.5250 C   0  0  0  0  0  0  0  0  0  0  0  0
    8.4459    0.3541   26.0847 C   0  0  0  0  0  0  0  0  0  0  0  0
   10.4163   -1.7798   22.2222 N   0  0  0  0  0  0  0  0  0  0  0  0
    9.9449   -4.6070   20.1777 C   0  0  0  0  0  0  0  0  0  0  0  0
   10.0330   -3.0603   23.9997 N   0  0  0  0  0  0  0  0  0  0  0  0
    7.1139   -7.3709   15.7693 C   0  0  0  0  0  0  0  0  0  0  0  0
    5.9467   -8.3255   17.2664 N   0  0  0  0  0  0  0  0  0  0  0  0
    8.5324   -5.9937   17.1887 C   0  0  0  0  0  0  0  0  0  0  0  0
    9.1425   -5.2157   16.2108 C   0  0  0  0  0  0  0  0  0  0  0  0
   10.3436   -3.8367   22.9424 O   0  0  0  0  0  0  0  0  0  0  0  0
    9.6900   -4.8550   18.8586 C   0  0  0  0  0  0  0  0  0  0  0  0
    9.1574    1.7038   24.1374 C   0  0  0  0  0  0  0  0  0  0  0  0
   11.0363   -2.9851   18.2760 N   0  0  0  0  0  0  0  0  0  0  0  0
   10.4744   -3.0582   21.8691 C   0  0  0  0  0  0  0  0  0  0  0  0
    8.8606   -5.8195   18.4734 N   0  0  0  0  0  0  0  0  0  0  0  0
    8.9817   -0.7879   25.4600 C   0  0  0  0  0  0  0  0  0  0  0  0
   10.5611   -3.4548   20.5369 C   0  0  0  0  0  0  0  0  0  0  0  0
  1  8  1  0
  1 12  4  0
  1 14  4  0
  2  3  4  0
  2 18  4  0
  3 20  4  0
  3 22  4  0
  4 11  4  0
  4 21  4  0
  5  9  4  0
  5 16  4  0
  6 15  4  0
  6 16  4  0
  7 22  4  0
  7 26  4  0
  8 10  4  0
  8 25  4  0
  9 15  4  0
  9 17  1  0
 10 21  4  0
 11 25  4  0
 12 23  4  0
 13 20  4  0
 13 26  4  0
 14 19  4  0
 17 18  4  0
 17 24  4  0
 19 23  4  0
 20 24  4  0
 23 26  1  0
M  END
$$$$

 Created by Python create_sdf_string function

 26 30  0  0  0  0  0  0  0  0999 V2000
   10.0084   -1.8019   23.4945 C   0  0  0  0  0  0  0  0  0  0  0  0
   10.0005   -4.2520   16.5631 C   0  0  0  0  0  0  0  0  0  0  0  0
   10.2759   -4.0036   17.8845 C   0  0  0  0  0  0  0  0  0  0  0  0
    8.5652    1.5478   25.3778 N   0  0  0  0  0  0  0  0  0  0  0  0
    6.8048   -7.5457   17.8752 C   0  0  0  0  0  0  0  0  0  0  0  0
    6.1721   -8.2186   15.9886 N   0  0  0  0  0  0  0  0  0  0  0  0
   11.1764   -2.6600   19.5604 C   0  0  0  0  0  0  0  0  0  0  0  0
    9.5491   -0.6380   24.1912 C   0  0  0  0  0  0  0  0  0  0  0  0
    7.5337   -6.9256   16.9519 C   0  0  0  0  0  0  0  0  0  0  0  0
    9.6782    0.5671   23.5143 C   0  0  0  0  0  0  0  0  0  0  0  0
    8.4532    0.3482   26.0821 C   0  0  0  0  0  0  0  0  0  0  0  0
   10.4239   -1.7677   22.2230 N   0  0  0  0  0  0  0  0  0  0  0  0
    9.9468   -4.5953   20.1709 C   0  0  0  0  0  0  0  0  0  0  0  0
   10.0366   -3.0590   23.9864 N   0  0  0  0  0  0  0  0  0  0  0  0
    7.1191   -7.3636   15.7739 C   0  0  0  0  0  0  0  0  0  0  0  0
    5.9612   -8.3203   17.2732 N   0  0  0  0  0  0  0  0  0  0  0  0
    8.5296   -5.9814   17.1841 C   0  0  0  0  0  0  0  0  0  0  0  0
    9.1527   -5.2118   16.2116 C   0  0  0  0  0  0  0  0  0  0  0  0
   10.3364   -3.8368   22.9255 O   0  0  0  0  0  0  0  0  0  0  0  0
    9.6947   -4.8407   18.8534 C   0  0  0  0  0  0  0  0  0  0  0  0
    9.1596    1.7042   24.1381 C   0  0  0  0  0  0  0  0  0  0  0  0
   11.0456   -2.9774   18.2694 N   0  0  0  0  0  0  0  0  0  0  0  0
   10.4788   -3.0457   21.8593 C   0  0  0  0  0  0  0  0  0  0  0  0
    8.8693   -5.8099   18.4657 N   0  0  0  0  0  0  0  0  0  0  0  0
    8.9892   -0.7926   25.4573 C   0  0  0  0  0  0  0  0  0  0  0  0
   10.5677   -3.4462   20.5323 C   0  0  0  0  0  0  0  0  0  0  0  0
  1  8  1  0
  1 12  4  0
  1 14  4  0
  2  3  4  0
  2 18  4  0
  3 20  4  0
  3 22  4  0
  4 11  4  0
  4 21  4  0
  5  9  4  0
  5 16  4  0
  6 15  4  0
  6 16  4  0
  7 22  4  0
  7 26  4  0
  8 10  4  0
  8 25  4  0
  9 15  4  0
  9 17  1  0
 10 21  4  0
 11 25  4  0
 12 23  4  0
 13 20  4  0
 13 26  4  0
 14 19  4  0
 17 18  4  0
 17 24  4  0
 19 23  4  0
 20 24  4  0
 23 26  1  0
M  END
$$$$

 Created by Python create_sdf_string function

 26 30  0  0  0  0  0  0  0  0999 V2000
   10.0084   -1.8019   23.4945 C   0  0  0  0  0  0  0  0  0  0  0  0
   10.0005   -4.2520   16.5631 C   0  0  0  0  0  0  0  0  0  0  0  0
   10.2759   -4.0036   17.8845 C   0  0  0  0  0  0  0  0  0  0  0  0
    8.5652    1.5478   25.3778 N   0  0  0  0  0  0  0  0  0  0  0  0
    6.8048   -7.5457   17.8752 C   0  0  0  0  0  0  0  0  0  0  0  0
    6.1721   -8.2186   15.9886 N   0  0  0  0  0  0  0  0  0  0  0  0
   11.1764   -2.6600   19.5604 C   0  0  0  0  0  0  0  0  0  0  0  0
    9.5491   -0.6380   24.1912 C   0  0  0  0  0  0  0  0  0  0  0  0
    7.5337   -6.9256   16.9519 C   0  0  0  0  0  0  0  0  0  0  0  0
    9.6782    0.5671   23.5143 C   0  0  0  0  0  0  0  0  0  0  0  0
    8.4532    0.3482   26.0821 C   0  0  0  0  0  0  0  0  0  0  0  0
   10.4239   -1.7677   22.2230 N   0  0  0  0  0  0  0  0  0  0  0  0
    9.9468   -4.5953   20.1709 C   0  0  0  0  0  0  0  0  0  0  0  0
   10.0366   -3.0590   23.9864 N   0  0  0  0  0  0  0  0  0  0  0  0
    7.1191   -7.3636   15.7739 C   0  0  0  0  0  0  0  0  0  0  0  0
    5.9612   -8.3203   17.2732 N   0  0  0  0  0  0  0  0  0  0  0  0
    8.5296   -5.9814   17.1841 C   0  0  0  0  0  0  0  0  0  0  0  0
    9.1527   -5.2118   16.2116 C   0  0  0  0  0  0  0  0  0  0  0  0
   10.3364   -3.8368   22.9255 O   0  0  0  0  0  0  0  0  0  0  0  0
    9.6947   -4.8407   18.8534 C   0  0  0  0  0  0  0  0  0  0  0  0
    9.1596    1.7042   24.1381 C   0  0  0  0  0  0  0  0  0  0  0  0
   11.0456   -2.9774   18.2694 N   0  0  0  0  0  0  0  0  0  0  0  0
   10.4788   -3.0457   21.8593 C   0  0  0  0  0  0  0  0  0  0  0  0
    8.8693   -5.8099   18.4657 N   0  0  0  0  0  0  0  0  0  0  0  0
    8.9892   -0.7926   25.4573 C   0  0  0  0  0  0  0  0  0  0  0  0
   10.5677   -3.4462   20.5323 C   0  0  0  0  0  0  0  0  0  0  0  0
  1  8  1  0
  1 12  4  0
  1 14  4  0
  2  3  4  0
  2 18  4  0
  3 20  4  0
  3 22  4  0
  4 11  4  0
  4 21  4  0
  5  9  4  0
  5 16  4  0
  6 15  4  0
  6 16  4  0
  7 22  4  0
  7 26  4  0
  8 10  4  0
  8 25  4  0
  9 15  4  0
  9 17  1  0
 10 21  4  0
 11 25  4  0
 12 23  4  0
 13 20  4  0
 13 26  4  0
 14 19  4  0
 17 18  4  0
 17 24  4  0
 19 23  4  0
 20 24  4  0
 23 26  1  0
M  END
$$$$

 Created by Python create_sdf_string function

 26 30  0  0  0  0  0  0  0  0999 V2000
   10.0084   -1.8019   23.4945 C   0  0  0  0  0  0  0  0  0  0  0  0
   10.0005   -4.2520   16.5631 C   0  0  0  0  0  0  0  0  0  0  0  0
   10.2759   -4.0036   17.8845 C   0  0  0  0  0  0  0  0  0  0  0  0
    8.5652    1.5478   25.3778 N   0  0  0  0  0  0  0  0  0  0  0  0
    6.8048   -7.5457   17.8752 C   0  0  0  0  0  0  0  0  0  0  0  0
    6.1721   -8.2186   15.9886 N   0  0  0  0  0  0  0  0  0  0  0  0
   11.1764   -2.6600   19.5604 C   0  0  0  0  0  0  0  0  0  0  0  0
    9.5491   -0.6380   24.1912 C   0  0  0  0  0  0  0  0  0  0  0  0
    7.5337   -6.9256   16.9519 C   0  0  0  0  0  0  0  0  0  0  0  0
    9.6782    0.5671   23.5143 C   0  0  0  0  0  0  0  0  0  0  0  0
    8.4532    0.3482   26.0821 C   0  0  0  0  0  0  0  0  0  0  0  0
   10.4239   -1.7677   22.2230 N   0  0  0  0  0  0  0  0  0  0  0  0
    9.9468   -4.5953   20.1709 C   0  0  0  0  0  0  0  0  0  0  0  0
   10.0366   -3.0590   23.9864 N   0  0  0  0  0  0  0  0  0  0  0  0
    7.1191   -7.3636   15.7739 C   0  0  0  0  0  0  0  0  0  0  0  0
    5.9612   -8.3203   17.2732 N   0  0  0  0  0  0  0  0  0  0  0  0
    8.5296   -5.9814   17.1841 C   0  0  0  0  0  0  0  0  0  0  0  0
    9.1527   -5.2118   16.2116 C   0  0  0  0  0  0  0  0  0  0  0  0
   10.3364   -3.8368   22.9255 O   0  0  0  0  0  0  0  0  0  0  0  0
    9.6947   -4.8407   18.8534 C   0  0  0  0  0  0  0  0  0  0  0  0
    9.1596    1.7042   24.1381 C   0  0  0  0  0  0  0  0  0  0  0  0
   11.0456   -2.9774   18.2694 N   0  0  0  0  0  0  0  0  0  0  0  0
   10.4788   -3.0457   21.8593 C   0  0  0  0  0  0  0  0  0  0  0  0
    8.8693   -5.8099   18.4657 N   0  0  0  0  0  0  0  0  0  0  0  0
    8.9892   -0.7926   25.4573 C   0  0  0  0  0  0  0  0  0  0  0  0
   10.5677   -3.4462   20.5323 C   0  0  0  0  0  0  0  0  0  0  0  0
  1  8  1  0
  1 12  4  0
  1 14  4  0
  2  3  4  0
  2 18  4  0
  3 20  4  0
  3 22  4  0
  4 11  4  0
  4 21  4  0
  5  9  4  0
  5 16  4  0
  6 15  4  0
  6 16  4  0
  7 22  4  0
  7 26  4  0
  8 10  4  0
  8 25  4  0
  9 15  4  0
  9 17  1  0
 10 21  4  0
 11 25  4  0
 12 23  4  0
 13 20  4  0
 13 26  4  0
 14 19  4  0
 17 18  4  0
 17 24  4  0
 19 23  4  0
 20 24  4  0
 23 26  1  0
M  END
$$$$

 Created by Python create_sdf_string function

 26 30  0  0  0  0  0  0  0  0999 V2000
   10.0084   -1.8019   23.4945 C   0  0  0  0  0  0  0  0  0  0  0  0
   10.0005   -4.2520   16.5631 C   0  0  0  0  0  0  0  0  0  0  0  0
   10.2759   -4.0036   17.8845 C   0  0  0  0  0  0  0  0  0  0  0  0
    8.5652    1.5478   25.3778 N   0  0  0  0  0  0  0  0  0  0  0  0
    6.8048   -7.5457   17.8752 C   0  0  0  0  0  0  0  0  0  0  0  0
    6.1721   -8.2186   15.9886 N   0  0  0  0  0  0  0  0  0  0  0  0
   11.1764   -2.6600   19.5604 C   0  0  0  0  0  0  0  0  0  0  0  0
    9.5491   -0.6380   24.1912 C   0  0  0  0  0  0  0  0  0  0  0  0
    7.5337   -6.9256   16.9519 C   0  0  0  0  0  0  0  0  0  0  0  0
    9.6782    0.5671   23.5143 C   0  0  0  0  0  0  0  0  0  0  0  0
    8.4532    0.3482   26.0821 C   0  0  0  0  0  0  0  0  0  0  0  0
   10.4239   -1.7677   22.2230 N   0  0  0  0  0  0  0  0  0  0  0  0
    9.9468   -4.5953   20.1709 C   0  0  0  0  0  0  0  0  0  0  0  0
   10.0366   -3.0590   23.9864 N   0  0  0  0  0  0  0  0  0  0  0  0
    7.1191   -7.3636   15.7739 C   0  0  0  0  0  0  0  0  0  0  0  0
    5.9612   -8.3203   17.2732 N   0  0  0  0  0  0  0  0  0  0  0  0
    8.5296   -5.9814   17.1841 C   0  0  0  0  0  0  0  0  0  0  0  0
    9.1527   -5.2118   16.2116 C   0  0  0  0  0  0  0  0  0  0  0  0
   10.3364   -3.8368   22.9255 O   0  0  0  0  0  0  0  0  0  0  0  0
    9.6947   -4.8407   18.8534 C   0  0  0  0  0  0  0  0  0  0  0  0
    9.1596    1.7042   24.1381 C   0  0  0  0  0  0  0  0  0  0  0  0
   11.0456   -2.9774   18.2694 N   0  0  0  0  0  0  0  0  0  0  0  0
   10.4788   -3.0457   21.8593 C   0  0  0  0  0  0  0  0  0  0  0  0
    8.8693   -5.8099   18.4657 N   0  0  0  0  0  0  0  0  0  0  0  0
    8.9892   -0.7926   25.4573 C   0  0  0  0  0  0  0  0  0  0  0  0
   10.5677   -3.4462   20.5323 C   0  0  0  0  0  0  0  0  0  0  0  0
  1  8  1  0
  1 12  4  0
  1 14  4  0
  2  3  4  0
  2 18  4  0
  3 20  4  0
  3 22  4  0
  4 11  4  0
  4 21  4  0
  5  9  4  0
  5 16  4  0
  6 15  4  0
  6 16  4  0
  7 22  4  0
  7 26  4  0
  8 10  4  0
  8 25  4  0
  9 15  4  0
  9 17  1  0
 10 21  4  0
 11 25  4  0
 12 23  4  0
 13 20  4  0
 13 26  4  0
 14 19  4  0
 17 18  4  0
 17 24  4  0
 19 23  4  0
 20 24  4  0
 23 26  1  0
M  END
$$$$

 Created by Python create_sdf_string function

 26 30  0  0  0  0  0  0  0  0999 V2000
   10.0084   -1.8019   23.4945 C   0  0  0  0  0  0  0  0  0  0  0  0
   10.0005   -4.2520   16.5631 C   0  0  0  0  0  0  0  0  0  0  0  0
   10.2759   -4.0036   17.8845 C   0  0  0  0  0  0  0  0  0  0  0  0
    8.5652    1.5478   25.3778 N   0  0  0  0  0  0  0  0  0  0  0  0
    6.8048   -7.5457   17.8752 C   0  0  0  0  0  0  0  0  0  0  0  0
    6.1721   -8.2186   15.9886 N   0  0  0  0  0  0  0  0  0  0  0  0
   11.1764   -2.6600   19.5604 C   0  0  0  0  0  0  0  0  0  0  0  0
    9.5491   -0.6380   24.1912 C   0  0  0  0  0  0  0  0  0  0  0  0
    7.5337   -6.9256   16.9519 C   0  0  0  0  0  0  0  0  0  0  0  0
    9.6782    0.5671   23.5143 C   0  0  0  0  0  0  0  0  0  0  0  0
    8.4532    0.3482   26.0821 C   0  0  0  0  0  0  0  0  0  0  0  0
   10.4239   -1.7677   22.2230 N   0  0  0  0  0  0  0  0  0  0  0  0
    9.9468   -4.5953   20.1709 C   0  0  0  0  0  0  0  0  0  0  0  0
   10.0366   -3.0590   23.9864 N   0  0  0  0  0  0  0  0  0  0  0  0
    7.1191   -7.3636   15.7739 C   0  0  0  0  0  0  0  0  0  0  0  0
    5.9612   -8.3203   17.2732 N   0  0  0  0  0  0  0  0  0  0  0  0
    8.5296   -5.9814   17.1841 C   0  0  0  0  0  0  0  0  0  0  0  0
    9.1527   -5.2118   16.2116 C   0  0  0  0  0  0  0  0  0  0  0  0
   10.3364   -3.8368   22.9255 O   0  0  0  0  0  0  0  0  0  0  0  0
    9.6947   -4.8407   18.8534 C   0  0  0  0  0  0  0  0  0  0  0  0
    9.1596    1.7042   24.1381 C   0  0  0  0  0  0  0  0  0  0  0  0
   11.0456   -2.9774   18.2694 N   0  0  0  0  0  0  0  0  0  0  0  0
   10.4788   -3.0457   21.8593 C   0  0  0  0  0  0  0  0  0  0  0  0
    8.8693   -5.8099   18.4657 N   0  0  0  0  0  0  0  0  0  0  0  0
    8.9892   -0.7926   25.4573 C   0  0  0  0  0  0  0  0  0  0  0  0
   10.5677   -3.4462   20.5323 C   0  0  0  0  0  0  0  0  0  0  0  0
  1  8  1  0
  1 12  4  0
  1 14  4  0
  2  3  4  0
  2 18  4  0
  3 20  4  0
  3 22  4  0
  4 11  4  0
  4 21  4  0
  5  9  4  0
  5 16  4  0
  6 15  4  0
  6 16  4  0
  7 22  4  0
  7 26  4  0
  8 10  4  0
  8 25  4  0
  9 15  4  0
  9 17  1  0
 10 21  4  0
 11 25  4  0
 12 23  4  0
 13 20  4  0
 13 26  4  0
 14 19  4  0
 17 18  4  0
 17 24  4  0
 19 23  4  0
 20 24  4  0
 23 26  1  0
M  END
$$$$

 Created by Python create_sdf_string function

 26 30  0  0  0  0  0  0  0  0999 V2000
   10.0084   -1.8019   23.4945 C   0  0  0  0  0  0  0  0  0  0  0  0
   10.0005   -4.2520   16.5631 C   0  0  0  0  0  0  0  0  0  0  0  0
   10.2759   -4.0036   17.8845 C   0  0  0  0  0  0  0  0  0  0  0  0
    8.5652    1.5478   25.3778 N   0  0  0  0  0  0  0  0  0  0  0  0
    6.8048   -7.5457   17.8752 C   0  0  0  0  0  0  0  0  0  0  0  0
    6.1721   -8.2186   15.9886 N   0  0  0  0  0  0  0  0  0  0  0  0
   11.1764   -2.6600   19.5604 C   0  0  0  0  0  0  0  0  0  0  0  0
    9.5491   -0.6380   24.1912 C   0  0  0  0  0  0  0  0  0  0  0  0
    7.5337   -6.9256   16.9519 C   0  0  0  0  0  0  0  0  0  0  0  0
    9.6782    0.5671   23.5143 C   0  0  0  0  0  0  0  0  0  0  0  0
    8.4532    0.3482   26.0821 C   0  0  0  0  0  0  0  0  0  0  0  0
   10.4239   -1.7677   22.2230 N   0  0  0  0  0  0  0  0  0  0  0  0
    9.9468   -4.5953   20.1709 C   0  0  0  0  0  0  0  0  0  0  0  0
   10.0366   -3.0590   23.9864 N   0  0  0  0  0  0  0  0  0  0  0  0
    7.1191   -7.3636   15.7739 C   0  0  0  0  0  0  0  0  0  0  0  0
    5.9612   -8.3203   17.2732 N   0  0  0  0  0  0  0  0  0  0  0  0
    8.5296   -5.9814   17.1841 C   0  0  0  0  0  0  0  0  0  0  0  0
    9.1527   -5.2118   16.2116 C   0  0  0  0  0  0  0  0  0  0  0  0
   10.3364   -3.8368   22.9255 O   0  0  0  0  0  0  0  0  0  0  0  0
    9.6947   -4.8407   18.8534 C   0  0  0  0  0  0  0  0  0  0  0  0
    9.1596    1.7042   24.1381 C   0  0  0  0  0  0  0  0  0  0  0  0
   11.0456   -2.9774   18.2694 N   0  0  0  0  0  0  0  0  0  0  0  0
   10.4788   -3.0457   21.8593 C   0  0  0  0  0  0  0  0  0  0  0  0
    8.8693   -5.8099   18.4657 N   0  0  0  0  0  0  0  0  0  0  0  0
    8.9892   -0.7926   25.4573 C   0  0  0  0  0  0  0  0  0  0  0  0
   10.5677   -3.4462   20.5323 C   0  0  0  0  0  0  0  0  0  0  0  0
  1  8  1  0
  1 12  4  0
  1 14  4  0
  2  3  4  0
  2 18  4  0
  3 20  4  0
  3 22  4  0
  4 11  4  0
  4 21  4  0
  5  9  4  0
  5 16  4  0
  6 15  4  0
  6 16  4  0
  7 22  4  0
  7 26  4  0
  8 10  4  0
  8 25  4  0
  9 15  4  0
  9 17  1  0
 10 21  4  0
 11 25  4  0
 12 23  4  0
 13 20  4  0
 13 26  4  0
 14 19  4  0
 17 18  4  0
 17 24  4  0
 19 23  4  0
 20 24  4  0
 23 26  1  0
M  END
$$$$

 Created by Python create_sdf_string function

 26 30  0  0  0  0  0  0  0  0999 V2000
   10.0084   -1.8019   23.4945 C   0  0  0  0  0  0  0  0  0  0  0  0
   10.0005   -4.2520   16.5631 C   0  0  0  0  0  0  0  0  0  0  0  0
   10.2759   -4.0036   17.8845 C   0  0  0  0  0  0  0  0  0  0  0  0
    8.5652    1.5478   25.3778 N   0  0  0  0  0  0  0  0  0  0  0  0
    6.8048   -7.5457   17.8752 C   0  0  0  0  0  0  0  0  0  0  0  0
    6.1721   -8.2186   15.9886 N   0  0  0  0  0  0  0  0  0  0  0  0
   11.1764   -2.6600   19.5604 C   0  0  0  0  0  0  0  0  0  0  0  0
    9.5491   -0.6380   24.1912 C   0  0  0  0  0  0  0  0  0  0  0  0
    7.5337   -6.9256   16.9519 C   0  0  0  0  0  0  0  0  0  0  0  0
    9.6782    0.5671   23.5143 C   0  0  0  0  0  0  0  0  0  0  0  0
    8.4532    0.3482   26.0821 C   0  0  0  0  0  0  0  0  0  0  0  0
   10.4239   -1.7677   22.2230 N   0  0  0  0  0  0  0  0  0  0  0  0
    9.9468   -4.5953   20.1709 C   0  0  0  0  0  0  0  0  0  0  0  0
   10.0366   -3.0590   23.9864 N   0  0  0  0  0  0  0  0  0  0  0  0
    7.1191   -7.3636   15.7739 C   0  0  0  0  0  0  0  0  0  0  0  0
    5.9612   -8.3203   17.2732 N   0  0  0  0  0  0  0  0  0  0  0  0
    8.5296   -5.9814   17.1841 C   0  0  0  0  0  0  0  0  0  0  0  0
    9.1527   -5.2118   16.2116 C   0  0  0  0  0  0  0  0  0  0  0  0
   10.3364   -3.8368   22.9255 O   0  0  0  0  0  0  0  0  0  0  0  0
    9.6947   -4.8407   18.8534 C   0  0  0  0  0  0  0  0  0  0  0  0
    9.1596    1.7042   24.1381 C   0  0  0  0  0  0  0  0  0  0  0  0
   11.0456   -2.9774   18.2694 N   0  0  0  0  0  0  0  0  0  0  0  0
   10.4788   -3.0457   21.8593 C   0  0  0  0  0  0  0  0  0  0  0  0
    8.8693   -5.8099   18.4657 N   0  0  0  0  0  0  0  0  0  0  0  0
    8.9892   -0.7926   25.4573 C   0  0  0  0  0  0  0  0  0  0  0  0
   10.5677   -3.4462   20.5323 C   0  0  0  0  0  0  0  0  0  0  0  0
  1  8  1  0
  1 12  4  0
  1 14  4  0
  2  3  4  0
  2 18  4  0
  3 20  4  0
  3 22  4  0
  4 11  4  0
  4 21  4  0
  5  9  4  0
  5 16  4  0
  6 15  4  0
  6 16  4  0
  7 22  4  0
  7 26  4  0
  8 10  4  0
  8 25  4  0
  9 15  4  0
  9 17  1  0
 10 21  4  0
 11 25  4  0
 12 23  4  0
 13 20  4  0
 13 26  4  0
 14 19  4  0
 17 18  4  0
 17 24  4  0
 19 23  4  0
 20 24  4  0
 23 26  1  0
M  END
$$$$

 Created by Python create_sdf_string function

 26 30  0  0  0  0  0  0  0  0999 V2000
   10.0084   -1.8019   23.4945 C   0  0  0  0  0  0  0  0  0  0  0  0
   10.0005   -4.2520   16.5631 C   0  0  0  0  0  0  0  0  0  0  0  0
   10.2759   -4.0036   17.8845 C   0  0  0  0  0  0  0  0  0  0  0  0
    8.5652    1.5478   25.3778 N   0  0  0  0  0  0  0  0  0  0  0  0
    6.8048   -7.5457   17.8752 C   0  0  0  0  0  0  0  0  0  0  0  0
    6.1721   -8.2186   15.9886 N   0  0  0  0  0  0  0  0  0  0  0  0
   11.1764   -2.6600   19.5604 C   0  0  0  0  0  0  0  0  0  0  0  0
    9.5491   -0.6380   24.1912 C   0  0  0  0  0  0  0  0  0  0  0  0
    7.5337   -6.9256   16.9519 C   0  0  0  0  0  0  0  0  0  0  0  0
    9.6782    0.5671   23.5143 C   0  0  0  0  0  0  0  0  0  0  0  0
    8.4532    0.3482   26.0821 C   0  0  0  0  0  0  0  0  0  0  0  0
   10.4239   -1.7677   22.2230 N   0  0  0  0  0  0  0  0  0  0  0  0
    9.9468   -4.5953   20.1709 C   0  0  0  0  0  0  0  0  0  0  0  0
   10.0366   -3.0590   23.9864 N   0  0  0  0  0  0  0  0  0  0  0  0
    7.1191   -7.3636   15.7739 C   0  0  0  0  0  0  0  0  0  0  0  0
    5.9612   -8.3203   17.2732 N   0  0  0  0  0  0  0  0  0  0  0  0
    8.5296   -5.9814   17.1841 C   0  0  0  0  0  0  0  0  0  0  0  0
    9.1527   -5.2118   16.2116 C   0  0  0  0  0  0  0  0  0  0  0  0
   10.3364   -3.8368   22.9255 O   0  0  0  0  0  0  0  0  0  0  0  0
    9.6947   -4.8407   18.8534 C   0  0  0  0  0  0  0  0  0  0  0  0
    9.1596    1.7042   24.1381 C   0  0  0  0  0  0  0  0  0  0  0  0
   11.0456   -2.9774   18.2694 N   0  0  0  0  0  0  0  0  0  0  0  0
   10.4788   -3.0457   21.8593 C   0  0  0  0  0  0  0  0  0  0  0  0
    8.8693   -5.8099   18.4657 N   0  0  0  0  0  0  0  0  0  0  0  0
    8.9892   -0.7926   25.4573 C   0  0  0  0  0  0  0  0  0  0  0  0
   10.5677   -3.4462   20.5323 C   0  0  0  0  0  0  0  0  0  0  0  0
  1  8  1  0
  1 12  4  0
  1 14  4  0
  2  3  4  0
  2 18  4  0
  3 20  4  0
  3 22  4  0
  4 11  4  0
  4 21  4  0
  5  9  4  0
  5 16  4  0
  6 15  4  0
  6 16  4  0
  7 22  4  0
  7 26  4  0
  8 10  4  0
  8 25  4  0
  9 15  4  0
  9 17  1  0
 10 21  4  0
 11 25  4  0
 12 23  4  0
 13 20  4  0
 13 26  4  0
 14 19  4  0
 17 18  4  0
 17 24  4  0
 19 23  4  0
 20 24  4  0
 23 26  1  0
M  END
$$$$

 Created by Python create_sdf_string function

 26 30  0  0  0  0  0  0  0  0999 V2000
   10.0084   -1.8019   23.4945 C   0  0  0  0  0  0  0  0  0  0  0  0
   10.0005   -4.2520   16.5631 C   0  0  0  0  0  0  0  0  0  0  0  0
   10.2759   -4.0036   17.8845 C   0  0  0  0  0  0  0  0  0  0  0  0
    8.5652    1.5478   25.3778 N   0  0  0  0  0  0  0  0  0  0  0  0
    6.8048   -7.5457   17.8752 C   0  0  0  0  0  0  0  0  0  0  0  0
    6.1721   -8.2186   15.9886 N   0  0  0  0  0  0  0  0  0  0  0  0
   11.1764   -2.6600   19.5604 C   0  0  0  0  0  0  0  0  0  0  0  0
    9.5491   -0.6380   24.1912 C   0  0  0  0  0  0  0  0  0  0  0  0
    7.5337   -6.9256   16.9519 C   0  0  0  0  0  0  0  0  0  0  0  0
    9.6782    0.5671   23.5143 C   0  0  0  0  0  0  0  0  0  0  0  0
    8.4532    0.3482   26.0821 C   0  0  0  0  0  0  0  0  0  0  0  0
   10.4239   -1.7677   22.2230 N   0  0  0  0  0  0  0  0  0  0  0  0
    9.9468   -4.5953   20.1709 C   0  0  0  0  0  0  0  0  0  0  0  0
   10.0366   -3.0590   23.9864 N   0  0  0  0  0  0  0  0  0  0  0  0
    7.1191   -7.3636   15.7739 C   0  0  0  0  0  0  0  0  0  0  0  0
    5.9612   -8.3203   17.2732 N   0  0  0  0  0  0  0  0  0  0  0  0
    8.5296   -5.9814   17.1841 C   0  0  0  0  0  0  0  0  0  0  0  0
    9.1527   -5.2118   16.2116 C   0  0  0  0  0  0  0  0  0  0  0  0
   10.3364   -3.8368   22.9255 O   0  0  0  0  0  0  0  0  0  0  0  0
    9.6947   -4.8407   18.8534 C   0  0  0  0  0  0  0  0  0  0  0  0
    9.1596    1.7042   24.1381 C   0  0  0  0  0  0  0  0  0  0  0  0
   11.0456   -2.9774   18.2694 N   0  0  0  0  0  0  0  0  0  0  0  0
   10.4788   -3.0457   21.8593 C   0  0  0  0  0  0  0  0  0  0  0  0
    8.8693   -5.8099   18.4657 N   0  0  0  0  0  0  0  0  0  0  0  0
    8.9892   -0.7926   25.4573 C   0  0  0  0  0  0  0  0  0  0  0  0
   10.5677   -3.4462   20.5323 C   0  0  0  0  0  0  0  0  0  0  0  0
  1  8  1  0
  1 12  4  0
  1 14  4  0
  2  3  4  0
  2 18  4  0
  3 20  4  0
  3 22  4  0
  4 11  4  0
  4 21  4  0
  5  9  4  0
  5 16  4  0
  6 15  4  0
  6 16  4  0
  7 22  4  0
  7 26  4  0
  8 10  4  0
  8 25  4  0
  9 15  4  0
  9 17  1  0
 10 21  4  0
 11 25  4  0
 12 23  4  0
 13 20  4  0
 13 26  4  0
 14 19  4  0
 17 18  4  0
 17 24  4  0
 19 23  4  0
 20 24  4  0
 23 26  1  0
M  END
$$$$

 Created by Python create_sdf_string function

 26 30  0  0  0  0  0  0  0  0999 V2000
   10.0084   -1.8019   23.4945 C   0  0  0  0  0  0  0  0  0  0  0  0
   10.0005   -4.2520   16.5631 C   0  0  0  0  0  0  0  0  0  0  0  0
   10.2759   -4.0036   17.8845 C   0  0  0  0  0  0  0  0  0  0  0  0
    8.5652    1.5478   25.3778 N   0  0  0  0  0  0  0  0  0  0  0  0
    6.8048   -7.5457   17.8752 C   0  0  0  0  0  0  0  0  0  0  0  0
    6.1721   -8.2186   15.9886 N   0  0  0  0  0  0  0  0  0  0  0  0
   11.1764   -2.6600   19.5604 C   0  0  0  0  0  0  0  0  0  0  0  0
    9.5491   -0.6380   24.1912 C   0  0  0  0  0  0  0  0  0  0  0  0
    7.5337   -6.9256   16.9519 C   0  0  0  0  0  0  0  0  0  0  0  0
    9.6782    0.5671   23.5143 C   0  0  0  0  0  0  0  0  0  0  0  0
    8.4532    0.3482   26.0821 C   0  0  0  0  0  0  0  0  0  0  0  0
   10.4239   -1.7677   22.2230 N   0  0  0  0  0  0  0  0  0  0  0  0
    9.9468   -4.5953   20.1709 C   0  0  0  0  0  0  0  0  0  0  0  0
   10.0366   -3.0590   23.9864 N   0  0  0  0  0  0  0  0  0  0  0  0
    7.1191   -7.3636   15.7739 C   0  0  0  0  0  0  0  0  0  0  0  0
    5.9612   -8.3203   17.2732 N   0  0  0  0  0  0  0  0  0  0  0  0
    8.5296   -5.9814   17.1841 C   0  0  0  0  0  0  0  0  0  0  0  0
    9.1527   -5.2118   16.2116 C   0  0  0  0  0  0  0  0  0  0  0  0
   10.3364   -3.8368   22.9255 O   0  0  0  0  0  0  0  0  0  0  0  0
    9.6947   -4.8407   18.8534 C   0  0  0  0  0  0  0  0  0  0  0  0
    9.1596    1.7042   24.1381 C   0  0  0  0  0  0  0  0  0  0  0  0
   11.0456   -2.9774   18.2694 N   0  0  0  0  0  0  0  0  0  0  0  0
   10.4788   -3.0457   21.8593 C   0  0  0  0  0  0  0  0  0  0  0  0
    8.8693   -5.8099   18.4657 N   0  0  0  0  0  0  0  0  0  0  0  0
    8.9892   -0.7926   25.4573 C   0  0  0  0  0  0  0  0  0  0  0  0
   10.5677   -3.4462   20.5323 C   0  0  0  0  0  0  0  0  0  0  0  0
  1  8  1  0
  1 12  4  0
  1 14  4  0
  2  3  4  0
  2 18  4  0
  3 20  4  0
  3 22  4  0
  4 11  4  0
  4 21  4  0
  5  9  4  0
  5 16  4  0
  6 15  4  0
  6 16  4  0
  7 22  4  0
  7 26  4  0
  8 10  4  0
  8 25  4  0
  9 15  4  0
  9 17  1  0
 10 21  4  0
 11 25  4  0
 12 23  4  0
 13 20  4  0
 13 26  4  0
 14 19  4  0
 17 18  4  0
 17 24  4  0
 19 23  4  0
 20 24  4  0
 23 26  1  0
M  END
$$$$

 Created by Python create_sdf_string function

 26 30  0  0  0  0  0  0  0  0999 V2000
   10.0084   -1.8019   23.4945 C   0  0  0  0  0  0  0  0  0  0  0  0
   10.0005   -4.2520   16.5631 C   0  0  0  0  0  0  0  0  0  0  0  0
   10.2759   -4.0036   17.8845 C   0  0  0  0  0  0  0  0  0  0  0  0
    8.5652    1.5478   25.3778 N   0  0  0  0  0  0  0  0  0  0  0  0
    6.8048   -7.5457   17.8752 C   0  0  0  0  0  0  0  0  0  0  0  0
    6.1721   -8.2186   15.9886 N   0  0  0  0  0  0  0  0  0  0  0  0
   11.1764   -2.6600   19.5604 C   0  0  0  0  0  0  0  0  0  0  0  0
    9.5491   -0.6380   24.1912 C   0  0  0  0  0  0  0  0  0  0  0  0
    7.5337   -6.9256   16.9519 C   0  0  0  0  0  0  0  0  0  0  0  0
    9.6782    0.5671   23.5143 C   0  0  0  0  0  0  0  0  0  0  0  0
    8.4532    0.3482   26.0821 C   0  0  0  0  0  0  0  0  0  0  0  0
   10.4239   -1.7677   22.2230 N   0  0  0  0  0  0  0  0  0  0  0  0
    9.9468   -4.5953   20.1709 C   0  0  0  0  0  0  0  0  0  0  0  0
   10.0366   -3.0590   23.9864 N   0  0  0  0  0  0  0  0  0  0  0  0
    7.1191   -7.3636   15.7739 C   0  0  0  0  0  0  0  0  0  0  0  0
    5.9612   -8.3203   17.2732 N   0  0  0  0  0  0  0  0  0  0  0  0
    8.5296   -5.9814   17.1841 C   0  0  0  0  0  0  0  0  0  0  0  0
    9.1527   -5.2118   16.2116 C   0  0  0  0  0  0  0  0  0  0  0  0
   10.3364   -3.8368   22.9255 O   0  0  0  0  0  0  0  0  0  0  0  0
    9.6947   -4.8407   18.8534 C   0  0  0  0  0  0  0  0  0  0  0  0
    9.1596    1.7042   24.1381 C   0  0  0  0  0  0  0  0  0  0  0  0
   11.0456   -2.9774   18.2694 N   0  0  0  0  0  0  0  0  0  0  0  0
   10.4788   -3.0457   21.8593 C   0  0  0  0  0  0  0  0  0  0  0  0
    8.8693   -5.8099   18.4657 N   0  0  0  0  0  0  0  0  0  0  0  0
    8.9892   -0.7926   25.4573 C   0  0  0  0  0  0  0  0  0  0  0  0
   10.5677   -3.4462   20.5323 C   0  0  0  0  0  0  0  0  0  0  0  0
  1  8  1  0
  1 12  4  0
  1 14  4  0
  2  3  4  0
  2 18  4  0
  3 20  4  0
  3 22  4  0
  4 11  4  0
  4 21  4  0
  5  9  4  0
  5 16  4  0
  6 15  4  0
  6 16  4  0
  7 22  4  0
  7 26  4  0
  8 10  4  0
  8 25  4  0
  9 15  4  0
  9 17  1  0
 10 21  4  0
 11 25  4  0
 12 23  4  0
 13 20  4  0
 13 26  4  0
 14 19  4  0
 17 18  4  0
 17 24  4  0
 19 23  4  0
 20 24  4  0
 23 26  1  0
M  END
$$$$

 Created by Python create_sdf_string function

 26 30  0  0  0  0  0  0  0  0999 V2000
   10.0084   -1.8019   23.4945 C   0  0  0  0  0  0  0  0  0  0  0  0
   10.0005   -4.2520   16.5631 C   0  0  0  0  0  0  0  0  0  0  0  0
   10.2759   -4.0036   17.8845 C   0  0  0  0  0  0  0  0  0  0  0  0
    8.5652    1.5478   25.3778 N   0  0  0  0  0  0  0  0  0  0  0  0
    6.8048   -7.5457   17.8752 C   0  0  0  0  0  0  0  0  0  0  0  0
    6.1721   -8.2186   15.9886 N   0  0  0  0  0  0  0  0  0  0  0  0
   11.1764   -2.6600   19.5604 C   0  0  0  0  0  0  0  0  0  0  0  0
    9.5491   -0.6380   24.1912 C   0  0  0  0  0  0  0  0  0  0  0  0
    7.5337   -6.9256   16.9519 C   0  0  0  0  0  0  0  0  0  0  0  0
    9.6782    0.5671   23.5143 C   0  0  0  0  0  0  0  0  0  0  0  0
    8.4532    0.3482   26.0821 C   0  0  0  0  0  0  0  0  0  0  0  0
   10.4239   -1.7677   22.2230 N   0  0  0  0  0  0  0  0  0  0  0  0
    9.9468   -4.5953   20.1709 C   0  0  0  0  0  0  0  0  0  0  0  0
   10.0366   -3.0590   23.9864 N   0  0  0  0  0  0  0  0  0  0  0  0
    7.1191   -7.3636   15.7739 C   0  0  0  0  0  0  0  0  0  0  0  0
    5.9612   -8.3203   17.2732 N   0  0  0  0  0  0  0  0  0  0  0  0
    8.5296   -5.9814   17.1841 C   0  0  0  0  0  0  0  0  0  0  0  0
    9.1527   -5.2118   16.2116 C   0  0  0  0  0  0  0  0  0  0  0  0
   10.3364   -3.8368   22.9255 O   0  0  0  0  0  0  0  0  0  0  0  0
    9.6947   -4.8407   18.8534 C   0  0  0  0  0  0  0  0  0  0  0  0
    9.1596    1.7042   24.1381 C   0  0  0  0  0  0  0  0  0  0  0  0
   11.0456   -2.9774   18.2694 N   0  0  0  0  0  0  0  0  0  0  0  0
   10.4788   -3.0457   21.8593 C   0  0  0  0  0  0  0  0  0  0  0  0
    8.8693   -5.8099   18.4657 N   0  0  0  0  0  0  0  0  0  0  0  0
    8.9892   -0.7926   25.4573 C   0  0  0  0  0  0  0  0  0  0  0  0
   10.5677   -3.4462   20.5323 C   0  0  0  0  0  0  0  0  0  0  0  0
  1  8  1  0
  1 12  4  0
  1 14  4  0
  2  3  4  0
  2 18  4  0
  3 20  4  0
  3 22  4  0
  4 11  4  0
  4 21  4  0
  5  9  4  0
  5 16  4  0
  6 15  4  0
  6 16  4  0
  7 22  4  0
  7 26  4  0
  8 10  4  0
  8 25  4  0
  9 15  4  0
  9 17  1  0
 10 21  4  0
 11 25  4  0
 12 23  4  0
 13 20  4  0
 13 26  4  0
 14 19  4  0
 17 18  4  0
 17 24  4  0
 19 23  4  0
 20 24  4  0
 23 26  1  0
M  END
$$$$

 Created by Python create_sdf_string function

 26 30  0  0  0  0  0  0  0  0999 V2000
   10.0084   -1.8019   23.4945 C   0  0  0  0  0  0  0  0  0  0  0  0
   10.0005   -4.2520   16.5631 C   0  0  0  0  0  0  0  0  0  0  0  0
   10.2759   -4.0036   17.8845 C   0  0  0  0  0  0  0  0  0  0  0  0
    8.5652    1.5478   25.3778 N   0  0  0  0  0  0  0  0  0  0  0  0
    6.8048   -7.5457   17.8752 C   0  0  0  0  0  0  0  0  0  0  0  0
    6.1721   -8.2186   15.9886 N   0  0  0  0  0  0  0  0  0  0  0  0
   11.1764   -2.6600   19.5604 C   0  0  0  0  0  0  0  0  0  0  0  0
    9.5491   -0.6380   24.1912 C   0  0  0  0  0  0  0  0  0  0  0  0
    7.5337   -6.9256   16.9519 C   0  0  0  0  0  0  0  0  0  0  0  0
    9.6782    0.5671   23.5143 C   0  0  0  0  0  0  0  0  0  0  0  0
    8.4532    0.3482   26.0821 C   0  0  0  0  0  0  0  0  0  0  0  0
   10.4239   -1.7677   22.2230 N   0  0  0  0  0  0  0  0  0  0  0  0
    9.9468   -4.5953   20.1709 C   0  0  0  0  0  0  0  0  0  0  0  0
   10.0366   -3.0590   23.9864 N   0  0  0  0  0  0  0  0  0  0  0  0
    7.1191   -7.3636   15.7739 C   0  0  0  0  0  0  0  0  0  0  0  0
    5.9612   -8.3203   17.2732 N   0  0  0  0  0  0  0  0  0  0  0  0
    8.5296   -5.9814   17.1841 C   0  0  0  0  0  0  0  0  0  0  0  0
    9.1527   -5.2118   16.2116 C   0  0  0  0  0  0  0  0  0  0  0  0
   10.3364   -3.8368   22.9255 O   0  0  0  0  0  0  0  0  0  0  0  0
    9.6947   -4.8407   18.8534 C   0  0  0  0  0  0  0  0  0  0  0  0
    9.1596    1.7042   24.1381 C   0  0  0  0  0  0  0  0  0  0  0  0
   11.0456   -2.9774   18.2694 N   0  0  0  0  0  0  0  0  0  0  0  0
   10.4788   -3.0457   21.8593 C   0  0  0  0  0  0  0  0  0  0  0  0
    8.8693   -5.8099   18.4657 N   0  0  0  0  0  0  0  0  0  0  0  0
    8.9892   -0.7926   25.4573 C   0  0  0  0  0  0  0  0  0  0  0  0
   10.5677   -3.4462   20.5323 C   0  0  0  0  0  0  0  0  0  0  0  0
  1  8  1  0
  1 12  4  0
  1 14  4  0
  2  3  4  0
  2 18  4  0
  3 20  4  0
  3 22  4  0
  4 11  4  0
  4 21  4  0
  5  9  4  0
  5 16  4  0
  6 15  4  0
  6 16  4  0
  7 22  4  0
  7 26  4  0
  8 10  4  0
  8 25  4  0
  9 15  4  0
  9 17  1  0
 10 21  4  0
 11 25  4  0
 12 23  4  0
 13 20  4  0
 13 26  4  0
 14 19  4  0
 17 18  4  0
 17 24  4  0
 19 23  4  0
 20 24  4  0
 23 26  1  0
M  END
$$$$

 Created by Python create_sdf_string function

 26 30  0  0  0  0  0  0  0  0999 V2000
   10.0084   -1.8019   23.4945 C   0  0  0  0  0  0  0  0  0  0  0  0
   10.0005   -4.2520   16.5631 C   0  0  0  0  0  0  0  0  0  0  0  0
   10.2759   -4.0036   17.8845 C   0  0  0  0  0  0  0  0  0  0  0  0
    8.5652    1.5478   25.3778 N   0  0  0  0  0  0  0  0  0  0  0  0
    6.8048   -7.5457   17.8752 C   0  0  0  0  0  0  0  0  0  0  0  0
    6.1721   -8.2186   15.9886 N   0  0  0  0  0  0  0  0  0  0  0  0
   11.1764   -2.6600   19.5604 C   0  0  0  0  0  0  0  0  0  0  0  0
    9.5491   -0.6380   24.1912 C   0  0  0  0  0  0  0  0  0  0  0  0
    7.5337   -6.9256   16.9519 C   0  0  0  0  0  0  0  0  0  0  0  0
    9.6782    0.5671   23.5143 C   0  0  0  0  0  0  0  0  0  0  0  0
    8.4532    0.3482   26.0821 C   0  0  0  0  0  0  0  0  0  0  0  0
   10.4239   -1.7677   22.2230 N   0  0  0  0  0  0  0  0  0  0  0  0
    9.9468   -4.5953   20.1709 C   0  0  0  0  0  0  0  0  0  0  0  0
   10.0366   -3.0590   23.9864 N   0  0  0  0  0  0  0  0  0  0  0  0
    7.1191   -7.3636   15.7739 C   0  0  0  0  0  0  0  0  0  0  0  0
    5.9612   -8.3203   17.2732 N   0  0  0  0  0  0  0  0  0  0  0  0
    8.5296   -5.9814   17.1841 C   0  0  0  0  0  0  0  0  0  0  0  0
    9.1527   -5.2118   16.2116 C   0  0  0  0  0  0  0  0  0  0  0  0
   10.3364   -3.8368   22.9255 O   0  0  0  0  0  0  0  0  0  0  0  0
    9.6947   -4.8407   18.8534 C   0  0  0  0  0  0  0  0  0  0  0  0
    9.1596    1.7042   24.1381 C   0  0  0  0  0  0  0  0  0  0  0  0
   11.0456   -2.9774   18.2694 N   0  0  0  0  0  0  0  0  0  0  0  0
   10.4788   -3.0457   21.8593 C   0  0  0  0  0  0  0  0  0  0  0  0
    8.8693   -5.8099   18.4657 N   0  0  0  0  0  0  0  0  0  0  0  0
    8.9892   -0.7926   25.4573 C   0  0  0  0  0  0  0  0  0  0  0  0
   10.5677   -3.4462   20.5323 C   0  0  0  0  0  0  0  0  0  0  0  0
  1  8  1  0
  1 12  4  0
  1 14  4  0
  2  3  4  0
  2 18  4  0
  3 20  4  0
  3 22  4  0
  4 11  4  0
  4 21  4  0
  5  9  4  0
  5 16  4  0
  6 15  4  0
  6 16  4  0
  7 22  4  0
  7 26  4  0
  8 10  4  0
  8 25  4  0
  9 15  4  0
  9 17  1  0
 10 21  4  0
 11 25  4  0
 12 23  4  0
 13 20  4  0
 13 26  4  0
 14 19  4  0
 17 18  4  0
 17 24  4  0
 19 23  4  0
 20 24  4  0
 23 26  1  0
M  END
$$$$

 Created by Python create_sdf_string function

 26 30  0  0  0  0  0  0  0  0999 V2000
   10.0084   -1.8019   23.4945 C   0  0  0  0  0  0  0  0  0  0  0  0
   10.0005   -4.2520   16.5631 C   0  0  0  0  0  0  0  0  0  0  0  0
   10.2759   -4.0036   17.8845 C   0  0  0  0  0  0  0  0  0  0  0  0
    8.5652    1.5478   25.3778 N   0  0  0  0  0  0  0  0  0  0  0  0
    6.8048   -7.5457   17.8752 C   0  0  0  0  0  0  0  0  0  0  0  0
    6.1721   -8.2186   15.9886 N   0  0  0  0  0  0  0  0  0  0  0  0
   11.1764   -2.6600   19.5604 C   0  0  0  0  0  0  0  0  0  0  0  0
    9.5491   -0.6380   24.1912 C   0  0  0  0  0  0  0  0  0  0  0  0
    7.5337   -6.9256   16.9519 C   0  0  0  0  0  0  0  0  0  0  0  0
    9.6782    0.5671   23.5143 C   0  0  0  0  0  0  0  0  0  0  0  0
    8.4532    0.3482   26.0821 C   0  0  0  0  0  0  0  0  0  0  0  0
   10.4239   -1.7677   22.2230 N   0  0  0  0  0  0  0  0  0  0  0  0
    9.9468   -4.5953   20.1709 C   0  0  0  0  0  0  0  0  0  0  0  0
   10.0366   -3.0590   23.9864 N   0  0  0  0  0  0  0  0  0  0  0  0
    7.1191   -7.3636   15.7739 C   0  0  0  0  0  0  0  0  0  0  0  0
    5.9612   -8.3203   17.2732 N   0  0  0  0  0  0  0  0  0  0  0  0
    8.5296   -5.9814   17.1841 C   0  0  0  0  0  0  0  0  0  0  0  0
    9.1527   -5.2118   16.2116 C   0  0  0  0  0  0  0  0  0  0  0  0
   10.3364   -3.8368   22.9255 O   0  0  0  0  0  0  0  0  0  0  0  0
    9.6947   -4.8407   18.8534 C   0  0  0  0  0  0  0  0  0  0  0  0
    9.1596    1.7042   24.1381 C   0  0  0  0  0  0  0  0  0  0  0  0
   11.0456   -2.9774   18.2694 N   0  0  0  0  0  0  0  0  0  0  0  0
   10.4788   -3.0457   21.8593 C   0  0  0  0  0  0  0  0  0  0  0  0
    8.8693   -5.8099   18.4657 N   0  0  0  0  0  0  0  0  0  0  0  0
    8.9892   -0.7926   25.4573 C   0  0  0  0  0  0  0  0  0  0  0  0
   10.5677   -3.4462   20.5323 C   0  0  0  0  0  0  0  0  0  0  0  0
  1  8  1  0
  1 12  4  0
  1 14  4  0
  2  3  4  0
  2 18  4  0
  3 20  4  0
  3 22  4  0
  4 11  4  0
  4 21  4  0
  5  9  4  0
  5 16  4  0
  6 15  4  0
  6 16  4  0
  7 22  4  0
  7 26  4  0
  8 10  4  0
  8 25  4  0
  9 15  4  0
  9 17  1  0
 10 21  4  0
 11 25  4  0
 12 23  4  0
 13 20  4  0
 13 26  4  0
 14 19  4  0
 17 18  4  0
 17 24  4  0
 19 23  4  0
 20 24  4  0
 23 26  1  0
M  END
$$$$

 Created by Python create_sdf_string function

 26 30  0  0  0  0  0  0  0  0999 V2000
   10.0084   -1.8019   23.4945 C   0  0  0  0  0  0  0  0  0  0  0  0
   10.0005   -4.2520   16.5631 C   0  0  0  0  0  0  0  0  0  0  0  0
   10.2759   -4.0036   17.8845 C   0  0  0  0  0  0  0  0  0  0  0  0
    8.5652    1.5478   25.3778 N   0  0  0  0  0  0  0  0  0  0  0  0
    6.8048   -7.5457   17.8752 C   0  0  0  0  0  0  0  0  0  0  0  0
    6.1721   -8.2186   15.9886 N   0  0  0  0  0  0  0  0  0  0  0  0
   11.1764   -2.6600   19.5604 C   0  0  0  0  0  0  0  0  0  0  0  0
    9.5491   -0.6380   24.1912 C   0  0  0  0  0  0  0  0  0  0  0  0
    7.5337   -6.9256   16.9519 C   0  0  0  0  0  0  0  0  0  0  0  0
    9.6782    0.5671   23.5143 C   0  0  0  0  0  0  0  0  0  0  0  0
    8.4532    0.3482   26.0821 C   0  0  0  0  0  0  0  0  0  0  0  0
   10.4239   -1.7677   22.2230 N   0  0  0  0  0  0  0  0  0  0  0  0
    9.9468   -4.5953   20.1709 C   0  0  0  0  0  0  0  0  0  0  0  0
   10.0366   -3.0590   23.9864 N   0  0  0  0  0  0  0  0  0  0  0  0
    7.1191   -7.3636   15.7739 C   0  0  0  0  0  0  0  0  0  0  0  0
    5.9612   -8.3203   17.2732 N   0  0  0  0  0  0  0  0  0  0  0  0
    8.5296   -5.9814   17.1841 C   0  0  0  0  0  0  0  0  0  0  0  0
    9.1527   -5.2118   16.2116 C   0  0  0  0  0  0  0  0  0  0  0  0
   10.3364   -3.8368   22.9255 O   0  0  0  0  0  0  0  0  0  0  0  0
    9.6947   -4.8407   18.8534 C   0  0  0  0  0  0  0  0  0  0  0  0
    9.1596    1.7042   24.1381 C   0  0  0  0  0  0  0  0  0  0  0  0
   11.0456   -2.9774   18.2694 N   0  0  0  0  0  0  0  0  0  0  0  0
   10.4788   -3.0457   21.8593 C   0  0  0  0  0  0  0  0  0  0  0  0
    8.8693   -5.8099   18.4657 N   0  0  0  0  0  0  0  0  0  0  0  0
    8.9892   -0.7926   25.4573 C   0  0  0  0  0  0  0  0  0  0  0  0
   10.5677   -3.4462   20.5323 C   0  0  0  0  0  0  0  0  0  0  0  0
  1  8  1  0
  1 12  4  0
  1 14  4  0
  2  3  4  0
  2 18  4  0
  3 20  4  0
  3 22  4  0
  4 11  4  0
  4 21  4  0
  5  9  4  0
  5 16  4  0
  6 15  4  0
  6 16  4  0
  7 22  4  0
  7 26  4  0
  8 10  4  0
  8 25  4  0
  9 15  4  0
  9 17  1  0
 10 21  4  0
 11 25  4  0
 12 23  4  0
 13 20  4  0
 13 26  4  0
 14 19  4  0
 17 18  4  0
 17 24  4  0
 19 23  4  0
 20 24  4  0
 23 26  1  0
M  END
$$$$

 Created by Python create_sdf_string function

 26 30  0  0  0  0  0  0  0  0999 V2000
   10.0084   -1.8019   23.4945 C   0  0  0  0  0  0  0  0  0  0  0  0
   10.0005   -4.2520   16.5631 C   0  0  0  0  0  0  0  0  0  0  0  0
   10.2759   -4.0036   17.8845 C   0  0  0  0  0  0  0  0  0  0  0  0
    8.5652    1.5478   25.3778 N   0  0  0  0  0  0  0  0  0  0  0  0
    6.8048   -7.5457   17.8752 C   0  0  0  0  0  0  0  0  0  0  0  0
    6.1721   -8.2186   15.9886 N   0  0  0  0  0  0  0  0  0  0  0  0
   11.1764   -2.6600   19.5604 C   0  0  0  0  0  0  0  0  0  0  0  0
    9.5491   -0.6380   24.1912 C   0  0  0  0  0  0  0  0  0  0  0  0
    7.5337   -6.9256   16.9519 C   0  0  0  0  0  0  0  0  0  0  0  0
    9.6782    0.5671   23.5143 C   0  0  0  0  0  0  0  0  0  0  0  0
    8.4532    0.3482   26.0821 C   0  0  0  0  0  0  0  0  0  0  0  0
   10.4239   -1.7677   22.2230 N   0  0  0  0  0  0  0  0  0  0  0  0
    9.9468   -4.5953   20.1709 C   0  0  0  0  0  0  0  0  0  0  0  0
   10.0366   -3.0590   23.9864 N   0  0  0  0  0  0  0  0  0  0  0  0
    7.1191   -7.3636   15.7739 C   0  0  0  0  0  0  0  0  0  0  0  0
    5.9612   -8.3203   17.2732 N   0  0  0  0  0  0  0  0  0  0  0  0
    8.5296   -5.9814   17.1841 C   0  0  0  0  0  0  0  0  0  0  0  0
    9.1527   -5.2118   16.2116 C   0  0  0  0  0  0  0  0  0  0  0  0
   10.3364   -3.8368   22.9255 O   0  0  0  0  0  0  0  0  0  0  0  0
    9.6947   -4.8407   18.8534 C   0  0  0  0  0  0  0  0  0  0  0  0
    9.1596    1.7042   24.1381 C   0  0  0  0  0  0  0  0  0  0  0  0
   11.0456   -2.9774   18.2694 N   0  0  0  0  0  0  0  0  0  0  0  0
   10.4788   -3.0457   21.8593 C   0  0  0  0  0  0  0  0  0  0  0  0
    8.8693   -5.8099   18.4657 N   0  0  0  0  0  0  0  0  0  0  0  0
    8.9892   -0.7926   25.4573 C   0  0  0  0  0  0  0  0  0  0  0  0
   10.5677   -3.4462   20.5323 C   0  0  0  0  0  0  0  0  0  0  0  0
  1  8  1  0
  1 12  4  0
  1 14  4  0
  2  3  4  0
  2 18  4  0
  3 20  4  0
  3 22  4  0
  4 11  4  0
  4 21  4  0
  5  9  4  0
  5 16  4  0
  6 15  4  0
  6 16  4  0
  7 22  4  0
  7 26  4  0
  8 10  4  0
  8 25  4  0
  9 15  4  0
  9 17  1  0
 10 21  4  0
 11 25  4  0
 12 23  4  0
 13 20  4  0
 13 26  4  0
 14 19  4  0
 17 18  4  0
 17 24  4  0
 19 23  4  0
 20 24  4  0
 23 26  1  0
M  END
$$$$

 Created by Python create_sdf_string function

 26 30  0  0  0  0  0  0  0  0999 V2000
   10.0084   -1.8019   23.4945 C   0  0  0  0  0  0  0  0  0  0  0  0
   10.0005   -4.2520   16.5631 C   0  0  0  0  0  0  0  0  0  0  0  0
   10.2759   -4.0036   17.8845 C   0  0  0  0  0  0  0  0  0  0  0  0
    8.5652    1.5478   25.3778 N   0  0  0  0  0  0  0  0  0  0  0  0
    6.8048   -7.5457   17.8752 C   0  0  0  0  0  0  0  0  0  0  0  0
    6.1721   -8.2186   15.9886 N   0  0  0  0  0  0  0  0  0  0  0  0
   11.1764   -2.6600   19.5604 C   0  0  0  0  0  0  0  0  0  0  0  0
    9.5491   -0.6380   24.1912 C   0  0  0  0  0  0  0  0  0  0  0  0
    7.5337   -6.9256   16.9519 C   0  0  0  0  0  0  0  0  0  0  0  0
    9.6782    0.5671   23.5143 C   0  0  0  0  0  0  0  0  0  0  0  0
    8.4532    0.3482   26.0821 C   0  0  0  0  0  0  0  0  0  0  0  0
   10.4239   -1.7677   22.2230 N   0  0  0  0  0  0  0  0  0  0  0  0
    9.9468   -4.5953   20.1709 C   0  0  0  0  0  0  0  0  0  0  0  0
   10.0366   -3.0590   23.9864 N   0  0  0  0  0  0  0  0  0  0  0  0
    7.1191   -7.3636   15.7739 C   0  0  0  0  0  0  0  0  0  0  0  0
    5.9612   -8.3203   17.2732 N   0  0  0  0  0  0  0  0  0  0  0  0
    8.5296   -5.9814   17.1841 C   0  0  0  0  0  0  0  0  0  0  0  0
    9.1527   -5.2118   16.2116 C   0  0  0  0  0  0  0  0  0  0  0  0
   10.3364   -3.8368   22.9255 O   0  0  0  0  0  0  0  0  0  0  0  0
    9.6947   -4.8407   18.8534 C   0  0  0  0  0  0  0  0  0  0  0  0
    9.1596    1.7042   24.1381 C   0  0  0  0  0  0  0  0  0  0  0  0
   11.0456   -2.9774   18.2694 N   0  0  0  0  0  0  0  0  0  0  0  0
   10.4788   -3.0457   21.8593 C   0  0  0  0  0  0  0  0  0  0  0  0
    8.8693   -5.8099   18.4657 N   0  0  0  0  0  0  0  0  0  0  0  0
    8.9892   -0.7926   25.4573 C   0  0  0  0  0  0  0  0  0  0  0  0
   10.5677   -3.4462   20.5323 C   0  0  0  0  0  0  0  0  0  0  0  0
  1  8  1  0
  1 12  4  0
  1 14  4  0
  2  3  4  0
  2 18  4  0
  3 20  4  0
  3 22  4  0
  4 11  4  0
  4 21  4  0
  5  9  4  0
  5 16  4  0
  6 15  4  0
  6 16  4  0
  7 22  4  0
  7 26  4  0
  8 10  4  0
  8 25  4  0
  9 15  4  0
  9 17  1  0
 10 21  4  0
 11 25  4  0
 12 23  4  0
 13 20  4  0
 13 26  4  0
 14 19  4  0
 17 18  4  0
 17 24  4  0
 19 23  4  0
 20 24  4  0
 23 26  1  0
M  END
$$$$

 Created by Python create_sdf_string function

 26 30  0  0  0  0  0  0  0  0999 V2000
   10.0084   -1.8019   23.4945 C   0  0  0  0  0  0  0  0  0  0  0  0
   10.0005   -4.2520   16.5631 C   0  0  0  0  0  0  0  0  0  0  0  0
   10.2759   -4.0036   17.8845 C   0  0  0  0  0  0  0  0  0  0  0  0
    8.5652    1.5478   25.3778 N   0  0  0  0  0  0  0  0  0  0  0  0
    6.8048   -7.5457   17.8752 C   0  0  0  0  0  0  0  0  0  0  0  0
    6.1721   -8.2186   15.9886 N   0  0  0  0  0  0  0  0  0  0  0  0
   11.1764   -2.6600   19.5604 C   0  0  0  0  0  0  0  0  0  0  0  0
    9.5491   -0.6380   24.1912 C   0  0  0  0  0  0  0  0  0  0  0  0
    7.5337   -6.9256   16.9519 C   0  0  0  0  0  0  0  0  0  0  0  0
    9.6782    0.5671   23.5143 C   0  0  0  0  0  0  0  0  0  0  0  0
    8.4532    0.3482   26.0821 C   0  0  0  0  0  0  0  0  0  0  0  0
   10.4239   -1.7677   22.2230 N   0  0  0  0  0  0  0  0  0  0  0  0
    9.9468   -4.5953   20.1709 C   0  0  0  0  0  0  0  0  0  0  0  0
   10.0366   -3.0590   23.9864 N   0  0  0  0  0  0  0  0  0  0  0  0
    7.1191   -7.3636   15.7739 C   0  0  0  0  0  0  0  0  0  0  0  0
    5.9612   -8.3203   17.2732 N   0  0  0  0  0  0  0  0  0  0  0  0
    8.5296   -5.9814   17.1841 C   0  0  0  0  0  0  0  0  0  0  0  0
    9.1527   -5.2118   16.2116 C   0  0  0  0  0  0  0  0  0  0  0  0
   10.3364   -3.8368   22.9255 O   0  0  0  0  0  0  0  0  0  0  0  0
    9.6947   -4.8407   18.8534 C   0  0  0  0  0  0  0  0  0  0  0  0
    9.1596    1.7042   24.1381 C   0  0  0  0  0  0  0  0  0  0  0  0
   11.0456   -2.9774   18.2694 N   0  0  0  0  0  0  0  0  0  0  0  0
   10.4788   -3.0457   21.8593 C   0  0  0  0  0  0  0  0  0  0  0  0
    8.8693   -5.8099   18.4657 N   0  0  0  0  0  0  0  0  0  0  0  0
    8.9892   -0.7926   25.4573 C   0  0  0  0  0  0  0  0  0  0  0  0
   10.5677   -3.4462   20.5323 C   0  0  0  0  0  0  0  0  0  0  0  0
  1  8  1  0
  1 12  4  0
  1 14  4  0
  2  3  4  0
  2 18  4  0
  3 20  4  0
  3 22  4  0
  4 11  4  0
  4 21  4  0
  5  9  4  0
  5 16  4  0
  6 15  4  0
  6 16  4  0
  7 22  4  0
  7 26  4  0
  8 10  4  0
  8 25  4  0
  9 15  4  0
  9 17  1  0
 10 21  4  0
 11 25  4  0
 12 23  4  0
 13 20  4  0
 13 26  4  0
 14 19  4  0
 17 18  4  0
 17 24  4  0
 19 23  4  0
 20 24  4  0
 23 26  1  0
M  END
$$$$

 Created by Python create_sdf_string function

 26 30  0  0  0  0  0  0  0  0999 V2000
   10.0084   -1.8019   23.4945 C   0  0  0  0  0  0  0  0  0  0  0  0
   10.0005   -4.2520   16.5631 C   0  0  0  0  0  0  0  0  0  0  0  0
   10.2759   -4.0036   17.8845 C   0  0  0  0  0  0  0  0  0  0  0  0
    8.5652    1.5478   25.3778 N   0  0  0  0  0  0  0  0  0  0  0  0
    6.8048   -7.5457   17.8752 C   0  0  0  0  0  0  0  0  0  0  0  0
    6.1721   -8.2186   15.9886 N   0  0  0  0  0  0  0  0  0  0  0  0
   11.1764   -2.6600   19.5604 C   0  0  0  0  0  0  0  0  0  0  0  0
    9.5491   -0.6380   24.1912 C   0  0  0  0  0  0  0  0  0  0  0  0
    7.5337   -6.9256   16.9519 C   0  0  0  0  0  0  0  0  0  0  0  0
    9.6782    0.5671   23.5143 C   0  0  0  0  0  0  0  0  0  0  0  0
    8.4532    0.3482   26.0821 C   0  0  0  0  0  0  0  0  0  0  0  0
   10.4239   -1.7677   22.2230 N   0  0  0  0  0  0  0  0  0  0  0  0
    9.9468   -4.5953   20.1709 C   0  0  0  0  0  0  0  0  0  0  0  0
   10.0366   -3.0590   23.9864 N   0  0  0  0  0  0  0  0  0  0  0  0
    7.1191   -7.3636   15.7739 C   0  0  0  0  0  0  0  0  0  0  0  0
    5.9612   -8.3203   17.2732 N   0  0  0  0  0  0  0  0  0  0  0  0
    8.5296   -5.9814   17.1841 C   0  0  0  0  0  0  0  0  0  0  0  0
    9.1527   -5.2118   16.2116 C   0  0  0  0  0  0  0  0  0  0  0  0
   10.3364   -3.8368   22.9255 O   0  0  0  0  0  0  0  0  0  0  0  0
    9.6947   -4.8407   18.8534 C   0  0  0  0  0  0  0  0  0  0  0  0
    9.1596    1.7042   24.1381 C   0  0  0  0  0  0  0  0  0  0  0  0
   11.0456   -2.9774   18.2694 N   0  0  0  0  0  0  0  0  0  0  0  0
   10.4788   -3.0457   21.8593 C   0  0  0  0  0  0  0  0  0  0  0  0
    8.8693   -5.8099   18.4657 N   0  0  0  0  0  0  0  0  0  0  0  0
    8.9892   -0.7926   25.4573 C   0  0  0  0  0  0  0  0  0  0  0  0
   10.5677   -3.4462   20.5323 C   0  0  0  0  0  0  0  0  0  0  0  0
  1  8  1  0
  1 12  4  0
  1 14  4  0
  2  3  4  0
  2 18  4  0
  3 20  4  0
  3 22  4  0
  4 11  4  0
  4 21  4  0
  5  9  4  0
  5 16  4  0
  6 15  4  0
  6 16  4  0
  7 22  4  0
  7 26  4  0
  8 10  4  0
  8 25  4  0
  9 15  4  0
  9 17  1  0
 10 21  4  0
 11 25  4  0
 12 23  4  0
 13 20  4  0
 13 26  4  0
 14 19  4  0
 17 18  4  0
 17 24  4  0
 19 23  4  0
 20 24  4  0
 23 26  1  0
M  END
$$$$

 Created by Python create_sdf_string function

 26 30  0  0  0  0  0  0  0  0999 V2000
   10.0084   -1.8019   23.4945 C   0  0  0  0  0  0  0  0  0  0  0  0
   10.0005   -4.2520   16.5631 C   0  0  0  0  0  0  0  0  0  0  0  0
   10.2759   -4.0036   17.8845 C   0  0  0  0  0  0  0  0  0  0  0  0
    8.5652    1.5478   25.3778 N   0  0  0  0  0  0  0  0  0  0  0  0
    6.8048   -7.5457   17.8752 C   0  0  0  0  0  0  0  0  0  0  0  0
    6.1721   -8.2186   15.9886 N   0  0  0  0  0  0  0  0  0  0  0  0
   11.1764   -2.6600   19.5604 C   0  0  0  0  0  0  0  0  0  0  0  0
    9.5491   -0.6380   24.1912 C   0  0  0  0  0  0  0  0  0  0  0  0
    7.5337   -6.9256   16.9519 C   0  0  0  0  0  0  0  0  0  0  0  0
    9.6782    0.5671   23.5143 C   0  0  0  0  0  0  0  0  0  0  0  0
    8.4532    0.3482   26.0821 C   0  0  0  0  0  0  0  0  0  0  0  0
   10.4239   -1.7677   22.2230 N   0  0  0  0  0  0  0  0  0  0  0  0
    9.9468   -4.5953   20.1709 C   0  0  0  0  0  0  0  0  0  0  0  0
   10.0366   -3.0590   23.9864 N   0  0  0  0  0  0  0  0  0  0  0  0
    7.1191   -7.3636   15.7739 C   0  0  0  0  0  0  0  0  0  0  0  0
    5.9612   -8.3203   17.2732 N   0  0  0  0  0  0  0  0  0  0  0  0
    8.5296   -5.9814   17.1841 C   0  0  0  0  0  0  0  0  0  0  0  0
    9.1527   -5.2118   16.2116 C   0  0  0  0  0  0  0  0  0  0  0  0
   10.3364   -3.8368   22.9255 O   0  0  0  0  0  0  0  0  0  0  0  0
    9.6947   -4.8407   18.8534 C   0  0  0  0  0  0  0  0  0  0  0  0
    9.1596    1.7042   24.1381 C   0  0  0  0  0  0  0  0  0  0  0  0
   11.0456   -2.9774   18.2694 N   0  0  0  0  0  0  0  0  0  0  0  0
   10.4788   -3.0457   21.8593 C   0  0  0  0  0  0  0  0  0  0  0  0
    8.8693   -5.8099   18.4657 N   0  0  0  0  0  0  0  0  0  0  0  0
    8.9892   -0.7926   25.4573 C   0  0  0  0  0  0  0  0  0  0  0  0
   10.5677   -3.4462   20.5323 C   0  0  0  0  0  0  0  0  0  0  0  0
  1  8  1  0
  1 12  4  0
  1 14  4  0
  2  3  4  0
  2 18  4  0
  3 20  4  0
  3 22  4  0
  4 11  4  0
  4 21  4  0
  5  9  4  0
  5 16  4  0
  6 15  4  0
  6 16  4  0
  7 22  4  0
  7 26  4  0
  8 10  4  0
  8 25  4  0
  9 15  4  0
  9 17  1  0
 10 21  4  0
 11 25  4  0
 12 23  4  0
 13 20  4  0
 13 26  4  0
 14 19  4  0
 17 18  4  0
 17 24  4  0
 19 23  4  0
 20 24  4  0
 23 26  1  0
M  END
$$$$

 Created by Python create_sdf_string function

 26 30  0  0  0  0  0  0  0  0999 V2000
   10.0084   -1.8019   23.4945 C   0  0  0  0  0  0  0  0  0  0  0  0
   10.0005   -4.2520   16.5631 C   0  0  0  0  0  0  0  0  0  0  0  0
   10.2759   -4.0036   17.8845 C   0  0  0  0  0  0  0  0  0  0  0  0
    8.5652    1.5478   25.3778 N   0  0  0  0  0  0  0  0  0  0  0  0
    6.8048   -7.5457   17.8752 C   0  0  0  0  0  0  0  0  0  0  0  0
    6.1721   -8.2186   15.9886 N   0  0  0  0  0  0  0  0  0  0  0  0
   11.1764   -2.6600   19.5604 C   0  0  0  0  0  0  0  0  0  0  0  0
    9.5491   -0.6380   24.1912 C   0  0  0  0  0  0  0  0  0  0  0  0
    7.5337   -6.9256   16.9519 C   0  0  0  0  0  0  0  0  0  0  0  0
    9.6782    0.5671   23.5143 C   0  0  0  0  0  0  0  0  0  0  0  0
    8.4532    0.3482   26.0821 C   0  0  0  0  0  0  0  0  0  0  0  0
   10.4239   -1.7677   22.2230 N   0  0  0  0  0  0  0  0  0  0  0  0
    9.9468   -4.5953   20.1709 C   0  0  0  0  0  0  0  0  0  0  0  0
   10.0366   -3.0590   23.9864 N   0  0  0  0  0  0  0  0  0  0  0  0
    7.1191   -7.3636   15.7739 C   0  0  0  0  0  0  0  0  0  0  0  0
    5.9612   -8.3203   17.2732 N   0  0  0  0  0  0  0  0  0  0  0  0
    8.5296   -5.9814   17.1841 C   0  0  0  0  0  0  0  0  0  0  0  0
    9.1527   -5.2118   16.2116 C   0  0  0  0  0  0  0  0  0  0  0  0
   10.3364   -3.8368   22.9255 O   0  0  0  0  0  0  0  0  0  0  0  0
    9.6947   -4.8407   18.8534 C   0  0  0  0  0  0  0  0  0  0  0  0
    9.1596    1.7042   24.1381 C   0  0  0  0  0  0  0  0  0  0  0  0
   11.0456   -2.9774   18.2694 N   0  0  0  0  0  0  0  0  0  0  0  0
   10.4788   -3.0457   21.8593 C   0  0  0  0  0  0  0  0  0  0  0  0
    8.8693   -5.8099   18.4657 N   0  0  0  0  0  0  0  0  0  0  0  0
    8.9892   -0.7926   25.4573 C   0  0  0  0  0  0  0  0  0  0  0  0
   10.5677   -3.4462   20.5323 C   0  0  0  0  0  0  0  0  0  0  0  0
  1  8  1  0
  1 12  4  0
  1 14  4  0
  2  3  4  0
  2 18  4  0
  3 20  4  0
  3 22  4  0
  4 11  4  0
  4 21  4  0
  5  9  4  0
  5 16  4  0
  6 15  4  0
  6 16  4  0
  7 22  4  0
  7 26  4  0
  8 10  4  0
  8 25  4  0
  9 15  4  0
  9 17  1  0
 10 21  4  0
 11 25  4  0
 12 23  4  0
 13 20  4  0
 13 26  4  0
 14 19  4  0
 17 18  4  0
 17 24  4  0
 19 23  4  0
 20 24  4  0
 23 26  1  0
M  END
$$$$

 Created by Python create_sdf_string function

 26 30  0  0  0  0  0  0  0  0999 V2000
   10.0084   -1.8019   23.4945 C   0  0  0  0  0  0  0  0  0  0  0  0
   10.0005   -4.2520   16.5631 C   0  0  0  0  0  0  0  0  0  0  0  0
   10.2759   -4.0036   17.8845 C   0  0  0  0  0  0  0  0  0  0  0  0
    8.5652    1.5478   25.3778 N   0  0  0  0  0  0  0  0  0  0  0  0
    6.8048   -7.5457   17.8752 C   0  0  0  0  0  0  0  0  0  0  0  0
    6.1721   -8.2186   15.9886 N   0  0  0  0  0  0  0  0  0  0  0  0
   11.1764   -2.6600   19.5604 C   0  0  0  0  0  0  0  0  0  0  0  0
    9.5491   -0.6380   24.1912 C   0  0  0  0  0  0  0  0  0  0  0  0
    7.5337   -6.9256   16.9519 C   0  0  0  0  0  0  0  0  0  0  0  0
    9.6782    0.5671   23.5143 C   0  0  0  0  0  0  0  0  0  0  0  0
    8.4532    0.3482   26.0821 C   0  0  0  0  0  0  0  0  0  0  0  0
   10.4239   -1.7677   22.2230 N   0  0  0  0  0  0  0  0  0  0  0  0
    9.9468   -4.5953   20.1709 C   0  0  0  0  0  0  0  0  0  0  0  0
   10.0366   -3.0590   23.9864 N   0  0  0  0  0  0  0  0  0  0  0  0
    7.1191   -7.3636   15.7739 C   0  0  0  0  0  0  0  0  0  0  0  0
    5.9612   -8.3203   17.2732 N   0  0  0  0  0  0  0  0  0  0  0  0
    8.5296   -5.9814   17.1841 C   0  0  0  0  0  0  0  0  0  0  0  0
    9.1527   -5.2118   16.2116 C   0  0  0  0  0  0  0  0  0  0  0  0
   10.3364   -3.8368   22.9255 O   0  0  0  0  0  0  0  0  0  0  0  0
    9.6947   -4.8407   18.8534 C   0  0  0  0  0  0  0  0  0  0  0  0
    9.1596    1.7042   24.1381 C   0  0  0  0  0  0  0  0  0  0  0  0
   11.0456   -2.9774   18.2694 N   0  0  0  0  0  0  0  0  0  0  0  0
   10.4788   -3.0457   21.8593 C   0  0  0  0  0  0  0  0  0  0  0  0
    8.8693   -5.8099   18.4657 N   0  0  0  0  0  0  0  0  0  0  0  0
    8.9892   -0.7926   25.4573 C   0  0  0  0  0  0  0  0  0  0  0  0
   10.5677   -3.4462   20.5323 C   0  0  0  0  0  0  0  0  0  0  0  0
  1  8  1  0
  1 12  4  0
  1 14  4  0
  2  3  4  0
  2 18  4  0
  3 20  4  0
  3 22  4  0
  4 11  4  0
  4 21  4  0
  5  9  4  0
  5 16  4  0
  6 15  4  0
  6 16  4  0
  7 22  4  0
  7 26  4  0
  8 10  4  0
  8 25  4  0
  9 15  4  0
  9 17  1  0
 10 21  4  0
 11 25  4  0
 12 23  4  0
 13 20  4  0
 13 26  4  0
 14 19  4  0
 17 18  4  0
 17 24  4  0
 19 23  4  0
 20 24  4  0
 23 26  1  0
M  END
$$$$

 Created by Python create_sdf_string function

 26 30  0  0  0  0  0  0  0  0999 V2000
   10.0084   -1.8019   23.4945 C   0  0  0  0  0  0  0  0  0  0  0  0
   10.0005   -4.2520   16.5631 C   0  0  0  0  0  0  0  0  0  0  0  0
   10.2759   -4.0036   17.8845 C   0  0  0  0  0  0  0  0  0  0  0  0
    8.5652    1.5478   25.3778 N   0  0  0  0  0  0  0  0  0  0  0  0
    6.8048   -7.5457   17.8752 C   0  0  0  0  0  0  0  0  0  0  0  0
    6.1721   -8.2186   15.9886 N   0  0  0  0  0  0  0  0  0  0  0  0
   11.1764   -2.6600   19.5604 C   0  0  0  0  0  0  0  0  0  0  0  0
    9.5491   -0.6380   24.1912 C   0  0  0  0  0  0  0  0  0  0  0  0
    7.5337   -6.9256   16.9519 C   0  0  0  0  0  0  0  0  0  0  0  0
    9.6782    0.5671   23.5143 C   0  0  0  0  0  0  0  0  0  0  0  0
    8.4532    0.3482   26.0821 C   0  0  0  0  0  0  0  0  0  0  0  0
   10.4239   -1.7677   22.2230 N   0  0  0  0  0  0  0  0  0  0  0  0
    9.9468   -4.5953   20.1709 C   0  0  0  0  0  0  0  0  0  0  0  0
   10.0366   -3.0590   23.9864 N   0  0  0  0  0  0  0  0  0  0  0  0
    7.1191   -7.3636   15.7739 C   0  0  0  0  0  0  0  0  0  0  0  0
    5.9612   -8.3203   17.2732 N   0  0  0  0  0  0  0  0  0  0  0  0
    8.5296   -5.9814   17.1841 C   0  0  0  0  0  0  0  0  0  0  0  0
    9.1527   -5.2118   16.2116 C   0  0  0  0  0  0  0  0  0  0  0  0
   10.3364   -3.8368   22.9255 O   0  0  0  0  0  0  0  0  0  0  0  0
    9.6947   -4.8407   18.8534 C   0  0  0  0  0  0  0  0  0  0  0  0
    9.1596    1.7042   24.1381 C   0  0  0  0  0  0  0  0  0  0  0  0
   11.0456   -2.9774   18.2694 N   0  0  0  0  0  0  0  0  0  0  0  0
   10.4788   -3.0457   21.8593 C   0  0  0  0  0  0  0  0  0  0  0  0
    8.8693   -5.8099   18.4657 N   0  0  0  0  0  0  0  0  0  0  0  0
    8.9892   -0.7926   25.4573 C   0  0  0  0  0  0  0  0  0  0  0  0
   10.5677   -3.4462   20.5323 C   0  0  0  0  0  0  0  0  0  0  0  0
  1  8  1  0
  1 12  4  0
  1 14  4  0
  2  3  4  0
  2 18  4  0
  3 20  4  0
  3 22  4  0
  4 11  4  0
  4 21  4  0
  5  9  4  0
  5 16  4  0
  6 15  4  0
  6 16  4  0
  7 22  4  0
  7 26  4  0
  8 10  4  0
  8 25  4  0
  9 15  4  0
  9 17  1  0
 10 21  4  0
 11 25  4  0
 12 23  4  0
 13 20  4  0
 13 26  4  0
 14 19  4  0
 17 18  4  0
 17 24  4  0
 19 23  4  0
 20 24  4  0
 23 26  1  0
M  END
$$$$

 Created by Python create_sdf_string function

 26 30  0  0  0  0  0  0  0  0999 V2000
   10.0084   -1.8019   23.4945 C   0  0  0  0  0  0  0  0  0  0  0  0
   10.0005   -4.2520   16.5631 C   0  0  0  0  0  0  0  0  0  0  0  0
   10.2759   -4.0036   17.8845 C   0  0  0  0  0  0  0  0  0  0  0  0
    8.5652    1.5478   25.3778 N   0  0  0  0  0  0  0  0  0  0  0  0
    6.8048   -7.5457   17.8752 C   0  0  0  0  0  0  0  0  0  0  0  0
    6.1721   -8.2186   15.9886 N   0  0  0  0  0  0  0  0  0  0  0  0
   11.1764   -2.6600   19.5604 C   0  0  0  0  0  0  0  0  0  0  0  0
    9.5491   -0.6380   24.1912 C   0  0  0  0  0  0  0  0  0  0  0  0
    7.5337   -6.9256   16.9519 C   0  0  0  0  0  0  0  0  0  0  0  0
    9.6782    0.5671   23.5143 C   0  0  0  0  0  0  0  0  0  0  0  0
    8.4532    0.3482   26.0821 C   0  0  0  0  0  0  0  0  0  0  0  0
   10.4239   -1.7677   22.2230 N   0  0  0  0  0  0  0  0  0  0  0  0
    9.9468   -4.5953   20.1709 C   0  0  0  0  0  0  0  0  0  0  0  0
   10.0366   -3.0590   23.9864 N   0  0  0  0  0  0  0  0  0  0  0  0
    7.1191   -7.3636   15.7739 C   0  0  0  0  0  0  0  0  0  0  0  0
    5.9612   -8.3203   17.2732 N   0  0  0  0  0  0  0  0  0  0  0  0
    8.5296   -5.9814   17.1841 C   0  0  0  0  0  0  0  0  0  0  0  0
    9.1527   -5.2118   16.2116 C   0  0  0  0  0  0  0  0  0  0  0  0
   10.3364   -3.8368   22.9255 O   0  0  0  0  0  0  0  0  0  0  0  0
    9.6947   -4.8407   18.8534 C   0  0  0  0  0  0  0  0  0  0  0  0
    9.1596    1.7042   24.1381 C   0  0  0  0  0  0  0  0  0  0  0  0
   11.0456   -2.9774   18.2694 N   0  0  0  0  0  0  0  0  0  0  0  0
   10.4788   -3.0457   21.8593 C   0  0  0  0  0  0  0  0  0  0  0  0
    8.8693   -5.8099   18.4657 N   0  0  0  0  0  0  0  0  0  0  0  0
    8.9892   -0.7926   25.4573 C   0  0  0  0  0  0  0  0  0  0  0  0
   10.5677   -3.4462   20.5323 C   0  0  0  0  0  0  0  0  0  0  0  0
  1  8  1  0
  1 12  4  0
  1 14  4  0
  2  3  4  0
  2 18  4  0
  3 20  4  0
  3 22  4  0
  4 11  4  0
  4 21  4  0
  5  9  4  0
  5 16  4  0
  6 15  4  0
  6 16  4  0
  7 22  4  0
  7 26  4  0
  8 10  4  0
  8 25  4  0
  9 15  4  0
  9 17  1  0
 10 21  4  0
 11 25  4  0
 12 23  4  0
 13 20  4  0
 13 26  4  0
 14 19  4  0
 17 18  4  0
 17 24  4  0
 19 23  4  0
 20 24  4  0
 23 26  1  0
M  END
$$$$

 Created by Python create_sdf_string function

 26 30  0  0  0  0  0  0  0  0999 V2000
   10.0084   -1.8019   23.4945 C   0  0  0  0  0  0  0  0  0  0  0  0
   10.0005   -4.2520   16.5631 C   0  0  0  0  0  0  0  0  0  0  0  0
   10.2759   -4.0036   17.8845 C   0  0  0  0  0  0  0  0  0  0  0  0
    8.5652    1.5478   25.3778 N   0  0  0  0  0  0  0  0  0  0  0  0
    6.8048   -7.5457   17.8752 C   0  0  0  0  0  0  0  0  0  0  0  0
    6.1721   -8.2186   15.9886 N   0  0  0  0  0  0  0  0  0  0  0  0
   11.1764   -2.6600   19.5604 C   0  0  0  0  0  0  0  0  0  0  0  0
    9.5491   -0.6380   24.1912 C   0  0  0  0  0  0  0  0  0  0  0  0
    7.5337   -6.9256   16.9519 C   0  0  0  0  0  0  0  0  0  0  0  0
    9.6782    0.5671   23.5143 C   0  0  0  0  0  0  0  0  0  0  0  0
    8.4532    0.3482   26.0821 C   0  0  0  0  0  0  0  0  0  0  0  0
   10.4239   -1.7677   22.2230 N   0  0  0  0  0  0  0  0  0  0  0  0
    9.9468   -4.5953   20.1709 C   0  0  0  0  0  0  0  0  0  0  0  0
   10.0366   -3.0590   23.9864 N   0  0  0  0  0  0  0  0  0  0  0  0
    7.1191   -7.3636   15.7739 C   0  0  0  0  0  0  0  0  0  0  0  0
    5.9612   -8.3203   17.2732 N   0  0  0  0  0  0  0  0  0  0  0  0
    8.5296   -5.9814   17.1841 C   0  0  0  0  0  0  0  0  0  0  0  0
    9.1527   -5.2118   16.2116 C   0  0  0  0  0  0  0  0  0  0  0  0
   10.3364   -3.8368   22.9255 O   0  0  0  0  0  0  0  0  0  0  0  0
    9.6947   -4.8407   18.8534 C   0  0  0  0  0  0  0  0  0  0  0  0
    9.1596    1.7042   24.1381 C   0  0  0  0  0  0  0  0  0  0  0  0
   11.0456   -2.9774   18.2694 N   0  0  0  0  0  0  0  0  0  0  0  0
   10.4788   -3.0457   21.8593 C   0  0  0  0  0  0  0  0  0  0  0  0
    8.8693   -5.8099   18.4657 N   0  0  0  0  0  0  0  0  0  0  0  0
    8.9892   -0.7926   25.4573 C   0  0  0  0  0  0  0  0  0  0  0  0
   10.5677   -3.4462   20.5323 C   0  0  0  0  0  0  0  0  0  0  0  0
  1  8  1  0
  1 12  4  0
  1 14  4  0
  2  3  4  0
  2 18  4  0
  3 20  4  0
  3 22  4  0
  4 11  4  0
  4 21  4  0
  5  9  4  0
  5 16  4  0
  6 15  4  0
  6 16  4  0
  7 22  4  0
  7 26  4  0
  8 10  4  0
  8 25  4  0
  9 15  4  0
  9 17  1  0
 10 21  4  0
 11 25  4  0
 12 23  4  0
 13 20  4  0
 13 26  4  0
 14 19  4  0
 17 18  4  0
 17 24  4  0
 19 23  4  0
 20 24  4  0
 23 26  1  0
M  END
$$$$

 Created by Python create_sdf_string function

 26 30  0  0  0  0  0  0  0  0999 V2000
   10.0084   -1.8019   23.4945 C   0  0  0  0  0  0  0  0  0  0  0  0
   10.0005   -4.2520   16.5631 C   0  0  0  0  0  0  0  0  0  0  0  0
   10.2759   -4.0036   17.8845 C   0  0  0  0  0  0  0  0  0  0  0  0
    8.5652    1.5478   25.3778 N   0  0  0  0  0  0  0  0  0  0  0  0
    6.8048   -7.5457   17.8752 C   0  0  0  0  0  0  0  0  0  0  0  0
    6.1721   -8.2186   15.9886 N   0  0  0  0  0  0  0  0  0  0  0  0
   11.1764   -2.6600   19.5604 C   0  0  0  0  0  0  0  0  0  0  0  0
    9.5491   -0.6380   24.1912 C   0  0  0  0  0  0  0  0  0  0  0  0
    7.5337   -6.9256   16.9519 C   0  0  0  0  0  0  0  0  0  0  0  0
    9.6782    0.5671   23.5143 C   0  0  0  0  0  0  0  0  0  0  0  0
    8.4532    0.3482   26.0821 C   0  0  0  0  0  0  0  0  0  0  0  0
   10.4239   -1.7677   22.2230 N   0  0  0  0  0  0  0  0  0  0  0  0
    9.9468   -4.5953   20.1709 C   0  0  0  0  0  0  0  0  0  0  0  0
   10.0366   -3.0590   23.9864 N   0  0  0  0  0  0  0  0  0  0  0  0
    7.1191   -7.3636   15.7739 C   0  0  0  0  0  0  0  0  0  0  0  0
    5.9612   -8.3203   17.2732 N   0  0  0  0  0  0  0  0  0  0  0  0
    8.5296   -5.9814   17.1841 C   0  0  0  0  0  0  0  0  0  0  0  0
    9.1527   -5.2118   16.2116 C   0  0  0  0  0  0  0  0  0  0  0  0
   10.3364   -3.8368   22.9255 O   0  0  0  0  0  0  0  0  0  0  0  0
    9.6947   -4.8407   18.8534 C   0  0  0  0  0  0  0  0  0  0  0  0
    9.1596    1.7042   24.1381 C   0  0  0  0  0  0  0  0  0  0  0  0
   11.0456   -2.9774   18.2694 N   0  0  0  0  0  0  0  0  0  0  0  0
   10.4788   -3.0457   21.8593 C   0  0  0  0  0  0  0  0  0  0  0  0
    8.8693   -5.8099   18.4657 N   0  0  0  0  0  0  0  0  0  0  0  0
    8.9892   -0.7926   25.4573 C   0  0  0  0  0  0  0  0  0  0  0  0
   10.5677   -3.4462   20.5323 C   0  0  0  0  0  0  0  0  0  0  0  0
  1  8  1  0
  1 12  4  0
  1 14  4  0
  2  3  4  0
  2 18  4  0
  3 20  4  0
  3 22  4  0
  4 11  4  0
  4 21  4  0
  5  9  4  0
  5 16  4  0
  6 15  4  0
  6 16  4  0
  7 22  4  0
  7 26  4  0
  8 10  4  0
  8 25  4  0
  9 15  4  0
  9 17  1  0
 10 21  4  0
 11 25  4  0
 12 23  4  0
 13 20  4  0
 13 26  4  0
 14 19  4  0
 17 18  4  0
 17 24  4  0
 19 23  4  0
 20 24  4  0
 23 26  1  0
M  END
$$$$

 Created by Python create_sdf_string function

 26 30  0  0  0  0  0  0  0  0999 V2000
   10.0084   -1.8019   23.4945 C   0  0  0  0  0  0  0  0  0  0  0  0
   10.0005   -4.2520   16.5631 C   0  0  0  0  0  0  0  0  0  0  0  0
   10.2759   -4.0036   17.8845 C   0  0  0  0  0  0  0  0  0  0  0  0
    8.5652    1.5478   25.3778 N   0  0  0  0  0  0  0  0  0  0  0  0
    6.8048   -7.5457   17.8752 C   0  0  0  0  0  0  0  0  0  0  0  0
    6.1721   -8.2186   15.9886 N   0  0  0  0  0  0  0  0  0  0  0  0
   11.1764   -2.6600   19.5604 C   0  0  0  0  0  0  0  0  0  0  0  0
    9.5491   -0.6380   24.1912 C   0  0  0  0  0  0  0  0  0  0  0  0
    7.5337   -6.9256   16.9519 C   0  0  0  0  0  0  0  0  0  0  0  0
    9.6782    0.5671   23.5143 C   0  0  0  0  0  0  0  0  0  0  0  0
    8.4532    0.3482   26.0821 C   0  0  0  0  0  0  0  0  0  0  0  0
   10.4239   -1.7677   22.2230 N   0  0  0  0  0  0  0  0  0  0  0  0
    9.9468   -4.5953   20.1709 C   0  0  0  0  0  0  0  0  0  0  0  0
   10.0366   -3.0590   23.9864 N   0  0  0  0  0  0  0  0  0  0  0  0
    7.1191   -7.3636   15.7739 C   0  0  0  0  0  0  0  0  0  0  0  0
    5.9612   -8.3203   17.2732 N   0  0  0  0  0  0  0  0  0  0  0  0
    8.5296   -5.9814   17.1841 C   0  0  0  0  0  0  0  0  0  0  0  0
    9.1527   -5.2118   16.2116 C   0  0  0  0  0  0  0  0  0  0  0  0
   10.3364   -3.8368   22.9255 O   0  0  0  0  0  0  0  0  0  0  0  0
    9.6947   -4.8407   18.8534 C   0  0  0  0  0  0  0  0  0  0  0  0
    9.1596    1.7042   24.1381 C   0  0  0  0  0  0  0  0  0  0  0  0
   11.0456   -2.9774   18.2694 N   0  0  0  0  0  0  0  0  0  0  0  0
   10.4788   -3.0457   21.8593 C   0  0  0  0  0  0  0  0  0  0  0  0
    8.8693   -5.8099   18.4657 N   0  0  0  0  0  0  0  0  0  0  0  0
    8.9892   -0.7926   25.4573 C   0  0  0  0  0  0  0  0  0  0  0  0
   10.5677   -3.4462   20.5323 C   0  0  0  0  0  0  0  0  0  0  0  0
  1  8  1  0
  1 12  4  0
  1 14  4  0
  2  3  4  0
  2 18  4  0
  3 20  4  0
  3 22  4  0
  4 11  4  0
  4 21  4  0
  5  9  4  0
  5 16  4  0
  6 15  4  0
  6 16  4  0
  7 22  4  0
  7 26  4  0
  8 10  4  0
  8 25  4  0
  9 15  4  0
  9 17  1  0
 10 21  4  0
 11 25  4  0
 12 23  4  0
 13 20  4  0
 13 26  4  0
 14 19  4  0
 17 18  4  0
 17 24  4  0
 19 23  4  0
 20 24  4  0
 23 26  1  0
M  END
$$$$

 Created by Python create_sdf_string function

 26 30  0  0  0  0  0  0  0  0999 V2000
   10.0084   -1.8019   23.4945 C   0  0  0  0  0  0  0  0  0  0  0  0
   10.0005   -4.2520   16.5631 C   0  0  0  0  0  0  0  0  0  0  0  0
   10.2759   -4.0036   17.8845 C   0  0  0  0  0  0  0  0  0  0  0  0
    8.5652    1.5478   25.3778 N   0  0  0  0  0  0  0  0  0  0  0  0
    6.8048   -7.5457   17.8752 C   0  0  0  0  0  0  0  0  0  0  0  0
    6.1721   -8.2186   15.9886 N   0  0  0  0  0  0  0  0  0  0  0  0
   11.1764   -2.6600   19.5604 C   0  0  0  0  0  0  0  0  0  0  0  0
    9.5491   -0.6380   24.1912 C   0  0  0  0  0  0  0  0  0  0  0  0
    7.5337   -6.9256   16.9519 C   0  0  0  0  0  0  0  0  0  0  0  0
    9.6782    0.5671   23.5143 C   0  0  0  0  0  0  0  0  0  0  0  0
    8.4532    0.3482   26.0821 C   0  0  0  0  0  0  0  0  0  0  0  0
   10.4239   -1.7677   22.2230 N   0  0  0  0  0  0  0  0  0  0  0  0
    9.9468   -4.5953   20.1709 C   0  0  0  0  0  0  0  0  0  0  0  0
   10.0366   -3.0590   23.9864 N   0  0  0  0  0  0  0  0  0  0  0  0
    7.1191   -7.3636   15.7739 C   0  0  0  0  0  0  0  0  0  0  0  0
    5.9612   -8.3203   17.2732 N   0  0  0  0  0  0  0  0  0  0  0  0
    8.5296   -5.9814   17.1841 C   0  0  0  0  0  0  0  0  0  0  0  0
    9.1527   -5.2118   16.2116 C   0  0  0  0  0  0  0  0  0  0  0  0
   10.3364   -3.8368   22.9255 O   0  0  0  0  0  0  0  0  0  0  0  0
    9.6947   -4.8407   18.8534 C   0  0  0  0  0  0  0  0  0  0  0  0
    9.1596    1.7042   24.1381 C   0  0  0  0  0  0  0  0  0  0  0  0
   11.0456   -2.9774   18.2694 N   0  0  0  0  0  0  0  0  0  0  0  0
   10.4788   -3.0457   21.8593 C   0  0  0  0  0  0  0  0  0  0  0  0
    8.8693   -5.8099   18.4657 N   0  0  0  0  0  0  0  0  0  0  0  0
    8.9892   -0.7926   25.4573 C   0  0  0  0  0  0  0  0  0  0  0  0
   10.5677   -3.4462   20.5323 C   0  0  0  0  0  0  0  0  0  0  0  0
  1  8  1  0
  1 12  4  0
  1 14  4  0
  2  3  4  0
  2 18  4  0
  3 20  4  0
  3 22  4  0
  4 11  4  0
  4 21  4  0
  5  9  4  0
  5 16  4  0
  6 15  4  0
  6 16  4  0
  7 22  4  0
  7 26  4  0
  8 10  4  0
  8 25  4  0
  9 15  4  0
  9 17  1  0
 10 21  4  0
 11 25  4  0
 12 23  4  0
 13 20  4  0
 13 26  4  0
 14 19  4  0
 17 18  4  0
 17 24  4  0
 19 23  4  0
 20 24  4  0
 23 26  1  0
M  END
$$$$

 Created by Python create_sdf_string function

 26 30  0  0  0  0  0  0  0  0999 V2000
   10.0084   -1.8019   23.4945 C   0  0  0  0  0  0  0  0  0  0  0  0
   10.0005   -4.2520   16.5631 C   0  0  0  0  0  0  0  0  0  0  0  0
   10.2759   -4.0036   17.8845 C   0  0  0  0  0  0  0  0  0  0  0  0
    8.5652    1.5478   25.3778 N   0  0  0  0  0  0  0  0  0  0  0  0
    6.8048   -7.5457   17.8752 C   0  0  0  0  0  0  0  0  0  0  0  0
    6.1721   -8.2186   15.9886 N   0  0  0  0  0  0  0  0  0  0  0  0
   11.1764   -2.6600   19.5604 C   0  0  0  0  0  0  0  0  0  0  0  0
    9.5491   -0.6380   24.1912 C   0  0  0  0  0  0  0  0  0  0  0  0
    7.5337   -6.9256   16.9519 C   0  0  0  0  0  0  0  0  0  0  0  0
    9.6782    0.5671   23.5143 C   0  0  0  0  0  0  0  0  0  0  0  0
    8.4532    0.3482   26.0821 C   0  0  0  0  0  0  0  0  0  0  0  0
   10.4239   -1.7677   22.2230 N   0  0  0  0  0  0  0  0  0  0  0  0
    9.9468   -4.5953   20.1709 C   0  0  0  0  0  0  0  0  0  0  0  0
   10.0366   -3.0590   23.9864 N   0  0  0  0  0  0  0  0  0  0  0  0
    7.1191   -7.3636   15.7739 C   0  0  0  0  0  0  0  0  0  0  0  0
    5.9612   -8.3203   17.2732 N   0  0  0  0  0  0  0  0  0  0  0  0
    8.5296   -5.9814   17.1841 C   0  0  0  0  0  0  0  0  0  0  0  0
    9.1527   -5.2118   16.2116 C   0  0  0  0  0  0  0  0  0  0  0  0
   10.3364   -3.8368   22.9255 O   0  0  0  0  0  0  0  0  0  0  0  0
    9.6947   -4.8407   18.8534 C   0  0  0  0  0  0  0  0  0  0  0  0
    9.1596    1.7042   24.1381 C   0  0  0  0  0  0  0  0  0  0  0  0
   11.0456   -2.9774   18.2694 N   0  0  0  0  0  0  0  0  0  0  0  0
   10.4788   -3.0457   21.8593 C   0  0  0  0  0  0  0  0  0  0  0  0
    8.8693   -5.8099   18.4657 N   0  0  0  0  0  0  0  0  0  0  0  0
    8.9892   -0.7926   25.4573 C   0  0  0  0  0  0  0  0  0  0  0  0
   10.5677   -3.4462   20.5323 C   0  0  0  0  0  0  0  0  0  0  0  0
  1  8  1  0
  1 12  4  0
  1 14  4  0
  2  3  4  0
  2 18  4  0
  3 20  4  0
  3 22  4  0
  4 11  4  0
  4 21  4  0
  5  9  4  0
  5 16  4  0
  6 15  4  0
  6 16  4  0
  7 22  4  0
  7 26  4  0
  8 10  4  0
  8 25  4  0
  9 15  4  0
  9 17  1  0
 10 21  4  0
 11 25  4  0
 12 23  4  0
 13 20  4  0
 13 26  4  0
 14 19  4  0
 17 18  4  0
 17 24  4  0
 19 23  4  0
 20 24  4  0
 23 26  1  0
M  END
$$$$

 Created by Python create_sdf_string function

 26 30  0  0  0  0  0  0  0  0999 V2000
   10.0084   -1.8019   23.4945 C   0  0  0  0  0  0  0  0  0  0  0  0
   10.0005   -4.2520   16.5631 C   0  0  0  0  0  0  0  0  0  0  0  0
   10.2759   -4.0036   17.8845 C   0  0  0  0  0  0  0  0  0  0  0  0
    8.5652    1.5478   25.3778 N   0  0  0  0  0  0  0  0  0  0  0  0
    6.8048   -7.5457   17.8752 C   0  0  0  0  0  0  0  0  0  0  0  0
    6.1721   -8.2186   15.9886 N   0  0  0  0  0  0  0  0  0  0  0  0
   11.1764   -2.6600   19.5604 C   0  0  0  0  0  0  0  0  0  0  0  0
    9.5491   -0.6380   24.1912 C   0  0  0  0  0  0  0  0  0  0  0  0
    7.5337   -6.9256   16.9519 C   0  0  0  0  0  0  0  0  0  0  0  0
    9.6782    0.5671   23.5143 C   0  0  0  0  0  0  0  0  0  0  0  0
    8.4532    0.3482   26.0821 C   0  0  0  0  0  0  0  0  0  0  0  0
   10.4239   -1.7677   22.2230 N   0  0  0  0  0  0  0  0  0  0  0  0
    9.9468   -4.5953   20.1709 C   0  0  0  0  0  0  0  0  0  0  0  0
   10.0366   -3.0590   23.9864 N   0  0  0  0  0  0  0  0  0  0  0  0
    7.1191   -7.3636   15.7739 C   0  0  0  0  0  0  0  0  0  0  0  0
    5.9612   -8.3203   17.2732 N   0  0  0  0  0  0  0  0  0  0  0  0
    8.5296   -5.9814   17.1841 C   0  0  0  0  0  0  0  0  0  0  0  0
    9.1527   -5.2118   16.2116 C   0  0  0  0  0  0  0  0  0  0  0  0
   10.3364   -3.8368   22.9255 O   0  0  0  0  0  0  0  0  0  0  0  0
    9.6947   -4.8407   18.8534 C   0  0  0  0  0  0  0  0  0  0  0  0
    9.1596    1.7042   24.1381 C   0  0  0  0  0  0  0  0  0  0  0  0
   11.0456   -2.9774   18.2694 N   0  0  0  0  0  0  0  0  0  0  0  0
   10.4788   -3.0457   21.8593 C   0  0  0  0  0  0  0  0  0  0  0  0
    8.8693   -5.8099   18.4657 N   0  0  0  0  0  0  0  0  0  0  0  0
    8.9892   -0.7926   25.4573 C   0  0  0  0  0  0  0  0  0  0  0  0
   10.5677   -3.4462   20.5323 C   0  0  0  0  0  0  0  0  0  0  0  0
  1  8  1  0
  1 12  4  0
  1 14  4  0
  2  3  4  0
  2 18  4  0
  3 20  4  0
  3 22  4  0
  4 11  4  0
  4 21  4  0
  5  9  4  0
  5 16  4  0
  6 15  4  0
  6 16  4  0
  7 22  4  0
  7 26  4  0
  8 10  4  0
  8 25  4  0
  9 15  4  0
  9 17  1  0
 10 21  4  0
 11 25  4  0
 12 23  4  0
 13 20  4  0
 13 26  4  0
 14 19  4  0
 17 18  4  0
 17 24  4  0
 19 23  4  0
 20 24  4  0
 23 26  1  0
M  END
$$$$

 Created by Python create_sdf_string function

 26 30  0  0  0  0  0  0  0  0999 V2000
   10.0084   -1.8019   23.4945 C   0  0  0  0  0  0  0  0  0  0  0  0
   10.0005   -4.2520   16.5631 C   0  0  0  0  0  0  0  0  0  0  0  0
   10.2759   -4.0036   17.8845 C   0  0  0  0  0  0  0  0  0  0  0  0
    8.5652    1.5478   25.3778 N   0  0  0  0  0  0  0  0  0  0  0  0
    6.8048   -7.5457   17.8752 C   0  0  0  0  0  0  0  0  0  0  0  0
    6.1721   -8.2186   15.9886 N   0  0  0  0  0  0  0  0  0  0  0  0
   11.1764   -2.6600   19.5604 C   0  0  0  0  0  0  0  0  0  0  0  0
    9.5491   -0.6380   24.1912 C   0  0  0  0  0  0  0  0  0  0  0  0
    7.5337   -6.9256   16.9519 C   0  0  0  0  0  0  0  0  0  0  0  0
    9.6782    0.5671   23.5143 C   0  0  0  0  0  0  0  0  0  0  0  0
    8.4532    0.3482   26.0821 C   0  0  0  0  0  0  0  0  0  0  0  0
   10.4239   -1.7677   22.2230 N   0  0  0  0  0  0  0  0  0  0  0  0
    9.9468   -4.5953   20.1709 C   0  0  0  0  0  0  0  0  0  0  0  0
   10.0366   -3.0590   23.9864 N   0  0  0  0  0  0  0  0  0  0  0  0
    7.1191   -7.3636   15.7739 C   0  0  0  0  0  0  0  0  0  0  0  0
    5.9612   -8.3203   17.2732 N   0  0  0  0  0  0  0  0  0  0  0  0
    8.5296   -5.9814   17.1841 C   0  0  0  0  0  0  0  0  0  0  0  0
    9.1527   -5.2118   16.2116 C   0  0  0  0  0  0  0  0  0  0  0  0
   10.3364   -3.8368   22.9255 O   0  0  0  0  0  0  0  0  0  0  0  0
    9.6947   -4.8407   18.8534 C   0  0  0  0  0  0  0  0  0  0  0  0
    9.1596    1.7042   24.1381 C   0  0  0  0  0  0  0  0  0  0  0  0
   11.0456   -2.9774   18.2694 N   0  0  0  0  0  0  0  0  0  0  0  0
   10.4788   -3.0457   21.8593 C   0  0  0  0  0  0  0  0  0  0  0  0
    8.8693   -5.8099   18.4657 N   0  0  0  0  0  0  0  0  0  0  0  0
    8.9892   -0.7926   25.4573 C   0  0  0  0  0  0  0  0  0  0  0  0
   10.5677   -3.4462   20.5323 C   0  0  0  0  0  0  0  0  0  0  0  0
  1  8  1  0
  1 12  4  0
  1 14  4  0
  2  3  4  0
  2 18  4  0
  3 20  4  0
  3 22  4  0
  4 11  4  0
  4 21  4  0
  5  9  4  0
  5 16  4  0
  6 15  4  0
  6 16  4  0
  7 22  4  0
  7 26  4  0
  8 10  4  0
  8 25  4  0
  9 15  4  0
  9 17  1  0
 10 21  4  0
 11 25  4  0
 12 23  4  0
 13 20  4  0
 13 26  4  0
 14 19  4  0
 17 18  4  0
 17 24  4  0
 19 23  4  0
 20 24  4  0
 23 26  1  0
M  END
$$$$

 Created by Python create_sdf_string function

 26 30  0  0  0  0  0  0  0  0999 V2000
   10.0084   -1.8019   23.4945 C   0  0  0  0  0  0  0  0  0  0  0  0
   10.0005   -4.2520   16.5631 C   0  0  0  0  0  0  0  0  0  0  0  0
   10.2759   -4.0036   17.8845 C   0  0  0  0  0  0  0  0  0  0  0  0
    8.5652    1.5478   25.3778 N   0  0  0  0  0  0  0  0  0  0  0  0
    6.8048   -7.5457   17.8752 C   0  0  0  0  0  0  0  0  0  0  0  0
    6.1721   -8.2186   15.9886 N   0  0  0  0  0  0  0  0  0  0  0  0
   11.1764   -2.6600   19.5604 C   0  0  0  0  0  0  0  0  0  0  0  0
    9.5491   -0.6380   24.1912 C   0  0  0  0  0  0  0  0  0  0  0  0
    7.5337   -6.9256   16.9519 C   0  0  0  0  0  0  0  0  0  0  0  0
    9.6782    0.5671   23.5143 C   0  0  0  0  0  0  0  0  0  0  0  0
    8.4532    0.3482   26.0821 C   0  0  0  0  0  0  0  0  0  0  0  0
   10.4239   -1.7677   22.2230 N   0  0  0  0  0  0  0  0  0  0  0  0
    9.9468   -4.5953   20.1709 C   0  0  0  0  0  0  0  0  0  0  0  0
   10.0366   -3.0590   23.9864 N   0  0  0  0  0  0  0  0  0  0  0  0
    7.1191   -7.3636   15.7739 C   0  0  0  0  0  0  0  0  0  0  0  0
    5.9612   -8.3203   17.2732 N   0  0  0  0  0  0  0  0  0  0  0  0
    8.5296   -5.9814   17.1841 C   0  0  0  0  0  0  0  0  0  0  0  0
    9.1527   -5.2118   16.2116 C   0  0  0  0  0  0  0  0  0  0  0  0
   10.3364   -3.8368   22.9255 O   0  0  0  0  0  0  0  0  0  0  0  0
    9.6947   -4.8407   18.8534 C   0  0  0  0  0  0  0  0  0  0  0  0
    9.1596    1.7042   24.1381 C   0  0  0  0  0  0  0  0  0  0  0  0
   11.0456   -2.9774   18.2694 N   0  0  0  0  0  0  0  0  0  0  0  0
   10.4788   -3.0457   21.8593 C   0  0  0  0  0  0  0  0  0  0  0  0
    8.8693   -5.8099   18.4657 N   0  0  0  0  0  0  0  0  0  0  0  0
    8.9892   -0.7926   25.4573 C   0  0  0  0  0  0  0  0  0  0  0  0
   10.5677   -3.4462   20.5323 C   0  0  0  0  0  0  0  0  0  0  0  0
  1  8  1  0
  1 12  4  0
  1 14  4  0
  2  3  4  0
  2 18  4  0
  3 20  4  0
  3 22  4  0
  4 11  4  0
  4 21  4  0
  5  9  4  0
  5 16  4  0
  6 15  4  0
  6 16  4  0
  7 22  4  0
  7 26  4  0
  8 10  4  0
  8 25  4  0
  9 15  4  0
  9 17  1  0
 10 21  4  0
 11 25  4  0
 12 23  4  0
 13 20  4  0
 13 26  4  0
 14 19  4  0
 17 18  4  0
 17 24  4  0
 19 23  4  0
 20 24  4  0
 23 26  1  0
M  END
$$$$

 Created by Python create_sdf_string function

 26 30  0  0  0  0  0  0  0  0999 V2000
   10.0084   -1.8019   23.4945 C   0  0  0  0  0  0  0  0  0  0  0  0
   10.0005   -4.2520   16.5631 C   0  0  0  0  0  0  0  0  0  0  0  0
   10.2759   -4.0036   17.8845 C   0  0  0  0  0  0  0  0  0  0  0  0
    8.5652    1.5478   25.3778 N   0  0  0  0  0  0  0  0  0  0  0  0
    6.8048   -7.5457   17.8752 C   0  0  0  0  0  0  0  0  0  0  0  0
    6.1721   -8.2186   15.9886 N   0  0  0  0  0  0  0  0  0  0  0  0
   11.1764   -2.6600   19.5604 C   0  0  0  0  0  0  0  0  0  0  0  0
    9.5491   -0.6380   24.1912 C   0  0  0  0  0  0  0  0  0  0  0  0
    7.5337   -6.9256   16.9519 C   0  0  0  0  0  0  0  0  0  0  0  0
    9.6782    0.5671   23.5143 C   0  0  0  0  0  0  0  0  0  0  0  0
    8.4532    0.3482   26.0821 C   0  0  0  0  0  0  0  0  0  0  0  0
   10.4239   -1.7677   22.2230 N   0  0  0  0  0  0  0  0  0  0  0  0
    9.9468   -4.5953   20.1709 C   0  0  0  0  0  0  0  0  0  0  0  0
   10.0366   -3.0590   23.9864 N   0  0  0  0  0  0  0  0  0  0  0  0
    7.1191   -7.3636   15.7739 C   0  0  0  0  0  0  0  0  0  0  0  0
    5.9612   -8.3203   17.2732 N   0  0  0  0  0  0  0  0  0  0  0  0
    8.5296   -5.9814   17.1841 C   0  0  0  0  0  0  0  0  0  0  0  0
    9.1527   -5.2118   16.2116 C   0  0  0  0  0  0  0  0  0  0  0  0
   10.3364   -3.8368   22.9255 O   0  0  0  0  0  0  0  0  0  0  0  0
    9.6947   -4.8407   18.8534 C   0  0  0  0  0  0  0  0  0  0  0  0
    9.1596    1.7042   24.1381 C   0  0  0  0  0  0  0  0  0  0  0  0
   11.0456   -2.9774   18.2694 N   0  0  0  0  0  0  0  0  0  0  0  0
   10.4788   -3.0457   21.8593 C   0  0  0  0  0  0  0  0  0  0  0  0
    8.8693   -5.8099   18.4657 N   0  0  0  0  0  0  0  0  0  0  0  0
    8.9892   -0.7926   25.4573 C   0  0  0  0  0  0  0  0  0  0  0  0
   10.5677   -3.4462   20.5323 C   0  0  0  0  0  0  0  0  0  0  0  0
  1  8  1  0
  1 12  4  0
  1 14  4  0
  2  3  4  0
  2 18  4  0
  3 20  4  0
  3 22  4  0
  4 11  4  0
  4 21  4  0
  5  9  4  0
  5 16  4  0
  6 15  4  0
  6 16  4  0
  7 22  4  0
  7 26  4  0
  8 10  4  0
  8 25  4  0
  9 15  4  0
  9 17  1  0
 10 21  4  0
 11 25  4  0
 12 23  4  0
 13 20  4  0
 13 26  4  0
 14 19  4  0
 17 18  4  0
 17 24  4  0
 19 23  4  0
 20 24  4  0
 23 26  1  0
M  END
$$$$

 Created by Python create_sdf_string function

 26 30  0  0  0  0  0  0  0  0999 V2000
   10.0084   -1.8019   23.4945 C   0  0  0  0  0  0  0  0  0  0  0  0
   10.0005   -4.2520   16.5631 C   0  0  0  0  0  0  0  0  0  0  0  0
   10.2759   -4.0036   17.8845 C   0  0  0  0  0  0  0  0  0  0  0  0
    8.5652    1.5478   25.3778 N   0  0  0  0  0  0  0  0  0  0  0  0
    6.8048   -7.5457   17.8752 C   0  0  0  0  0  0  0  0  0  0  0  0
    6.1721   -8.2186   15.9886 N   0  0  0  0  0  0  0  0  0  0  0  0
   11.1764   -2.6600   19.5604 C   0  0  0  0  0  0  0  0  0  0  0  0
    9.5491   -0.6380   24.1912 C   0  0  0  0  0  0  0  0  0  0  0  0
    7.5337   -6.9256   16.9519 C   0  0  0  0  0  0  0  0  0  0  0  0
    9.6782    0.5671   23.5143 C   0  0  0  0  0  0  0  0  0  0  0  0
    8.4532    0.3482   26.0821 C   0  0  0  0  0  0  0  0  0  0  0  0
   10.4239   -1.7677   22.2230 N   0  0  0  0  0  0  0  0  0  0  0  0
    9.9468   -4.5953   20.1709 C   0  0  0  0  0  0  0  0  0  0  0  0
   10.0366   -3.0590   23.9864 N   0  0  0  0  0  0  0  0  0  0  0  0
    7.1191   -7.3636   15.7739 C   0  0  0  0  0  0  0  0  0  0  0  0
    5.9612   -8.3203   17.2732 N   0  0  0  0  0  0  0  0  0  0  0  0
    8.5296   -5.9814   17.1841 C   0  0  0  0  0  0  0  0  0  0  0  0
    9.1527   -5.2118   16.2116 C   0  0  0  0  0  0  0  0  0  0  0  0
   10.3364   -3.8368   22.9255 O   0  0  0  0  0  0  0  0  0  0  0  0
    9.6947   -4.8407   18.8534 C   0  0  0  0  0  0  0  0  0  0  0  0
    9.1596    1.7042   24.1381 C   0  0  0  0  0  0  0  0  0  0  0  0
   11.0456   -2.9774   18.2694 N   0  0  0  0  0  0  0  0  0  0  0  0
   10.4788   -3.0457   21.8593 C   0  0  0  0  0  0  0  0  0  0  0  0
    8.8693   -5.8099   18.4657 N   0  0  0  0  0  0  0  0  0  0  0  0
    8.9892   -0.7926   25.4573 C   0  0  0  0  0  0  0  0  0  0  0  0
   10.5677   -3.4462   20.5323 C   0  0  0  0  0  0  0  0  0  0  0  0
  1  8  1  0
  1 12  4  0
  1 14  4  0
  2  3  4  0
  2 18  4  0
  3 20  4  0
  3 22  4  0
  4 11  4  0
  4 21  4  0
  5  9  4  0
  5 16  4  0
  6 15  4  0
  6 16  4  0
  7 22  4  0
  7 26  4  0
  8 10  4  0
  8 25  4  0
  9 15  4  0
  9 17  1  0
 10 21  4  0
 11 25  4  0
 12 23  4  0
 13 20  4  0
 13 26  4  0
 14 19  4  0
 17 18  4  0
 17 24  4  0
 19 23  4  0
 20 24  4  0
 23 26  1  0
M  END
$$$$

 Created by Python create_sdf_string function

 26 30  0  0  0  0  0  0  0  0999 V2000
   10.0084   -1.8019   23.4945 C   0  0  0  0  0  0  0  0  0  0  0  0
   10.0005   -4.2520   16.5631 C   0  0  0  0  0  0  0  0  0  0  0  0
   10.2759   -4.0036   17.8845 C   0  0  0  0  0  0  0  0  0  0  0  0
    8.5652    1.5478   25.3778 N   0  0  0  0  0  0  0  0  0  0  0  0
    6.8048   -7.5457   17.8752 C   0  0  0  0  0  0  0  0  0  0  0  0
    6.1721   -8.2186   15.9886 N   0  0  0  0  0  0  0  0  0  0  0  0
   11.1764   -2.6600   19.5604 C   0  0  0  0  0  0  0  0  0  0  0  0
    9.5491   -0.6380   24.1912 C   0  0  0  0  0  0  0  0  0  0  0  0
    7.5337   -6.9256   16.9519 C   0  0  0  0  0  0  0  0  0  0  0  0
    9.6782    0.5671   23.5143 C   0  0  0  0  0  0  0  0  0  0  0  0
    8.4532    0.3482   26.0821 C   0  0  0  0  0  0  0  0  0  0  0  0
   10.4239   -1.7677   22.2230 N   0  0  0  0  0  0  0  0  0  0  0  0
    9.9468   -4.5953   20.1709 C   0  0  0  0  0  0  0  0  0  0  0  0
   10.0366   -3.0590   23.9864 N   0  0  0  0  0  0  0  0  0  0  0  0
    7.1191   -7.3636   15.7739 C   0  0  0  0  0  0  0  0  0  0  0  0
    5.9612   -8.3203   17.2732 N   0  0  0  0  0  0  0  0  0  0  0  0
    8.5296   -5.9814   17.1841 C   0  0  0  0  0  0  0  0  0  0  0  0
    9.1527   -5.2118   16.2116 C   0  0  0  0  0  0  0  0  0  0  0  0
   10.3364   -3.8368   22.9255 O   0  0  0  0  0  0  0  0  0  0  0  0
    9.6947   -4.8407   18.8534 C   0  0  0  0  0  0  0  0  0  0  0  0
    9.1596    1.7042   24.1381 C   0  0  0  0  0  0  0  0  0  0  0  0
   11.0456   -2.9774   18.2694 N   0  0  0  0  0  0  0  0  0  0  0  0
   10.4788   -3.0457   21.8593 C   0  0  0  0  0  0  0  0  0  0  0  0
    8.8693   -5.8099   18.4657 N   0  0  0  0  0  0  0  0  0  0  0  0
    8.9892   -0.7926   25.4573 C   0  0  0  0  0  0  0  0  0  0  0  0
   10.5677   -3.4462   20.5323 C   0  0  0  0  0  0  0  0  0  0  0  0
  1  8  1  0
  1 12  4  0
  1 14  4  0
  2  3  4  0
  2 18  4  0
  3 20  4  0
  3 22  4  0
  4 11  4  0
  4 21  4  0
  5  9  4  0
  5 16  4  0
  6 15  4  0
  6 16  4  0
  7 22  4  0
  7 26  4  0
  8 10  4  0
  8 25  4  0
  9 15  4  0
  9 17  1  0
 10 21  4  0
 11 25  4  0
 12 23  4  0
 13 20  4  0
 13 26  4  0
 14 19  4  0
 17 18  4  0
 17 24  4  0
 19 23  4  0
 20 24  4  0
 23 26  1  0
M  END
$$$$

 Created by Python create_sdf_string function

 26 30  0  0  0  0  0  0  0  0999 V2000
   10.0084   -1.8019   23.4945 C   0  0  0  0  0  0  0  0  0  0  0  0
   10.0005   -4.2520   16.5631 C   0  0  0  0  0  0  0  0  0  0  0  0
   10.2759   -4.0036   17.8845 C   0  0  0  0  0  0  0  0  0  0  0  0
    8.5652    1.5478   25.3778 N   0  0  0  0  0  0  0  0  0  0  0  0
    6.8048   -7.5457   17.8752 C   0  0  0  0  0  0  0  0  0  0  0  0
    6.1721   -8.2186   15.9886 N   0  0  0  0  0  0  0  0  0  0  0  0
   11.1764   -2.6600   19.5604 C   0  0  0  0  0  0  0  0  0  0  0  0
    9.5491   -0.6380   24.1912 C   0  0  0  0  0  0  0  0  0  0  0  0
    7.5337   -6.9256   16.9519 C   0  0  0  0  0  0  0  0  0  0  0  0
    9.6782    0.5671   23.5143 C   0  0  0  0  0  0  0  0  0  0  0  0
    8.4532    0.3482   26.0821 C   0  0  0  0  0  0  0  0  0  0  0  0
   10.4239   -1.7677   22.2230 N   0  0  0  0  0  0  0  0  0  0  0  0
    9.9468   -4.5953   20.1709 C   0  0  0  0  0  0  0  0  0  0  0  0
   10.0366   -3.0590   23.9864 N   0  0  0  0  0  0  0  0  0  0  0  0
    7.1191   -7.3636   15.7739 C   0  0  0  0  0  0  0  0  0  0  0  0
    5.9612   -8.3203   17.2732 N   0  0  0  0  0  0  0  0  0  0  0  0
    8.5296   -5.9814   17.1841 C   0  0  0  0  0  0  0  0  0  0  0  0
    9.1527   -5.2118   16.2116 C   0  0  0  0  0  0  0  0  0  0  0  0
   10.3364   -3.8368   22.9255 O   0  0  0  0  0  0  0  0  0  0  0  0
    9.6947   -4.8407   18.8534 C   0  0  0  0  0  0  0  0  0  0  0  0
    9.1596    1.7042   24.1381 C   0  0  0  0  0  0  0  0  0  0  0  0
   11.0456   -2.9774   18.2694 N   0  0  0  0  0  0  0  0  0  0  0  0
   10.4788   -3.0457   21.8593 C   0  0  0  0  0  0  0  0  0  0  0  0
    8.8693   -5.8099   18.4657 N   0  0  0  0  0  0  0  0  0  0  0  0
    8.9892   -0.7926   25.4573 C   0  0  0  0  0  0  0  0  0  0  0  0
   10.5677   -3.4462   20.5323 C   0  0  0  0  0  0  0  0  0  0  0  0
  1  8  1  0
  1 12  4  0
  1 14  4  0
  2  3  4  0
  2 18  4  0
  3 20  4  0
  3 22  4  0
  4 11  4  0
  4 21  4  0
  5  9  4  0
  5 16  4  0
  6 15  4  0
  6 16  4  0
  7 22  4  0
  7 26  4  0
  8 10  4  0
  8 25  4  0
  9 15  4  0
  9 17  1  0
 10 21  4  0
 11 25  4  0
 12 23  4  0
 13 20  4  0
 13 26  4  0
 14 19  4  0
 17 18  4  0
 17 24  4  0
 19 23  4  0
 20 24  4  0
 23 26  1  0
M  END
$$$$

 Created by Python create_sdf_string function

 26 30  0  0  0  0  0  0  0  0999 V2000
   10.0084   -1.8019   23.4945 C   0  0  0  0  0  0  0  0  0  0  0  0
   10.0005   -4.2520   16.5631 C   0  0  0  0  0  0  0  0  0  0  0  0
   10.2759   -4.0036   17.8845 C   0  0  0  0  0  0  0  0  0  0  0  0
    8.5652    1.5478   25.3778 N   0  0  0  0  0  0  0  0  0  0  0  0
    6.8048   -7.5457   17.8752 C   0  0  0  0  0  0  0  0  0  0  0  0
    6.1721   -8.2186   15.9886 N   0  0  0  0  0  0  0  0  0  0  0  0
   11.1764   -2.6600   19.5604 C   0  0  0  0  0  0  0  0  0  0  0  0
    9.5491   -0.6380   24.1912 C   0  0  0  0  0  0  0  0  0  0  0  0
    7.5337   -6.9256   16.9519 C   0  0  0  0  0  0  0  0  0  0  0  0
    9.6782    0.5671   23.5143 C   0  0  0  0  0  0  0  0  0  0  0  0
    8.4532    0.3482   26.0821 C   0  0  0  0  0  0  0  0  0  0  0  0
   10.4239   -1.7677   22.2230 N   0  0  0  0  0  0  0  0  0  0  0  0
    9.9468   -4.5953   20.1709 C   0  0  0  0  0  0  0  0  0  0  0  0
   10.0366   -3.0590   23.9864 N   0  0  0  0  0  0  0  0  0  0  0  0
    7.1191   -7.3636   15.7739 C   0  0  0  0  0  0  0  0  0  0  0  0
    5.9612   -8.3203   17.2732 N   0  0  0  0  0  0  0  0  0  0  0  0
    8.5296   -5.9814   17.1841 C   0  0  0  0  0  0  0  0  0  0  0  0
    9.1527   -5.2118   16.2116 C   0  0  0  0  0  0  0  0  0  0  0  0
   10.3364   -3.8368   22.9255 O   0  0  0  0  0  0  0  0  0  0  0  0
    9.6947   -4.8407   18.8534 C   0  0  0  0  0  0  0  0  0  0  0  0
    9.1596    1.7042   24.1381 C   0  0  0  0  0  0  0  0  0  0  0  0
   11.0456   -2.9774   18.2694 N   0  0  0  0  0  0  0  0  0  0  0  0
   10.4788   -3.0457   21.8593 C   0  0  0  0  0  0  0  0  0  0  0  0
    8.8693   -5.8099   18.4657 N   0  0  0  0  0  0  0  0  0  0  0  0
    8.9892   -0.7926   25.4573 C   0  0  0  0  0  0  0  0  0  0  0  0
   10.5677   -3.4462   20.5323 C   0  0  0  0  0  0  0  0  0  0  0  0
  1  8  1  0
  1 12  4  0
  1 14  4  0
  2  3  4  0
  2 18  4  0
  3 20  4  0
  3 22  4  0
  4 11  4  0
  4 21  4  0
  5  9  4  0
  5 16  4  0
  6 15  4  0
  6 16  4  0
  7 22  4  0
  7 26  4  0
  8 10  4  0
  8 25  4  0
  9 15  4  0
  9 17  1  0
 10 21  4  0
 11 25  4  0
 12 23  4  0
 13 20  4  0
 13 26  4  0
 14 19  4  0
 17 18  4  0
 17 24  4  0
 19 23  4  0
 20 24  4  0
 23 26  1  0
M  END
$$$$

 Created by Python create_sdf_string function

 26 30  0  0  0  0  0  0  0  0999 V2000
   10.0084   -1.8019   23.4945 C   0  0  0  0  0  0  0  0  0  0  0  0
   10.0005   -4.2520   16.5631 C   0  0  0  0  0  0  0  0  0  0  0  0
   10.2759   -4.0036   17.8845 C   0  0  0  0  0  0  0  0  0  0  0  0
    8.5652    1.5478   25.3778 N   0  0  0  0  0  0  0  0  0  0  0  0
    6.8048   -7.5457   17.8752 C   0  0  0  0  0  0  0  0  0  0  0  0
    6.1721   -8.2186   15.9886 N   0  0  0  0  0  0  0  0  0  0  0  0
   11.1764   -2.6600   19.5604 C   0  0  0  0  0  0  0  0  0  0  0  0
    9.5491   -0.6380   24.1912 C   0  0  0  0  0  0  0  0  0  0  0  0
    7.5337   -6.9256   16.9519 C   0  0  0  0  0  0  0  0  0  0  0  0
    9.6782    0.5671   23.5143 C   0  0  0  0  0  0  0  0  0  0  0  0
    8.4532    0.3482   26.0821 C   0  0  0  0  0  0  0  0  0  0  0  0
   10.4239   -1.7677   22.2230 N   0  0  0  0  0  0  0  0  0  0  0  0
    9.9468   -4.5953   20.1709 C   0  0  0  0  0  0  0  0  0  0  0  0
   10.0366   -3.0590   23.9864 N   0  0  0  0  0  0  0  0  0  0  0  0
    7.1191   -7.3636   15.7739 C   0  0  0  0  0  0  0  0  0  0  0  0
    5.9612   -8.3203   17.2732 N   0  0  0  0  0  0  0  0  0  0  0  0
    8.5296   -5.9814   17.1841 C   0  0  0  0  0  0  0  0  0  0  0  0
    9.1527   -5.2118   16.2116 C   0  0  0  0  0  0  0  0  0  0  0  0
   10.3364   -3.8368   22.9255 O   0  0  0  0  0  0  0  0  0  0  0  0
    9.6947   -4.8407   18.8534 C   0  0  0  0  0  0  0  0  0  0  0  0
    9.1596    1.7042   24.1381 C   0  0  0  0  0  0  0  0  0  0  0  0
   11.0456   -2.9774   18.2694 N   0  0  0  0  0  0  0  0  0  0  0  0
   10.4788   -3.0457   21.8593 C   0  0  0  0  0  0  0  0  0  0  0  0
    8.8693   -5.8099   18.4657 N   0  0  0  0  0  0  0  0  0  0  0  0
    8.9892   -0.7926   25.4573 C   0  0  0  0  0  0  0  0  0  0  0  0
   10.5677   -3.4462   20.5323 C   0  0  0  0  0  0  0  0  0  0  0  0
  1  8  1  0
  1 12  4  0
  1 14  4  0
  2  3  4  0
  2 18  4  0
  3 20  4  0
  3 22  4  0
  4 11  4  0
  4 21  4  0
  5  9  4  0
  5 16  4  0
  6 15  4  0
  6 16  4  0
  7 22  4  0
  7 26  4  0
  8 10  4  0
  8 25  4  0
  9 15  4  0
  9 17  1  0
 10 21  4  0
 11 25  4  0
 12 23  4  0
 13 20  4  0
 13 26  4  0
 14 19  4  0
 17 18  4  0
 17 24  4  0
 19 23  4  0
 20 24  4  0
 23 26  1  0
M  END
$$$$

 Created by Python create_sdf_string function

 26 30  0  0  0  0  0  0  0  0999 V2000
   10.0084   -1.8019   23.4945 C   0  0  0  0  0  0  0  0  0  0  0  0
   10.0005   -4.2520   16.5631 C   0  0  0  0  0  0  0  0  0  0  0  0
   10.2759   -4.0036   17.8845 C   0  0  0  0  0  0  0  0  0  0  0  0
    8.5652    1.5478   25.3778 N   0  0  0  0  0  0  0  0  0  0  0  0
    6.8048   -7.5457   17.8752 C   0  0  0  0  0  0  0  0  0  0  0  0
    6.1721   -8.2186   15.9886 N   0  0  0  0  0  0  0  0  0  0  0  0
   11.1764   -2.6600   19.5604 C   0  0  0  0  0  0  0  0  0  0  0  0
    9.5491   -0.6380   24.1912 C   0  0  0  0  0  0  0  0  0  0  0  0
    7.5337   -6.9256   16.9519 C   0  0  0  0  0  0  0  0  0  0  0  0
    9.6782    0.5671   23.5143 C   0  0  0  0  0  0  0  0  0  0  0  0
    8.4532    0.3482   26.0821 C   0  0  0  0  0  0  0  0  0  0  0  0
   10.4239   -1.7677   22.2230 N   0  0  0  0  0  0  0  0  0  0  0  0
    9.9468   -4.5953   20.1709 C   0  0  0  0  0  0  0  0  0  0  0  0
   10.0366   -3.0590   23.9864 N   0  0  0  0  0  0  0  0  0  0  0  0
    7.1191   -7.3636   15.7739 C   0  0  0  0  0  0  0  0  0  0  0  0
    5.9612   -8.3203   17.2732 N   0  0  0  0  0  0  0  0  0  0  0  0
    8.5296   -5.9814   17.1841 C   0  0  0  0  0  0  0  0  0  0  0  0
    9.1527   -5.2118   16.2116 C   0  0  0  0  0  0  0  0  0  0  0  0
   10.3364   -3.8368   22.9255 O   0  0  0  0  0  0  0  0  0  0  0  0
    9.6947   -4.8407   18.8534 C   0  0  0  0  0  0  0  0  0  0  0  0
    9.1596    1.7042   24.1381 C   0  0  0  0  0  0  0  0  0  0  0  0
   11.0456   -2.9774   18.2694 N   0  0  0  0  0  0  0  0  0  0  0  0
   10.4788   -3.0457   21.8593 C   0  0  0  0  0  0  0  0  0  0  0  0
    8.8693   -5.8099   18.4657 N   0  0  0  0  0  0  0  0  0  0  0  0
    8.9892   -0.7926   25.4573 C   0  0  0  0  0  0  0  0  0  0  0  0
   10.5677   -3.4462   20.5323 C   0  0  0  0  0  0  0  0  0  0  0  0
  1  8  1  0
  1 12  4  0
  1 14  4  0
  2  3  4  0
  2 18  4  0
  3 20  4  0
  3 22  4  0
  4 11  4  0
  4 21  4  0
  5  9  4  0
  5 16  4  0
  6 15  4  0
  6 16  4  0
  7 22  4  0
  7 26  4  0
  8 10  4  0
  8 25  4  0
  9 15  4  0
  9 17  1  0
 10 21  4  0
 11 25  4  0
 12 23  4  0
 13 20  4  0
 13 26  4  0
 14 19  4  0
 17 18  4  0
 17 24  4  0
 19 23  4  0
 20 24  4  0
 23 26  1  0
M  END
$$$$

 Created by Python create_sdf_string function

 26 30  0  0  0  0  0  0  0  0999 V2000
   10.0084   -1.8019   23.4945 C   0  0  0  0  0  0  0  0  0  0  0  0
   10.0005   -4.2520   16.5631 C   0  0  0  0  0  0  0  0  0  0  0  0
   10.2759   -4.0036   17.8845 C   0  0  0  0  0  0  0  0  0  0  0  0
    8.5652    1.5478   25.3778 N   0  0  0  0  0  0  0  0  0  0  0  0
    6.8048   -7.5457   17.8752 C   0  0  0  0  0  0  0  0  0  0  0  0
    6.1721   -8.2186   15.9886 N   0  0  0  0  0  0  0  0  0  0  0  0
   11.1764   -2.6600   19.5604 C   0  0  0  0  0  0  0  0  0  0  0  0
    9.5491   -0.6380   24.1912 C   0  0  0  0  0  0  0  0  0  0  0  0
    7.5337   -6.9256   16.9519 C   0  0  0  0  0  0  0  0  0  0  0  0
    9.6782    0.5671   23.5143 C   0  0  0  0  0  0  0  0  0  0  0  0
    8.4532    0.3482   26.0821 C   0  0  0  0  0  0  0  0  0  0  0  0
   10.4239   -1.7677   22.2230 N   0  0  0  0  0  0  0  0  0  0  0  0
    9.9468   -4.5953   20.1709 C   0  0  0  0  0  0  0  0  0  0  0  0
   10.0366   -3.0590   23.9864 N   0  0  0  0  0  0  0  0  0  0  0  0
    7.1191   -7.3636   15.7739 C   0  0  0  0  0  0  0  0  0  0  0  0
    5.9612   -8.3203   17.2732 N   0  0  0  0  0  0  0  0  0  0  0  0
    8.5296   -5.9814   17.1841 C   0  0  0  0  0  0  0  0  0  0  0  0
    9.1527   -5.2118   16.2116 C   0  0  0  0  0  0  0  0  0  0  0  0
   10.3364   -3.8368   22.9255 O   0  0  0  0  0  0  0  0  0  0  0  0
    9.6947   -4.8407   18.8534 C   0  0  0  0  0  0  0  0  0  0  0  0
    9.1596    1.7042   24.1381 C   0  0  0  0  0  0  0  0  0  0  0  0
   11.0456   -2.9774   18.2694 N   0  0  0  0  0  0  0  0  0  0  0  0
   10.4788   -3.0457   21.8593 C   0  0  0  0  0  0  0  0  0  0  0  0
    8.8693   -5.8099   18.4657 N   0  0  0  0  0  0  0  0  0  0  0  0
    8.9892   -0.7926   25.4573 C   0  0  0  0  0  0  0  0  0  0  0  0
   10.5677   -3.4462   20.5323 C   0  0  0  0  0  0  0  0  0  0  0  0
  1  8  1  0
  1 12  4  0
  1 14  4  0
  2  3  4  0
  2 18  4  0
  3 20  4  0
  3 22  4  0
  4 11  4  0
  4 21  4  0
  5  9  4  0
  5 16  4  0
  6 15  4  0
  6 16  4  0
  7 22  4  0
  7 26  4  0
  8 10  4  0
  8 25  4  0
  9 15  4  0
  9 17  1  0
 10 21  4  0
 11 25  4  0
 12 23  4  0
 13 20  4  0
 13 26  4  0
 14 19  4  0
 17 18  4  0
 17 24  4  0
 19 23  4  0
 20 24  4  0
 23 26  1  0
M  END
$$$$

 Created by Python create_sdf_string function

 26 30  0  0  0  0  0  0  0  0999 V2000
   10.0084   -1.8019   23.4945 C   0  0  0  0  0  0  0  0  0  0  0  0
   10.0005   -4.2520   16.5631 C   0  0  0  0  0  0  0  0  0  0  0  0
   10.2759   -4.0036   17.8845 C   0  0  0  0  0  0  0  0  0  0  0  0
    8.5652    1.5478   25.3778 N   0  0  0  0  0  0  0  0  0  0  0  0
    6.8048   -7.5457   17.8752 C   0  0  0  0  0  0  0  0  0  0  0  0
    6.1721   -8.2186   15.9886 N   0  0  0  0  0  0  0  0  0  0  0  0
   11.1764   -2.6600   19.5604 C   0  0  0  0  0  0  0  0  0  0  0  0
    9.5491   -0.6380   24.1912 C   0  0  0  0  0  0  0  0  0  0  0  0
    7.5337   -6.9256   16.9519 C   0  0  0  0  0  0  0  0  0  0  0  0
    9.6782    0.5671   23.5143 C   0  0  0  0  0  0  0  0  0  0  0  0
    8.4532    0.3482   26.0821 C   0  0  0  0  0  0  0  0  0  0  0  0
   10.4239   -1.7677   22.2230 N   0  0  0  0  0  0  0  0  0  0  0  0
    9.9468   -4.5953   20.1709 C   0  0  0  0  0  0  0  0  0  0  0  0
   10.0366   -3.0590   23.9864 N   0  0  0  0  0  0  0  0  0  0  0  0
    7.1191   -7.3636   15.7739 C   0  0  0  0  0  0  0  0  0  0  0  0
    5.9612   -8.3203   17.2732 N   0  0  0  0  0  0  0  0  0  0  0  0
    8.5296   -5.9814   17.1841 C   0  0  0  0  0  0  0  0  0  0  0  0
    9.1527   -5.2118   16.2116 C   0  0  0  0  0  0  0  0  0  0  0  0
   10.3364   -3.8368   22.9255 O   0  0  0  0  0  0  0  0  0  0  0  0
    9.6947   -4.8407   18.8534 C   0  0  0  0  0  0  0  0  0  0  0  0
    9.1596    1.7042   24.1381 C   0  0  0  0  0  0  0  0  0  0  0  0
   11.0456   -2.9774   18.2694 N   0  0  0  0  0  0  0  0  0  0  0  0
   10.4788   -3.0457   21.8593 C   0  0  0  0  0  0  0  0  0  0  0  0
    8.8693   -5.8099   18.4657 N   0  0  0  0  0  0  0  0  0  0  0  0
    8.9892   -0.7926   25.4573 C   0  0  0  0  0  0  0  0  0  0  0  0
   10.5677   -3.4462   20.5323 C   0  0  0  0  0  0  0  0  0  0  0  0
  1  8  1  0
  1 12  4  0
  1 14  4  0
  2  3  4  0
  2 18  4  0
  3 20  4  0
  3 22  4  0
  4 11  4  0
  4 21  4  0
  5  9  4  0
  5 16  4  0
  6 15  4  0
  6 16  4  0
  7 22  4  0
  7 26  4  0
  8 10  4  0
  8 25  4  0
  9 15  4  0
  9 17  1  0
 10 21  4  0
 11 25  4  0
 12 23  4  0
 13 20  4  0
 13 26  4  0
 14 19  4  0
 17 18  4  0
 17 24  4  0
 19 23  4  0
 20 24  4  0
 23 26  1  0
M  END
$$$$

 Created by Python create_sdf_string function

 26 30  0  0  0  0  0  0  0  0999 V2000
   10.0084   -1.8019   23.4945 C   0  0  0  0  0  0  0  0  0  0  0  0
   10.0005   -4.2520   16.5631 C   0  0  0  0  0  0  0  0  0  0  0  0
   10.2759   -4.0036   17.8845 C   0  0  0  0  0  0  0  0  0  0  0  0
    8.5652    1.5478   25.3778 N   0  0  0  0  0  0  0  0  0  0  0  0
    6.8048   -7.5457   17.8752 C   0  0  0  0  0  0  0  0  0  0  0  0
    6.1721   -8.2186   15.9886 N   0  0  0  0  0  0  0  0  0  0  0  0
   11.1764   -2.6600   19.5604 C   0  0  0  0  0  0  0  0  0  0  0  0
    9.5491   -0.6380   24.1912 C   0  0  0  0  0  0  0  0  0  0  0  0
    7.5337   -6.9256   16.9519 C   0  0  0  0  0  0  0  0  0  0  0  0
    9.6782    0.5671   23.5143 C   0  0  0  0  0  0  0  0  0  0  0  0
    8.4532    0.3482   26.0821 C   0  0  0  0  0  0  0  0  0  0  0  0
   10.4239   -1.7677   22.2230 N   0  0  0  0  0  0  0  0  0  0  0  0
    9.9468   -4.5953   20.1709 C   0  0  0  0  0  0  0  0  0  0  0  0
   10.0366   -3.0590   23.9864 N   0  0  0  0  0  0  0  0  0  0  0  0
    7.1191   -7.3636   15.7739 C   0  0  0  0  0  0  0  0  0  0  0  0
    5.9612   -8.3203   17.2732 N   0  0  0  0  0  0  0  0  0  0  0  0
    8.5296   -5.9814   17.1841 C   0  0  0  0  0  0  0  0  0  0  0  0
    9.1527   -5.2118   16.2116 C   0  0  0  0  0  0  0  0  0  0  0  0
   10.3364   -3.8368   22.9255 O   0  0  0  0  0  0  0  0  0  0  0  0
    9.6947   -4.8407   18.8534 C   0  0  0  0  0  0  0  0  0  0  0  0
    9.1596    1.7042   24.1381 C   0  0  0  0  0  0  0  0  0  0  0  0
   11.0456   -2.9774   18.2694 N   0  0  0  0  0  0  0  0  0  0  0  0
   10.4788   -3.0457   21.8593 C   0  0  0  0  0  0  0  0  0  0  0  0
    8.8693   -5.8099   18.4657 N   0  0  0  0  0  0  0  0  0  0  0  0
    8.9892   -0.7926   25.4573 C   0  0  0  0  0  0  0  0  0  0  0  0
   10.5677   -3.4462   20.5323 C   0  0  0  0  0  0  0  0  0  0  0  0
  1  8  1  0
  1 12  4  0
  1 14  4  0
  2  3  4  0
  2 18  4  0
  3 20  4  0
  3 22  4  0
  4 11  4  0
  4 21  4  0
  5  9  4  0
  5 16  4  0
  6 15  4  0
  6 16  4  0
  7 22  4  0
  7 26  4  0
  8 10  4  0
  8 25  4  0
  9 15  4  0
  9 17  1  0
 10 21  4  0
 11 25  4  0
 12 23  4  0
 13 20  4  0
 13 26  4  0
 14 19  4  0
 17 18  4  0
 17 24  4  0
 19 23  4  0
 20 24  4  0
 23 26  1  0
M  END
$$$$

 Created by Python create_sdf_string function

 26 30  0  0  0  0  0  0  0  0999 V2000
   10.0084   -1.8019   23.4945 C   0  0  0  0  0  0  0  0  0  0  0  0
   10.0005   -4.2520   16.5631 C   0  0  0  0  0  0  0  0  0  0  0  0
   10.2759   -4.0036   17.8845 C   0  0  0  0  0  0  0  0  0  0  0  0
    8.5652    1.5478   25.3778 N   0  0  0  0  0  0  0  0  0  0  0  0
    6.8048   -7.5457   17.8752 C   0  0  0  0  0  0  0  0  0  0  0  0
    6.1721   -8.2186   15.9886 N   0  0  0  0  0  0  0  0  0  0  0  0
   11.1764   -2.6600   19.5604 C   0  0  0  0  0  0  0  0  0  0  0  0
    9.5491   -0.6380   24.1912 C   0  0  0  0  0  0  0  0  0  0  0  0
    7.5337   -6.9256   16.9519 C   0  0  0  0  0  0  0  0  0  0  0  0
    9.6782    0.5671   23.5143 C   0  0  0  0  0  0  0  0  0  0  0  0
    8.4532    0.3482   26.0821 C   0  0  0  0  0  0  0  0  0  0  0  0
   10.4239   -1.7677   22.2230 N   0  0  0  0  0  0  0  0  0  0  0  0
    9.9468   -4.5953   20.1709 C   0  0  0  0  0  0  0  0  0  0  0  0
   10.0366   -3.0590   23.9864 N   0  0  0  0  0  0  0  0  0  0  0  0
    7.1191   -7.3636   15.7739 C   0  0  0  0  0  0  0  0  0  0  0  0
    5.9612   -8.3203   17.2732 N   0  0  0  0  0  0  0  0  0  0  0  0
    8.5296   -5.9814   17.1841 C   0  0  0  0  0  0  0  0  0  0  0  0
    9.1527   -5.2118   16.2116 C   0  0  0  0  0  0  0  0  0  0  0  0
   10.3364   -3.8368   22.9255 O   0  0  0  0  0  0  0  0  0  0  0  0
    9.6947   -4.8407   18.8534 C   0  0  0  0  0  0  0  0  0  0  0  0
    9.1596    1.7042   24.1381 C   0  0  0  0  0  0  0  0  0  0  0  0
   11.0456   -2.9774   18.2694 N   0  0  0  0  0  0  0  0  0  0  0  0
   10.4788   -3.0457   21.8593 C   0  0  0  0  0  0  0  0  0  0  0  0
    8.8693   -5.8099   18.4657 N   0  0  0  0  0  0  0  0  0  0  0  0
    8.9892   -0.7926   25.4573 C   0  0  0  0  0  0  0  0  0  0  0  0
   10.5677   -3.4462   20.5323 C   0  0  0  0  0  0  0  0  0  0  0  0
  1  8  1  0
  1 12  4  0
  1 14  4  0
  2  3  4  0
  2 18  4  0
  3 20  4  0
  3 22  4  0
  4 11  4  0
  4 21  4  0
  5  9  4  0
  5 16  4  0
  6 15  4  0
  6 16  4  0
  7 22  4  0
  7 26  4  0
  8 10  4  0
  8 25  4  0
  9 15  4  0
  9 17  1  0
 10 21  4  0
 11 25  4  0
 12 23  4  0
 13 20  4  0
 13 26  4  0
 14 19  4  0
 17 18  4  0
 17 24  4  0
 19 23  4  0
 20 24  4  0
 23 26  1  0
M  END
$$$$

 Created by Python create_sdf_string function

 26 30  0  0  0  0  0  0  0  0999 V2000
   10.0084   -1.8019   23.4945 C   0  0  0  0  0  0  0  0  0  0  0  0
   10.0005   -4.2520   16.5631 C   0  0  0  0  0  0  0  0  0  0  0  0
   10.2759   -4.0036   17.8845 C   0  0  0  0  0  0  0  0  0  0  0  0
    8.5652    1.5478   25.3778 N   0  0  0  0  0  0  0  0  0  0  0  0
    6.8048   -7.5457   17.8752 C   0  0  0  0  0  0  0  0  0  0  0  0
    6.1721   -8.2186   15.9886 N   0  0  0  0  0  0  0  0  0  0  0  0
   11.1764   -2.6600   19.5604 C   0  0  0  0  0  0  0  0  0  0  0  0
    9.5491   -0.6380   24.1912 C   0  0  0  0  0  0  0  0  0  0  0  0
    7.5337   -6.9256   16.9519 C   0  0  0  0  0  0  0  0  0  0  0  0
    9.6782    0.5671   23.5143 C   0  0  0  0  0  0  0  0  0  0  0  0
    8.4532    0.3482   26.0821 C   0  0  0  0  0  0  0  0  0  0  0  0
   10.4239   -1.7677   22.2230 N   0  0  0  0  0  0  0  0  0  0  0  0
    9.9468   -4.5953   20.1709 C   0  0  0  0  0  0  0  0  0  0  0  0
   10.0366   -3.0590   23.9864 N   0  0  0  0  0  0  0  0  0  0  0  0
    7.1191   -7.3636   15.7739 C   0  0  0  0  0  0  0  0  0  0  0  0
    5.9612   -8.3203   17.2732 N   0  0  0  0  0  0  0  0  0  0  0  0
    8.5296   -5.9814   17.1841 C   0  0  0  0  0  0  0  0  0  0  0  0
    9.1527   -5.2118   16.2116 C   0  0  0  0  0  0  0  0  0  0  0  0
   10.3364   -3.8368   22.9255 O   0  0  0  0  0  0  0  0  0  0  0  0
    9.6947   -4.8407   18.8534 C   0  0  0  0  0  0  0  0  0  0  0  0
    9.1596    1.7042   24.1381 C   0  0  0  0  0  0  0  0  0  0  0  0
   11.0456   -2.9774   18.2694 N   0  0  0  0  0  0  0  0  0  0  0  0
   10.4788   -3.0457   21.8593 C   0  0  0  0  0  0  0  0  0  0  0  0
    8.8693   -5.8099   18.4657 N   0  0  0  0  0  0  0  0  0  0  0  0
    8.9892   -0.7926   25.4573 C   0  0  0  0  0  0  0  0  0  0  0  0
   10.5677   -3.4462   20.5323 C   0  0  0  0  0  0  0  0  0  0  0  0
  1  8  1  0
  1 12  4  0
  1 14  4  0
  2  3  4  0
  2 18  4  0
  3 20  4  0
  3 22  4  0
  4 11  4  0
  4 21  4  0
  5  9  4  0
  5 16  4  0
  6 15  4  0
  6 16  4  0
  7 22  4  0
  7 26  4  0
  8 10  4  0
  8 25  4  0
  9 15  4  0
  9 17  1  0
 10 21  4  0
 11 25  4  0
 12 23  4  0
 13 20  4  0
 13 26  4  0
 14 19  4  0
 17 18  4  0
 17 24  4  0
 19 23  4  0
 20 24  4  0
 23 26  1  0
M  END
$$$$

 Created by Python create_sdf_string function

 26 30  0  0  0  0  0  0  0  0999 V2000
   10.0084   -1.8019   23.4945 C   0  0  0  0  0  0  0  0  0  0  0  0
   10.0005   -4.2520   16.5631 C   0  0  0  0  0  0  0  0  0  0  0  0
   10.2759   -4.0036   17.8845 C   0  0  0  0  0  0  0  0  0  0  0  0
    8.5652    1.5478   25.3778 N   0  0  0  0  0  0  0  0  0  0  0  0
    6.8048   -7.5457   17.8752 C   0  0  0  0  0  0  0  0  0  0  0  0
    6.1721   -8.2186   15.9886 N   0  0  0  0  0  0  0  0  0  0  0  0
   11.1764   -2.6600   19.5604 C   0  0  0  0  0  0  0  0  0  0  0  0
    9.5491   -0.6380   24.1912 C   0  0  0  0  0  0  0  0  0  0  0  0
    7.5337   -6.9256   16.9519 C   0  0  0  0  0  0  0  0  0  0  0  0
    9.6782    0.5671   23.5143 C   0  0  0  0  0  0  0  0  0  0  0  0
    8.4532    0.3482   26.0821 C   0  0  0  0  0  0  0  0  0  0  0  0
   10.4239   -1.7677   22.2230 N   0  0  0  0  0  0  0  0  0  0  0  0
    9.9468   -4.5953   20.1709 C   0  0  0  0  0  0  0  0  0  0  0  0
   10.0366   -3.0590   23.9864 N   0  0  0  0  0  0  0  0  0  0  0  0
    7.1191   -7.3636   15.7739 C   0  0  0  0  0  0  0  0  0  0  0  0
    5.9612   -8.3203   17.2732 N   0  0  0  0  0  0  0  0  0  0  0  0
    8.5296   -5.9814   17.1841 C   0  0  0  0  0  0  0  0  0  0  0  0
    9.1527   -5.2118   16.2116 C   0  0  0  0  0  0  0  0  0  0  0  0
   10.3364   -3.8368   22.9255 O   0  0  0  0  0  0  0  0  0  0  0  0
    9.6947   -4.8407   18.8534 C   0  0  0  0  0  0  0  0  0  0  0  0
    9.1596    1.7042   24.1381 C   0  0  0  0  0  0  0  0  0  0  0  0
   11.0456   -2.9774   18.2694 N   0  0  0  0  0  0  0  0  0  0  0  0
   10.4788   -3.0457   21.8593 C   0  0  0  0  0  0  0  0  0  0  0  0
    8.8693   -5.8099   18.4657 N   0  0  0  0  0  0  0  0  0  0  0  0
    8.9892   -0.7926   25.4573 C   0  0  0  0  0  0  0  0  0  0  0  0
   10.5677   -3.4462   20.5323 C   0  0  0  0  0  0  0  0  0  0  0  0
  1  8  1  0
  1 12  4  0
  1 14  4  0
  2  3  4  0
  2 18  4  0
  3 20  4  0
  3 22  4  0
  4 11  4  0
  4 21  4  0
  5  9  4  0
  5 16  4  0
  6 15  4  0
  6 16  4  0
  7 22  4  0
  7 26  4  0
  8 10  4  0
  8 25  4  0
  9 15  4  0
  9 17  1  0
 10 21  4  0
 11 25  4  0
 12 23  4  0
 13 20  4  0
 13 26  4  0
 14 19  4  0
 17 18  4  0
 17 24  4  0
 19 23  4  0
 20 24  4  0
 23 26  1  0
M  END
$$$$

 Created by Python create_sdf_string function

 26 30  0  0  0  0  0  0  0  0999 V2000
   10.0084   -1.8019   23.4945 C   0  0  0  0  0  0  0  0  0  0  0  0
   10.0005   -4.2520   16.5631 C   0  0  0  0  0  0  0  0  0  0  0  0
   10.2759   -4.0036   17.8845 C   0  0  0  0  0  0  0  0  0  0  0  0
    8.5652    1.5478   25.3778 N   0  0  0  0  0  0  0  0  0  0  0  0
    6.8048   -7.5457   17.8752 C   0  0  0  0  0  0  0  0  0  0  0  0
    6.1721   -8.2186   15.9886 N   0  0  0  0  0  0  0  0  0  0  0  0
   11.1764   -2.6600   19.5604 C   0  0  0  0  0  0  0  0  0  0  0  0
    9.5491   -0.6380   24.1912 C   0  0  0  0  0  0  0  0  0  0  0  0
    7.5337   -6.9256   16.9519 C   0  0  0  0  0  0  0  0  0  0  0  0
    9.6782    0.5671   23.5143 C   0  0  0  0  0  0  0  0  0  0  0  0
    8.4532    0.3482   26.0821 C   0  0  0  0  0  0  0  0  0  0  0  0
   10.4239   -1.7677   22.2230 N   0  0  0  0  0  0  0  0  0  0  0  0
    9.9468   -4.5953   20.1709 C   0  0  0  0  0  0  0  0  0  0  0  0
   10.0366   -3.0590   23.9864 N   0  0  0  0  0  0  0  0  0  0  0  0
    7.1191   -7.3636   15.7739 C   0  0  0  0  0  0  0  0  0  0  0  0
    5.9612   -8.3203   17.2732 N   0  0  0  0  0  0  0  0  0  0  0  0
    8.5296   -5.9814   17.1841 C   0  0  0  0  0  0  0  0  0  0  0  0
    9.1527   -5.2118   16.2116 C   0  0  0  0  0  0  0  0  0  0  0  0
   10.3364   -3.8368   22.9255 O   0  0  0  0  0  0  0  0  0  0  0  0
    9.6947   -4.8407   18.8534 C   0  0  0  0  0  0  0  0  0  0  0  0
    9.1596    1.7042   24.1381 C   0  0  0  0  0  0  0  0  0  0  0  0
   11.0456   -2.9774   18.2694 N   0  0  0  0  0  0  0  0  0  0  0  0
   10.4788   -3.0457   21.8593 C   0  0  0  0  0  0  0  0  0  0  0  0
    8.8693   -5.8099   18.4657 N   0  0  0  0  0  0  0  0  0  0  0  0
    8.9892   -0.7926   25.4573 C   0  0  0  0  0  0  0  0  0  0  0  0
   10.5677   -3.4462   20.5323 C   0  0  0  0  0  0  0  0  0  0  0  0
  1  8  1  0
  1 12  4  0
  1 14  4  0
  2  3  4  0
  2 18  4  0
  3 20  4  0
  3 22  4  0
  4 11  4  0
  4 21  4  0
  5  9  4  0
  5 16  4  0
  6 15  4  0
  6 16  4  0
  7 22  4  0
  7 26  4  0
  8 10  4  0
  8 25  4  0
  9 15  4  0
  9 17  1  0
 10 21  4  0
 11 25  4  0
 12 23  4  0
 13 20  4  0
 13 26  4  0
 14 19  4  0
 17 18  4  0
 17 24  4  0
 19 23  4  0
 20 24  4  0
 23 26  1  0
M  END
$$$$

 Created by Python create_sdf_string function

 26 30  0  0  0  0  0  0  0  0999 V2000
   10.0084   -1.8019   23.4945 C   0  0  0  0  0  0  0  0  0  0  0  0
   10.0005   -4.2520   16.5631 C   0  0  0  0  0  0  0  0  0  0  0  0
   10.2759   -4.0036   17.8845 C   0  0  0  0  0  0  0  0  0  0  0  0
    8.5652    1.5478   25.3778 N   0  0  0  0  0  0  0  0  0  0  0  0
    6.8048   -7.5457   17.8752 C   0  0  0  0  0  0  0  0  0  0  0  0
    6.1721   -8.2186   15.9886 N   0  0  0  0  0  0  0  0  0  0  0  0
   11.1764   -2.6600   19.5604 C   0  0  0  0  0  0  0  0  0  0  0  0
    9.5491   -0.6380   24.1912 C   0  0  0  0  0  0  0  0  0  0  0  0
    7.5337   -6.9256   16.9519 C   0  0  0  0  0  0  0  0  0  0  0  0
    9.6782    0.5671   23.5143 C   0  0  0  0  0  0  0  0  0  0  0  0
    8.4532    0.3482   26.0821 C   0  0  0  0  0  0  0  0  0  0  0  0
   10.4239   -1.7677   22.2230 N   0  0  0  0  0  0  0  0  0  0  0  0
    9.9468   -4.5953   20.1709 C   0  0  0  0  0  0  0  0  0  0  0  0
   10.0366   -3.0590   23.9864 N   0  0  0  0  0  0  0  0  0  0  0  0
    7.1191   -7.3636   15.7739 C   0  0  0  0  0  0  0  0  0  0  0  0
    5.9612   -8.3203   17.2732 N   0  0  0  0  0  0  0  0  0  0  0  0
    8.5296   -5.9814   17.1841 C   0  0  0  0  0  0  0  0  0  0  0  0
    9.1527   -5.2118   16.2116 C   0  0  0  0  0  0  0  0  0  0  0  0
   10.3364   -3.8368   22.9255 O   0  0  0  0  0  0  0  0  0  0  0  0
    9.6947   -4.8407   18.8534 C   0  0  0  0  0  0  0  0  0  0  0  0
    9.1596    1.7042   24.1381 C   0  0  0  0  0  0  0  0  0  0  0  0
   11.0456   -2.9774   18.2694 N   0  0  0  0  0  0  0  0  0  0  0  0
   10.4788   -3.0457   21.8593 C   0  0  0  0  0  0  0  0  0  0  0  0
    8.8693   -5.8099   18.4657 N   0  0  0  0  0  0  0  0  0  0  0  0
    8.9892   -0.7926   25.4573 C   0  0  0  0  0  0  0  0  0  0  0  0
   10.5677   -3.4462   20.5323 C   0  0  0  0  0  0  0  0  0  0  0  0
  1  8  1  0
  1 12  4  0
  1 14  4  0
  2  3  4  0
  2 18  4  0
  3 20  4  0
  3 22  4  0
  4 11  4  0
  4 21  4  0
  5  9  4  0
  5 16  4  0
  6 15  4  0
  6 16  4  0
  7 22  4  0
  7 26  4  0
  8 10  4  0
  8 25  4  0
  9 15  4  0
  9 17  1  0
 10 21  4  0
 11 25  4  0
 12 23  4  0
 13 20  4  0
 13 26  4  0
 14 19  4  0
 17 18  4  0
 17 24  4  0
 19 23  4  0
 20 24  4  0
 23 26  1  0
M  END
$$$$

 Created by Python create_sdf_string function

 26 30  0  0  0  0  0  0  0  0999 V2000
   10.0084   -1.8019   23.4945 C   0  0  0  0  0  0  0  0  0  0  0  0
   10.0005   -4.2520   16.5631 C   0  0  0  0  0  0  0  0  0  0  0  0
   10.2759   -4.0036   17.8845 C   0  0  0  0  0  0  0  0  0  0  0  0
    8.5652    1.5478   25.3778 N   0  0  0  0  0  0  0  0  0  0  0  0
    6.8048   -7.5457   17.8752 C   0  0  0  0  0  0  0  0  0  0  0  0
    6.1721   -8.2186   15.9886 N   0  0  0  0  0  0  0  0  0  0  0  0
   11.1764   -2.6600   19.5604 C   0  0  0  0  0  0  0  0  0  0  0  0
    9.5491   -0.6380   24.1912 C   0  0  0  0  0  0  0  0  0  0  0  0
    7.5337   -6.9256   16.9519 C   0  0  0  0  0  0  0  0  0  0  0  0
    9.6782    0.5671   23.5143 C   0  0  0  0  0  0  0  0  0  0  0  0
    8.4532    0.3482   26.0821 C   0  0  0  0  0  0  0  0  0  0  0  0
   10.4239   -1.7677   22.2230 N   0  0  0  0  0  0  0  0  0  0  0  0
    9.9468   -4.5953   20.1709 C   0  0  0  0  0  0  0  0  0  0  0  0
   10.0366   -3.0590   23.9864 N   0  0  0  0  0  0  0  0  0  0  0  0
    7.1191   -7.3636   15.7739 C   0  0  0  0  0  0  0  0  0  0  0  0
    5.9612   -8.3203   17.2732 N   0  0  0  0  0  0  0  0  0  0  0  0
    8.5296   -5.9814   17.1841 C   0  0  0  0  0  0  0  0  0  0  0  0
    9.1527   -5.2118   16.2116 C   0  0  0  0  0  0  0  0  0  0  0  0
   10.3364   -3.8368   22.9255 O   0  0  0  0  0  0  0  0  0  0  0  0
    9.6947   -4.8407   18.8534 C   0  0  0  0  0  0  0  0  0  0  0  0
    9.1596    1.7042   24.1381 C   0  0  0  0  0  0  0  0  0  0  0  0
   11.0456   -2.9774   18.2694 N   0  0  0  0  0  0  0  0  0  0  0  0
   10.4788   -3.0457   21.8593 C   0  0  0  0  0  0  0  0  0  0  0  0
    8.8693   -5.8099   18.4657 N   0  0  0  0  0  0  0  0  0  0  0  0
    8.9892   -0.7926   25.4573 C   0  0  0  0  0  0  0  0  0  0  0  0
   10.5677   -3.4462   20.5323 C   0  0  0  0  0  0  0  0  0  0  0  0
  1  8  1  0
  1 12  4  0
  1 14  4  0
  2  3  4  0
  2 18  4  0
  3 20  4  0
  3 22  4  0
  4 11  4  0
  4 21  4  0
  5  9  4  0
  5 16  4  0
  6 15  4  0
  6 16  4  0
  7 22  4  0
  7 26  4  0
  8 10  4  0
  8 25  4  0
  9 15  4  0
  9 17  1  0
 10 21  4  0
 11 25  4  0
 12 23  4  0
 13 20  4  0
 13 26  4  0
 14 19  4  0
 17 18  4  0
 17 24  4  0
 19 23  4  0
 20 24  4  0
 23 26  1  0
M  END
$$$$

 Created by Python create_sdf_string function

 26 30  0  0  0  0  0  0  0  0999 V2000
   10.0084   -1.8019   23.4945 C   0  0  0  0  0  0  0  0  0  0  0  0
   10.0005   -4.2520   16.5631 C   0  0  0  0  0  0  0  0  0  0  0  0
   10.2759   -4.0036   17.8845 C   0  0  0  0  0  0  0  0  0  0  0  0
    8.5652    1.5478   25.3778 N   0  0  0  0  0  0  0  0  0  0  0  0
    6.8048   -7.5457   17.8752 C   0  0  0  0  0  0  0  0  0  0  0  0
    6.1721   -8.2186   15.9886 N   0  0  0  0  0  0  0  0  0  0  0  0
   11.1764   -2.6600   19.5604 C   0  0  0  0  0  0  0  0  0  0  0  0
    9.5491   -0.6380   24.1912 C   0  0  0  0  0  0  0  0  0  0  0  0
    7.5337   -6.9256   16.9519 C   0  0  0  0  0  0  0  0  0  0  0  0
    9.6782    0.5671   23.5143 C   0  0  0  0  0  0  0  0  0  0  0  0
    8.4532    0.3482   26.0821 C   0  0  0  0  0  0  0  0  0  0  0  0
   10.4239   -1.7677   22.2230 N   0  0  0  0  0  0  0  0  0  0  0  0
    9.9468   -4.5953   20.1709 C   0  0  0  0  0  0  0  0  0  0  0  0
   10.0366   -3.0590   23.9864 N   0  0  0  0  0  0  0  0  0  0  0  0
    7.1191   -7.3636   15.7739 C   0  0  0  0  0  0  0  0  0  0  0  0
    5.9612   -8.3203   17.2732 N   0  0  0  0  0  0  0  0  0  0  0  0
    8.5296   -5.9814   17.1841 C   0  0  0  0  0  0  0  0  0  0  0  0
    9.1527   -5.2118   16.2116 C   0  0  0  0  0  0  0  0  0  0  0  0
   10.3364   -3.8368   22.9255 O   0  0  0  0  0  0  0  0  0  0  0  0
    9.6947   -4.8407   18.8534 C   0  0  0  0  0  0  0  0  0  0  0  0
    9.1596    1.7042   24.1381 C   0  0  0  0  0  0  0  0  0  0  0  0
   11.0456   -2.9774   18.2694 N   0  0  0  0  0  0  0  0  0  0  0  0
   10.4788   -3.0457   21.8593 C   0  0  0  0  0  0  0  0  0  0  0  0
    8.8693   -5.8099   18.4657 N   0  0  0  0  0  0  0  0  0  0  0  0
    8.9892   -0.7926   25.4573 C   0  0  0  0  0  0  0  0  0  0  0  0
   10.5677   -3.4462   20.5323 C   0  0  0  0  0  0  0  0  0  0  0  0
  1  8  1  0
  1 12  4  0
  1 14  4  0
  2  3  4  0
  2 18  4  0
  3 20  4  0
  3 22  4  0
  4 11  4  0
  4 21  4  0
  5  9  4  0
  5 16  4  0
  6 15  4  0
  6 16  4  0
  7 22  4  0
  7 26  4  0
  8 10  4  0
  8 25  4  0
  9 15  4  0
  9 17  1  0
 10 21  4  0
 11 25  4  0
 12 23  4  0
 13 20  4  0
 13 26  4  0
 14 19  4  0
 17 18  4  0
 17 24  4  0
 19 23  4  0
 20 24  4  0
 23 26  1  0
M  END
$$$$

 Created by Python create_sdf_string function

 26 30  0  0  0  0  0  0  0  0999 V2000
   10.0084   -1.8019   23.4945 C   0  0  0  0  0  0  0  0  0  0  0  0
   10.0005   -4.2520   16.5631 C   0  0  0  0  0  0  0  0  0  0  0  0
   10.2759   -4.0036   17.8845 C   0  0  0  0  0  0  0  0  0  0  0  0
    8.5652    1.5478   25.3778 N   0  0  0  0  0  0  0  0  0  0  0  0
    6.8048   -7.5457   17.8752 C   0  0  0  0  0  0  0  0  0  0  0  0
    6.1721   -8.2186   15.9886 N   0  0  0  0  0  0  0  0  0  0  0  0
   11.1764   -2.6600   19.5604 C   0  0  0  0  0  0  0  0  0  0  0  0
    9.5491   -0.6380   24.1912 C   0  0  0  0  0  0  0  0  0  0  0  0
    7.5337   -6.9256   16.9519 C   0  0  0  0  0  0  0  0  0  0  0  0
    9.6782    0.5671   23.5143 C   0  0  0  0  0  0  0  0  0  0  0  0
    8.4532    0.3482   26.0821 C   0  0  0  0  0  0  0  0  0  0  0  0
   10.4239   -1.7677   22.2230 N   0  0  0  0  0  0  0  0  0  0  0  0
    9.9468   -4.5953   20.1709 C   0  0  0  0  0  0  0  0  0  0  0  0
   10.0366   -3.0590   23.9864 N   0  0  0  0  0  0  0  0  0  0  0  0
    7.1191   -7.3636   15.7739 C   0  0  0  0  0  0  0  0  0  0  0  0
    5.9612   -8.3203   17.2732 N   0  0  0  0  0  0  0  0  0  0  0  0
    8.5296   -5.9814   17.1841 C   0  0  0  0  0  0  0  0  0  0  0  0
    9.1527   -5.2118   16.2116 C   0  0  0  0  0  0  0  0  0  0  0  0
   10.3364   -3.8368   22.9255 O   0  0  0  0  0  0  0  0  0  0  0  0
    9.6947   -4.8407   18.8534 C   0  0  0  0  0  0  0  0  0  0  0  0
    9.1596    1.7042   24.1381 C   0  0  0  0  0  0  0  0  0  0  0  0
   11.0456   -2.9774   18.2694 N   0  0  0  0  0  0  0  0  0  0  0  0
   10.4788   -3.0457   21.8593 C   0  0  0  0  0  0  0  0  0  0  0  0
    8.8693   -5.8099   18.4657 N   0  0  0  0  0  0  0  0  0  0  0  0
    8.9892   -0.7926   25.4573 C   0  0  0  0  0  0  0  0  0  0  0  0
   10.5677   -3.4462   20.5323 C   0  0  0  0  0  0  0  0  0  0  0  0
  1  8  1  0
  1 12  4  0
  1 14  4  0
  2  3  4  0
  2 18  4  0
  3 20  4  0
  3 22  4  0
  4 11  4  0
  4 21  4  0
  5  9  4  0
  5 16  4  0
  6 15  4  0
  6 16  4  0
  7 22  4  0
  7 26  4  0
  8 10  4  0
  8 25  4  0
  9 15  4  0
  9 17  1  0
 10 21  4  0
 11 25  4  0
 12 23  4  0
 13 20  4  0
 13 26  4  0
 14 19  4  0
 17 18  4  0
 17 24  4  0
 19 23  4  0
 20 24  4  0
 23 26  1  0
M  END
$$$$

 Created by Python create_sdf_string function

 26 30  0  0  0  0  0  0  0  0999 V2000
   10.0084   -1.8019   23.4945 C   0  0  0  0  0  0  0  0  0  0  0  0
   10.0005   -4.2520   16.5631 C   0  0  0  0  0  0  0  0  0  0  0  0
   10.2759   -4.0036   17.8845 C   0  0  0  0  0  0  0  0  0  0  0  0
    8.5652    1.5478   25.3778 N   0  0  0  0  0  0  0  0  0  0  0  0
    6.8048   -7.5457   17.8752 C   0  0  0  0  0  0  0  0  0  0  0  0
    6.1721   -8.2186   15.9886 N   0  0  0  0  0  0  0  0  0  0  0  0
   11.1764   -2.6600   19.5604 C   0  0  0  0  0  0  0  0  0  0  0  0
    9.5491   -0.6380   24.1912 C   0  0  0  0  0  0  0  0  0  0  0  0
    7.5337   -6.9256   16.9519 C   0  0  0  0  0  0  0  0  0  0  0  0
    9.6782    0.5671   23.5143 C   0  0  0  0  0  0  0  0  0  0  0  0
    8.4532    0.3482   26.0821 C   0  0  0  0  0  0  0  0  0  0  0  0
   10.4239   -1.7677   22.2230 N   0  0  0  0  0  0  0  0  0  0  0  0
    9.9468   -4.5953   20.1709 C   0  0  0  0  0  0  0  0  0  0  0  0
   10.0366   -3.0590   23.9864 N   0  0  0  0  0  0  0  0  0  0  0  0
    7.1191   -7.3636   15.7739 C   0  0  0  0  0  0  0  0  0  0  0  0
    5.9612   -8.3203   17.2732 N   0  0  0  0  0  0  0  0  0  0  0  0
    8.5296   -5.9814   17.1841 C   0  0  0  0  0  0  0  0  0  0  0  0
    9.1527   -5.2118   16.2116 C   0  0  0  0  0  0  0  0  0  0  0  0
   10.3364   -3.8368   22.9255 O   0  0  0  0  0  0  0  0  0  0  0  0
    9.6947   -4.8407   18.8534 C   0  0  0  0  0  0  0  0  0  0  0  0
    9.1596    1.7042   24.1381 C   0  0  0  0  0  0  0  0  0  0  0  0
   11.0456   -2.9774   18.2694 N   0  0  0  0  0  0  0  0  0  0  0  0
   10.4788   -3.0457   21.8593 C   0  0  0  0  0  0  0  0  0  0  0  0
    8.8693   -5.8099   18.4657 N   0  0  0  0  0  0  0  0  0  0  0  0
    8.9892   -0.7926   25.4573 C   0  0  0  0  0  0  0  0  0  0  0  0
   10.5677   -3.4462   20.5323 C   0  0  0  0  0  0  0  0  0  0  0  0
  1  8  1  0
  1 12  4  0
  1 14  4  0
  2  3  4  0
  2 18  4  0
  3 20  4  0
  3 22  4  0
  4 11  4  0
  4 21  4  0
  5  9  4  0
  5 16  4  0
  6 15  4  0
  6 16  4  0
  7 22  4  0
  7 26  4  0
  8 10  4  0
  8 25  4  0
  9 15  4  0
  9 17  1  0
 10 21  4  0
 11 25  4  0
 12 23  4  0
 13 20  4  0
 13 26  4  0
 14 19  4  0
 17 18  4  0
 17 24  4  0
 19 23  4  0
 20 24  4  0
 23 26  1  0
M  END
$$$$

 Created by Python create_sdf_string function

 26 30  0  0  0  0  0  0  0  0999 V2000
   10.0084   -1.8019   23.4945 C   0  0  0  0  0  0  0  0  0  0  0  0
   10.0005   -4.2520   16.5631 C   0  0  0  0  0  0  0  0  0  0  0  0
   10.2759   -4.0036   17.8845 C   0  0  0  0  0  0  0  0  0  0  0  0
    8.5652    1.5478   25.3778 N   0  0  0  0  0  0  0  0  0  0  0  0
    6.8048   -7.5457   17.8752 C   0  0  0  0  0  0  0  0  0  0  0  0
    6.1721   -8.2186   15.9886 N   0  0  0  0  0  0  0  0  0  0  0  0
   11.1764   -2.6600   19.5604 C   0  0  0  0  0  0  0  0  0  0  0  0
    9.5491   -0.6380   24.1912 C   0  0  0  0  0  0  0  0  0  0  0  0
    7.5337   -6.9256   16.9519 C   0  0  0  0  0  0  0  0  0  0  0  0
    9.6782    0.5671   23.5143 C   0  0  0  0  0  0  0  0  0  0  0  0
    8.4532    0.3482   26.0821 C   0  0  0  0  0  0  0  0  0  0  0  0
   10.4239   -1.7677   22.2230 N   0  0  0  0  0  0  0  0  0  0  0  0
    9.9468   -4.5953   20.1709 C   0  0  0  0  0  0  0  0  0  0  0  0
   10.0366   -3.0590   23.9864 N   0  0  0  0  0  0  0  0  0  0  0  0
    7.1191   -7.3636   15.7739 C   0  0  0  0  0  0  0  0  0  0  0  0
    5.9612   -8.3203   17.2732 N   0  0  0  0  0  0  0  0  0  0  0  0
    8.5296   -5.9814   17.1841 C   0  0  0  0  0  0  0  0  0  0  0  0
    9.1527   -5.2118   16.2116 C   0  0  0  0  0  0  0  0  0  0  0  0
   10.3364   -3.8368   22.9255 O   0  0  0  0  0  0  0  0  0  0  0  0
    9.6947   -4.8407   18.8534 C   0  0  0  0  0  0  0  0  0  0  0  0
    9.1596    1.7042   24.1381 C   0  0  0  0  0  0  0  0  0  0  0  0
   11.0456   -2.9774   18.2694 N   0  0  0  0  0  0  0  0  0  0  0  0
   10.4788   -3.0457   21.8593 C   0  0  0  0  0  0  0  0  0  0  0  0
    8.8693   -5.8099   18.4657 N   0  0  0  0  0  0  0  0  0  0  0  0
    8.9892   -0.7926   25.4573 C   0  0  0  0  0  0  0  0  0  0  0  0
   10.5677   -3.4462   20.5323 C   0  0  0  0  0  0  0  0  0  0  0  0
  1  8  1  0
  1 12  4  0
  1 14  4  0
  2  3  4  0
  2 18  4  0
  3 20  4  0
  3 22  4  0
  4 11  4  0
  4 21  4  0
  5  9  4  0
  5 16  4  0
  6 15  4  0
  6 16  4  0
  7 22  4  0
  7 26  4  0
  8 10  4  0
  8 25  4  0
  9 15  4  0
  9 17  1  0
 10 21  4  0
 11 25  4  0
 12 23  4  0
 13 20  4  0
 13 26  4  0
 14 19  4  0
 17 18  4  0
 17 24  4  0
 19 23  4  0
 20 24  4  0
 23 26  1  0
M  END
$$$$

 Created by Python create_sdf_string function

 26 30  0  0  0  0  0  0  0  0999 V2000
   10.0084   -1.8019   23.4945 C   0  0  0  0  0  0  0  0  0  0  0  0
   10.0005   -4.2520   16.5631 C   0  0  0  0  0  0  0  0  0  0  0  0
   10.2759   -4.0036   17.8845 C   0  0  0  0  0  0  0  0  0  0  0  0
    8.5652    1.5478   25.3778 N   0  0  0  0  0  0  0  0  0  0  0  0
    6.8048   -7.5457   17.8752 C   0  0  0  0  0  0  0  0  0  0  0  0
    6.1721   -8.2186   15.9886 N   0  0  0  0  0  0  0  0  0  0  0  0
   11.1764   -2.6600   19.5604 C   0  0  0  0  0  0  0  0  0  0  0  0
    9.5491   -0.6380   24.1912 C   0  0  0  0  0  0  0  0  0  0  0  0
    7.5337   -6.9256   16.9519 C   0  0  0  0  0  0  0  0  0  0  0  0
    9.6782    0.5671   23.5143 C   0  0  0  0  0  0  0  0  0  0  0  0
    8.4532    0.3482   26.0821 C   0  0  0  0  0  0  0  0  0  0  0  0
   10.4239   -1.7677   22.2230 N   0  0  0  0  0  0  0  0  0  0  0  0
    9.9468   -4.5953   20.1709 C   0  0  0  0  0  0  0  0  0  0  0  0
   10.0366   -3.0590   23.9864 N   0  0  0  0  0  0  0  0  0  0  0  0
    7.1191   -7.3636   15.7739 C   0  0  0  0  0  0  0  0  0  0  0  0
    5.9612   -8.3203   17.2732 N   0  0  0  0  0  0  0  0  0  0  0  0
    8.5296   -5.9814   17.1841 C   0  0  0  0  0  0  0  0  0  0  0  0
    9.1527   -5.2118   16.2116 C   0  0  0  0  0  0  0  0  0  0  0  0
   10.3364   -3.8368   22.9255 O   0  0  0  0  0  0  0  0  0  0  0  0
    9.6947   -4.8407   18.8534 C   0  0  0  0  0  0  0  0  0  0  0  0
    9.1596    1.7042   24.1381 C   0  0  0  0  0  0  0  0  0  0  0  0
   11.0456   -2.9774   18.2694 N   0  0  0  0  0  0  0  0  0  0  0  0
   10.4788   -3.0457   21.8593 C   0  0  0  0  0  0  0  0  0  0  0  0
    8.8693   -5.8099   18.4657 N   0  0  0  0  0  0  0  0  0  0  0  0
    8.9892   -0.7926   25.4573 C   0  0  0  0  0  0  0  0  0  0  0  0
   10.5677   -3.4462   20.5323 C   0  0  0  0  0  0  0  0  0  0  0  0
  1  8  1  0
  1 12  4  0
  1 14  4  0
  2  3  4  0
  2 18  4  0
  3 20  4  0
  3 22  4  0
  4 11  4  0
  4 21  4  0
  5  9  4  0
  5 16  4  0
  6 15  4  0
  6 16  4  0
  7 22  4  0
  7 26  4  0
  8 10  4  0
  8 25  4  0
  9 15  4  0
  9 17  1  0
 10 21  4  0
 11 25  4  0
 12 23  4  0
 13 20  4  0
 13 26  4  0
 14 19  4  0
 17 18  4  0
 17 24  4  0
 19 23  4  0
 20 24  4  0
 23 26  1  0
M  END
$$$$

 Created by Python create_sdf_string function

 26 30  0  0  0  0  0  0  0  0999 V2000
   10.0084   -1.8019   23.4945 C   0  0  0  0  0  0  0  0  0  0  0  0
   10.0005   -4.2520   16.5631 C   0  0  0  0  0  0  0  0  0  0  0  0
   10.2759   -4.0036   17.8845 C   0  0  0  0  0  0  0  0  0  0  0  0
    8.5652    1.5478   25.3778 N   0  0  0  0  0  0  0  0  0  0  0  0
    6.8048   -7.5457   17.8752 C   0  0  0  0  0  0  0  0  0  0  0  0
    6.1721   -8.2186   15.9886 N   0  0  0  0  0  0  0  0  0  0  0  0
   11.1764   -2.6600   19.5604 C   0  0  0  0  0  0  0  0  0  0  0  0
    9.5491   -0.6380   24.1912 C   0  0  0  0  0  0  0  0  0  0  0  0
    7.5337   -6.9256   16.9519 C   0  0  0  0  0  0  0  0  0  0  0  0
    9.6782    0.5671   23.5143 C   0  0  0  0  0  0  0  0  0  0  0  0
    8.4532    0.3482   26.0821 C   0  0  0  0  0  0  0  0  0  0  0  0
   10.4239   -1.7677   22.2230 N   0  0  0  0  0  0  0  0  0  0  0  0
    9.9468   -4.5953   20.1709 C   0  0  0  0  0  0  0  0  0  0  0  0
   10.0366   -3.0590   23.9864 N   0  0  0  0  0  0  0  0  0  0  0  0
    7.1191   -7.3636   15.7739 C   0  0  0  0  0  0  0  0  0  0  0  0
    5.9612   -8.3203   17.2732 N   0  0  0  0  0  0  0  0  0  0  0  0
    8.5296   -5.9814   17.1841 C   0  0  0  0  0  0  0  0  0  0  0  0
    9.1527   -5.2118   16.2116 C   0  0  0  0  0  0  0  0  0  0  0  0
   10.3364   -3.8368   22.9255 O   0  0  0  0  0  0  0  0  0  0  0  0
    9.6947   -4.8407   18.8534 C   0  0  0  0  0  0  0  0  0  0  0  0
    9.1596    1.7042   24.1381 C   0  0  0  0  0  0  0  0  0  0  0  0
   11.0456   -2.9774   18.2694 N   0  0  0  0  0  0  0  0  0  0  0  0
   10.4788   -3.0457   21.8593 C   0  0  0  0  0  0  0  0  0  0  0  0
    8.8693   -5.8099   18.4657 N   0  0  0  0  0  0  0  0  0  0  0  0
    8.9892   -0.7926   25.4573 C   0  0  0  0  0  0  0  0  0  0  0  0
   10.5677   -3.4462   20.5323 C   0  0  0  0  0  0  0  0  0  0  0  0
  1  8  1  0
  1 12  4  0
  1 14  4  0
  2  3  4  0
  2 18  4  0
  3 20  4  0
  3 22  4  0
  4 11  4  0
  4 21  4  0
  5  9  4  0
  5 16  4  0
  6 15  4  0
  6 16  4  0
  7 22  4  0
  7 26  4  0
  8 10  4  0
  8 25  4  0
  9 15  4  0
  9 17  1  0
 10 21  4  0
 11 25  4  0
 12 23  4  0
 13 20  4  0
 13 26  4  0
 14 19  4  0
 17 18  4  0
 17 24  4  0
 19 23  4  0
 20 24  4  0
 23 26  1  0
M  END
$$$$

 Created by Python create_sdf_string function

 26 30  0  0  0  0  0  0  0  0999 V2000
   10.0084   -1.8019   23.4945 C   0  0  0  0  0  0  0  0  0  0  0  0
   10.0005   -4.2520   16.5631 C   0  0  0  0  0  0  0  0  0  0  0  0
   10.2759   -4.0036   17.8845 C   0  0  0  0  0  0  0  0  0  0  0  0
    8.5652    1.5478   25.3778 N   0  0  0  0  0  0  0  0  0  0  0  0
    6.8048   -7.5457   17.8752 C   0  0  0  0  0  0  0  0  0  0  0  0
    6.1721   -8.2186   15.9886 N   0  0  0  0  0  0  0  0  0  0  0  0
   11.1764   -2.6600   19.5604 C   0  0  0  0  0  0  0  0  0  0  0  0
    9.5491   -0.6380   24.1912 C   0  0  0  0  0  0  0  0  0  0  0  0
    7.5337   -6.9256   16.9519 C   0  0  0  0  0  0  0  0  0  0  0  0
    9.6782    0.5671   23.5143 C   0  0  0  0  0  0  0  0  0  0  0  0
    8.4532    0.3482   26.0821 C   0  0  0  0  0  0  0  0  0  0  0  0
   10.4239   -1.7677   22.2230 N   0  0  0  0  0  0  0  0  0  0  0  0
    9.9468   -4.5953   20.1709 C   0  0  0  0  0  0  0  0  0  0  0  0
   10.0366   -3.0590   23.9864 N   0  0  0  0  0  0  0  0  0  0  0  0
    7.1191   -7.3636   15.7739 C   0  0  0  0  0  0  0  0  0  0  0  0
    5.9612   -8.3203   17.2732 N   0  0  0  0  0  0  0  0  0  0  0  0
    8.5296   -5.9814   17.1841 C   0  0  0  0  0  0  0  0  0  0  0  0
    9.1527   -5.2118   16.2116 C   0  0  0  0  0  0  0  0  0  0  0  0
   10.3364   -3.8368   22.9255 O   0  0  0  0  0  0  0  0  0  0  0  0
    9.6947   -4.8407   18.8534 C   0  0  0  0  0  0  0  0  0  0  0  0
    9.1596    1.7042   24.1381 C   0  0  0  0  0  0  0  0  0  0  0  0
   11.0456   -2.9774   18.2694 N   0  0  0  0  0  0  0  0  0  0  0  0
   10.4788   -3.0457   21.8593 C   0  0  0  0  0  0  0  0  0  0  0  0
    8.8693   -5.8099   18.4657 N   0  0  0  0  0  0  0  0  0  0  0  0
    8.9892   -0.7926   25.4573 C   0  0  0  0  0  0  0  0  0  0  0  0
   10.5677   -3.4462   20.5323 C   0  0  0  0  0  0  0  0  0  0  0  0
  1  8  1  0
  1 12  4  0
  1 14  4  0
  2  3  4  0
  2 18  4  0
  3 20  4  0
  3 22  4  0
  4 11  4  0
  4 21  4  0
  5  9  4  0
  5 16  4  0
  6 15  4  0
  6 16  4  0
  7 22  4  0
  7 26  4  0
  8 10  4  0
  8 25  4  0
  9 15  4  0
  9 17  1  0
 10 21  4  0
 11 25  4  0
 12 23  4  0
 13 20  4  0
 13 26  4  0
 14 19  4  0
 17 18  4  0
 17 24  4  0
 19 23  4  0
 20 24  4  0
 23 26  1  0
M  END
$$$$

 Created by Python create_sdf_string function

 26 30  0  0  0  0  0  0  0  0999 V2000
   10.0084   -1.8019   23.4945 C   0  0  0  0  0  0  0  0  0  0  0  0
   10.0005   -4.2520   16.5631 C   0  0  0  0  0  0  0  0  0  0  0  0
   10.2759   -4.0036   17.8845 C   0  0  0  0  0  0  0  0  0  0  0  0
    8.5652    1.5478   25.3778 N   0  0  0  0  0  0  0  0  0  0  0  0
    6.8048   -7.5457   17.8752 C   0  0  0  0  0  0  0  0  0  0  0  0
    6.1721   -8.2186   15.9886 N   0  0  0  0  0  0  0  0  0  0  0  0
   11.1764   -2.6600   19.5604 C   0  0  0  0  0  0  0  0  0  0  0  0
    9.5491   -0.6380   24.1912 C   0  0  0  0  0  0  0  0  0  0  0  0
    7.5337   -6.9256   16.9519 C   0  0  0  0  0  0  0  0  0  0  0  0
    9.6782    0.5671   23.5143 C   0  0  0  0  0  0  0  0  0  0  0  0
    8.4532    0.3482   26.0821 C   0  0  0  0  0  0  0  0  0  0  0  0
   10.4239   -1.7677   22.2230 N   0  0  0  0  0  0  0  0  0  0  0  0
    9.9468   -4.5953   20.1709 C   0  0  0  0  0  0  0  0  0  0  0  0
   10.0366   -3.0590   23.9864 N   0  0  0  0  0  0  0  0  0  0  0  0
    7.1191   -7.3636   15.7739 C   0  0  0  0  0  0  0  0  0  0  0  0
    5.9612   -8.3203   17.2732 N   0  0  0  0  0  0  0  0  0  0  0  0
    8.5296   -5.9814   17.1841 C   0  0  0  0  0  0  0  0  0  0  0  0
    9.1527   -5.2118   16.2116 C   0  0  0  0  0  0  0  0  0  0  0  0
   10.3364   -3.8368   22.9255 O   0  0  0  0  0  0  0  0  0  0  0  0
    9.6947   -4.8407   18.8534 C   0  0  0  0  0  0  0  0  0  0  0  0
    9.1596    1.7042   24.1381 C   0  0  0  0  0  0  0  0  0  0  0  0
   11.0456   -2.9774   18.2694 N   0  0  0  0  0  0  0  0  0  0  0  0
   10.4788   -3.0457   21.8593 C   0  0  0  0  0  0  0  0  0  0  0  0
    8.8693   -5.8099   18.4657 N   0  0  0  0  0  0  0  0  0  0  0  0
    8.9892   -0.7926   25.4573 C   0  0  0  0  0  0  0  0  0  0  0  0
   10.5677   -3.4462   20.5323 C   0  0  0  0  0  0  0  0  0  0  0  0
  1  8  1  0
  1 12  4  0
  1 14  4  0
  2  3  4  0
  2 18  4  0
  3 20  4  0
  3 22  4  0
  4 11  4  0
  4 21  4  0
  5  9  4  0
  5 16  4  0
  6 15  4  0
  6 16  4  0
  7 22  4  0
  7 26  4  0
  8 10  4  0
  8 25  4  0
  9 15  4  0
  9 17  1  0
 10 21  4  0
 11 25  4  0
 12 23  4  0
 13 20  4  0
 13 26  4  0
 14 19  4  0
 17 18  4  0
 17 24  4  0
 19 23  4  0
 20 24  4  0
 23 26  1  0
M  END
$$$$

 Created by Python create_sdf_string function

 26 30  0  0  0  0  0  0  0  0999 V2000
   10.0084   -1.8019   23.4945 C   0  0  0  0  0  0  0  0  0  0  0  0
   10.0005   -4.2520   16.5631 C   0  0  0  0  0  0  0  0  0  0  0  0
   10.2759   -4.0036   17.8845 C   0  0  0  0  0  0  0  0  0  0  0  0
    8.5652    1.5478   25.3778 N   0  0  0  0  0  0  0  0  0  0  0  0
    6.8048   -7.5457   17.8752 C   0  0  0  0  0  0  0  0  0  0  0  0
    6.1721   -8.2186   15.9886 N   0  0  0  0  0  0  0  0  0  0  0  0
   11.1764   -2.6600   19.5604 C   0  0  0  0  0  0  0  0  0  0  0  0
    9.5491   -0.6380   24.1912 C   0  0  0  0  0  0  0  0  0  0  0  0
    7.5337   -6.9256   16.9519 C   0  0  0  0  0  0  0  0  0  0  0  0
    9.6782    0.5671   23.5143 C   0  0  0  0  0  0  0  0  0  0  0  0
    8.4532    0.3482   26.0821 C   0  0  0  0  0  0  0  0  0  0  0  0
   10.4239   -1.7677   22.2230 N   0  0  0  0  0  0  0  0  0  0  0  0
    9.9468   -4.5953   20.1709 C   0  0  0  0  0  0  0  0  0  0  0  0
   10.0366   -3.0590   23.9864 N   0  0  0  0  0  0  0  0  0  0  0  0
    7.1191   -7.3636   15.7739 C   0  0  0  0  0  0  0  0  0  0  0  0
    5.9612   -8.3203   17.2732 N   0  0  0  0  0  0  0  0  0  0  0  0
    8.5296   -5.9814   17.1841 C   0  0  0  0  0  0  0  0  0  0  0  0
    9.1527   -5.2118   16.2116 C   0  0  0  0  0  0  0  0  0  0  0  0
   10.3364   -3.8368   22.9255 O   0  0  0  0  0  0  0  0  0  0  0  0
    9.6947   -4.8407   18.8534 C   0  0  0  0  0  0  0  0  0  0  0  0
    9.1596    1.7042   24.1381 C   0  0  0  0  0  0  0  0  0  0  0  0
   11.0456   -2.9774   18.2694 N   0  0  0  0  0  0  0  0  0  0  0  0
   10.4788   -3.0457   21.8593 C   0  0  0  0  0  0  0  0  0  0  0  0
    8.8693   -5.8099   18.4657 N   0  0  0  0  0  0  0  0  0  0  0  0
    8.9892   -0.7926   25.4573 C   0  0  0  0  0  0  0  0  0  0  0  0
   10.5677   -3.4462   20.5323 C   0  0  0  0  0  0  0  0  0  0  0  0
  1  8  1  0
  1 12  4  0
  1 14  4  0
  2  3  4  0
  2 18  4  0
  3 20  4  0
  3 22  4  0
  4 11  4  0
  4 21  4  0
  5  9  4  0
  5 16  4  0
  6 15  4  0
  6 16  4  0
  7 22  4  0
  7 26  4  0
  8 10  4  0
  8 25  4  0
  9 15  4  0
  9 17  1  0
 10 21  4  0
 11 25  4  0
 12 23  4  0
 13 20  4  0
 13 26  4  0
 14 19  4  0
 17 18  4  0
 17 24  4  0
 19 23  4  0
 20 24  4  0
 23 26  1  0
M  END
$$$$

 Created by Python create_sdf_string function

 26 30  0  0  0  0  0  0  0  0999 V2000
   10.0084   -1.8019   23.4945 C   0  0  0  0  0  0  0  0  0  0  0  0
   10.0005   -4.2520   16.5631 C   0  0  0  0  0  0  0  0  0  0  0  0
   10.2759   -4.0036   17.8845 C   0  0  0  0  0  0  0  0  0  0  0  0
    8.5652    1.5478   25.3778 N   0  0  0  0  0  0  0  0  0  0  0  0
    6.8048   -7.5457   17.8752 C   0  0  0  0  0  0  0  0  0  0  0  0
    6.1721   -8.2186   15.9886 N   0  0  0  0  0  0  0  0  0  0  0  0
   11.1764   -2.6600   19.5604 C   0  0  0  0  0  0  0  0  0  0  0  0
    9.5491   -0.6380   24.1912 C   0  0  0  0  0  0  0  0  0  0  0  0
    7.5337   -6.9256   16.9519 C   0  0  0  0  0  0  0  0  0  0  0  0
    9.6782    0.5671   23.5143 C   0  0  0  0  0  0  0  0  0  0  0  0
    8.4532    0.3482   26.0821 C   0  0  0  0  0  0  0  0  0  0  0  0
   10.4239   -1.7677   22.2230 N   0  0  0  0  0  0  0  0  0  0  0  0
    9.9468   -4.5953   20.1709 C   0  0  0  0  0  0  0  0  0  0  0  0
   10.0366   -3.0590   23.9864 N   0  0  0  0  0  0  0  0  0  0  0  0
    7.1191   -7.3636   15.7739 C   0  0  0  0  0  0  0  0  0  0  0  0
    5.9612   -8.3203   17.2732 N   0  0  0  0  0  0  0  0  0  0  0  0
    8.5296   -5.9814   17.1841 C   0  0  0  0  0  0  0  0  0  0  0  0
    9.1527   -5.2118   16.2116 C   0  0  0  0  0  0  0  0  0  0  0  0
   10.3364   -3.8368   22.9255 O   0  0  0  0  0  0  0  0  0  0  0  0
    9.6947   -4.8407   18.8534 C   0  0  0  0  0  0  0  0  0  0  0  0
    9.1596    1.7042   24.1381 C   0  0  0  0  0  0  0  0  0  0  0  0
   11.0456   -2.9774   18.2694 N   0  0  0  0  0  0  0  0  0  0  0  0
   10.4788   -3.0457   21.8593 C   0  0  0  0  0  0  0  0  0  0  0  0
    8.8693   -5.8099   18.4657 N   0  0  0  0  0  0  0  0  0  0  0  0
    8.9892   -0.7926   25.4573 C   0  0  0  0  0  0  0  0  0  0  0  0
   10.5677   -3.4462   20.5323 C   0  0  0  0  0  0  0  0  0  0  0  0
  1  8  1  0
  1 12  4  0
  1 14  4  0
  2  3  4  0
  2 18  4  0
  3 20  4  0
  3 22  4  0
  4 11  4  0
  4 21  4  0
  5  9  4  0
  5 16  4  0
  6 15  4  0
  6 16  4  0
  7 22  4  0
  7 26  4  0
  8 10  4  0
  8 25  4  0
  9 15  4  0
  9 17  1  0
 10 21  4  0
 11 25  4  0
 12 23  4  0
 13 20  4  0
 13 26  4  0
 14 19  4  0
 17 18  4  0
 17 24  4  0
 19 23  4  0
 20 24  4  0
 23 26  1  0
M  END
$$$$

 Created by Python create_sdf_string function

 26 30  0  0  0  0  0  0  0  0999 V2000
   10.0084   -1.8019   23.4945 C   0  0  0  0  0  0  0  0  0  0  0  0
   10.0005   -4.2520   16.5631 C   0  0  0  0  0  0  0  0  0  0  0  0
   10.2759   -4.0036   17.8845 C   0  0  0  0  0  0  0  0  0  0  0  0
    8.5652    1.5478   25.3778 N   0  0  0  0  0  0  0  0  0  0  0  0
    6.8048   -7.5457   17.8752 C   0  0  0  0  0  0  0  0  0  0  0  0
    6.1721   -8.2186   15.9886 N   0  0  0  0  0  0  0  0  0  0  0  0
   11.1764   -2.6600   19.5604 C   0  0  0  0  0  0  0  0  0  0  0  0
    9.5491   -0.6380   24.1912 C   0  0  0  0  0  0  0  0  0  0  0  0
    7.5337   -6.9256   16.9519 C   0  0  0  0  0  0  0  0  0  0  0  0
    9.6782    0.5671   23.5143 C   0  0  0  0  0  0  0  0  0  0  0  0
    8.4532    0.3482   26.0821 C   0  0  0  0  0  0  0  0  0  0  0  0
   10.4239   -1.7677   22.2230 N   0  0  0  0  0  0  0  0  0  0  0  0
    9.9468   -4.5953   20.1709 C   0  0  0  0  0  0  0  0  0  0  0  0
   10.0366   -3.0590   23.9864 N   0  0  0  0  0  0  0  0  0  0  0  0
    7.1191   -7.3636   15.7739 C   0  0  0  0  0  0  0  0  0  0  0  0
    5.9612   -8.3203   17.2732 N   0  0  0  0  0  0  0  0  0  0  0  0
    8.5296   -5.9814   17.1841 C   0  0  0  0  0  0  0  0  0  0  0  0
    9.1527   -5.2118   16.2116 C   0  0  0  0  0  0  0  0  0  0  0  0
   10.3364   -3.8368   22.9255 O   0  0  0  0  0  0  0  0  0  0  0  0
    9.6947   -4.8407   18.8534 C   0  0  0  0  0  0  0  0  0  0  0  0
    9.1596    1.7042   24.1381 C   0  0  0  0  0  0  0  0  0  0  0  0
   11.0456   -2.9774   18.2694 N   0  0  0  0  0  0  0  0  0  0  0  0
   10.4788   -3.0457   21.8593 C   0  0  0  0  0  0  0  0  0  0  0  0
    8.8693   -5.8099   18.4657 N   0  0  0  0  0  0  0  0  0  0  0  0
    8.9892   -0.7926   25.4573 C   0  0  0  0  0  0  0  0  0  0  0  0
   10.5677   -3.4462   20.5323 C   0  0  0  0  0  0  0  0  0  0  0  0
  1  8  1  0
  1 12  4  0
  1 14  4  0
  2  3  4  0
  2 18  4  0
  3 20  4  0
  3 22  4  0
  4 11  4  0
  4 21  4  0
  5  9  4  0
  5 16  4  0
  6 15  4  0
  6 16  4  0
  7 22  4  0
  7 26  4  0
  8 10  4  0
  8 25  4  0
  9 15  4  0
  9 17  1  0
 10 21  4  0
 11 25  4  0
 12 23  4  0
 13 20  4  0
 13 26  4  0
 14 19  4  0
 17 18  4  0
 17 24  4  0
 19 23  4  0
 20 24  4  0
 23 26  1  0
M  END
$$$$

 Created by Python create_sdf_string function

 26 30  0  0  0  0  0  0  0  0999 V2000
   10.0084   -1.8019   23.4945 C   0  0  0  0  0  0  0  0  0  0  0  0
   10.0005   -4.2520   16.5631 C   0  0  0  0  0  0  0  0  0  0  0  0
   10.2759   -4.0036   17.8845 C   0  0  0  0  0  0  0  0  0  0  0  0
    8.5652    1.5478   25.3778 N   0  0  0  0  0  0  0  0  0  0  0  0
    6.8048   -7.5457   17.8752 C   0  0  0  0  0  0  0  0  0  0  0  0
    6.1721   -8.2186   15.9886 N   0  0  0  0  0  0  0  0  0  0  0  0
   11.1764   -2.6600   19.5604 C   0  0  0  0  0  0  0  0  0  0  0  0
    9.5491   -0.6380   24.1912 C   0  0  0  0  0  0  0  0  0  0  0  0
    7.5337   -6.9256   16.9519 C   0  0  0  0  0  0  0  0  0  0  0  0
    9.6782    0.5671   23.5143 C   0  0  0  0  0  0  0  0  0  0  0  0
    8.4532    0.3482   26.0821 C   0  0  0  0  0  0  0  0  0  0  0  0
   10.4239   -1.7677   22.2230 N   0  0  0  0  0  0  0  0  0  0  0  0
    9.9468   -4.5953   20.1709 C   0  0  0  0  0  0  0  0  0  0  0  0
   10.0366   -3.0590   23.9864 N   0  0  0  0  0  0  0  0  0  0  0  0
    7.1191   -7.3636   15.7739 C   0  0  0  0  0  0  0  0  0  0  0  0
    5.9612   -8.3203   17.2732 N   0  0  0  0  0  0  0  0  0  0  0  0
    8.5296   -5.9814   17.1841 C   0  0  0  0  0  0  0  0  0  0  0  0
    9.1527   -5.2118   16.2116 C   0  0  0  0  0  0  0  0  0  0  0  0
   10.3364   -3.8368   22.9255 O   0  0  0  0  0  0  0  0  0  0  0  0
    9.6947   -4.8407   18.8534 C   0  0  0  0  0  0  0  0  0  0  0  0
    9.1596    1.7042   24.1381 C   0  0  0  0  0  0  0  0  0  0  0  0
   11.0456   -2.9774   18.2694 N   0  0  0  0  0  0  0  0  0  0  0  0
   10.4788   -3.0457   21.8593 C   0  0  0  0  0  0  0  0  0  0  0  0
    8.8693   -5.8099   18.4657 N   0  0  0  0  0  0  0  0  0  0  0  0
    8.9892   -0.7926   25.4573 C   0  0  0  0  0  0  0  0  0  0  0  0
   10.5677   -3.4462   20.5323 C   0  0  0  0  0  0  0  0  0  0  0  0
  1  8  1  0
  1 12  4  0
  1 14  4  0
  2  3  4  0
  2 18  4  0
  3 20  4  0
  3 22  4  0
  4 11  4  0
  4 21  4  0
  5  9  4  0
  5 16  4  0
  6 15  4  0
  6 16  4  0
  7 22  4  0
  7 26  4  0
  8 10  4  0
  8 25  4  0
  9 15  4  0
  9 17  1  0
 10 21  4  0
 11 25  4  0
 12 23  4  0
 13 20  4  0
 13 26  4  0
 14 19  4  0
 17 18  4  0
 17 24  4  0
 19 23  4  0
 20 24  4  0
 23 26  1  0
M  END
$$$$

 Created by Python create_sdf_string function

 26 30  0  0  0  0  0  0  0  0999 V2000
   10.0084   -1.8019   23.4945 C   0  0  0  0  0  0  0  0  0  0  0  0
   10.0005   -4.2520   16.5631 C   0  0  0  0  0  0  0  0  0  0  0  0
   10.2759   -4.0036   17.8845 C   0  0  0  0  0  0  0  0  0  0  0  0
    8.5652    1.5478   25.3778 N   0  0  0  0  0  0  0  0  0  0  0  0
    6.8048   -7.5457   17.8752 C   0  0  0  0  0  0  0  0  0  0  0  0
    6.1721   -8.2186   15.9886 N   0  0  0  0  0  0  0  0  0  0  0  0
   11.1764   -2.6600   19.5604 C   0  0  0  0  0  0  0  0  0  0  0  0
    9.5491   -0.6380   24.1912 C   0  0  0  0  0  0  0  0  0  0  0  0
    7.5337   -6.9256   16.9519 C   0  0  0  0  0  0  0  0  0  0  0  0
    9.6782    0.5671   23.5143 C   0  0  0  0  0  0  0  0  0  0  0  0
    8.4532    0.3482   26.0821 C   0  0  0  0  0  0  0  0  0  0  0  0
   10.4239   -1.7677   22.2230 N   0  0  0  0  0  0  0  0  0  0  0  0
    9.9468   -4.5953   20.1709 C   0  0  0  0  0  0  0  0  0  0  0  0
   10.0366   -3.0590   23.9864 N   0  0  0  0  0  0  0  0  0  0  0  0
    7.1191   -7.3636   15.7739 C   0  0  0  0  0  0  0  0  0  0  0  0
    5.9612   -8.3203   17.2732 N   0  0  0  0  0  0  0  0  0  0  0  0
    8.5296   -5.9814   17.1841 C   0  0  0  0  0  0  0  0  0  0  0  0
    9.1527   -5.2118   16.2116 C   0  0  0  0  0  0  0  0  0  0  0  0
   10.3364   -3.8368   22.9255 O   0  0  0  0  0  0  0  0  0  0  0  0
    9.6947   -4.8407   18.8534 C   0  0  0  0  0  0  0  0  0  0  0  0
    9.1596    1.7042   24.1381 C   0  0  0  0  0  0  0  0  0  0  0  0
   11.0456   -2.9774   18.2694 N   0  0  0  0  0  0  0  0  0  0  0  0
   10.4788   -3.0457   21.8593 C   0  0  0  0  0  0  0  0  0  0  0  0
    8.8693   -5.8099   18.4657 N   0  0  0  0  0  0  0  0  0  0  0  0
    8.9892   -0.7926   25.4573 C   0  0  0  0  0  0  0  0  0  0  0  0
   10.5677   -3.4462   20.5323 C   0  0  0  0  0  0  0  0  0  0  0  0
  1  8  1  0
  1 12  4  0
  1 14  4  0
  2  3  4  0
  2 18  4  0
  3 20  4  0
  3 22  4  0
  4 11  4  0
  4 21  4  0
  5  9  4  0
  5 16  4  0
  6 15  4  0
  6 16  4  0
  7 22  4  0
  7 26  4  0
  8 10  4  0
  8 25  4  0
  9 15  4  0
  9 17  1  0
 10 21  4  0
 11 25  4  0
 12 23  4  0
 13 20  4  0
 13 26  4  0
 14 19  4  0
 17 18  4  0
 17 24  4  0
 19 23  4  0
 20 24  4  0
 23 26  1  0
M  END
$$$$

 Created by Python create_sdf_string function

 26 30  0  0  0  0  0  0  0  0999 V2000
   10.0084   -1.8019   23.4945 C   0  0  0  0  0  0  0  0  0  0  0  0
   10.0005   -4.2520   16.5631 C   0  0  0  0  0  0  0  0  0  0  0  0
   10.2759   -4.0036   17.8845 C   0  0  0  0  0  0  0  0  0  0  0  0
    8.5652    1.5478   25.3778 N   0  0  0  0  0  0  0  0  0  0  0  0
    6.8048   -7.5457   17.8752 C   0  0  0  0  0  0  0  0  0  0  0  0
    6.1721   -8.2186   15.9886 N   0  0  0  0  0  0  0  0  0  0  0  0
   11.1764   -2.6600   19.5604 C   0  0  0  0  0  0  0  0  0  0  0  0
    9.5491   -0.6380   24.1912 C   0  0  0  0  0  0  0  0  0  0  0  0
    7.5337   -6.9256   16.9519 C   0  0  0  0  0  0  0  0  0  0  0  0
    9.6782    0.5671   23.5143 C   0  0  0  0  0  0  0  0  0  0  0  0
    8.4532    0.3482   26.0821 C   0  0  0  0  0  0  0  0  0  0  0  0
   10.4239   -1.7677   22.2230 N   0  0  0  0  0  0  0  0  0  0  0  0
    9.9468   -4.5953   20.1709 C   0  0  0  0  0  0  0  0  0  0  0  0
   10.0366   -3.0590   23.9864 N   0  0  0  0  0  0  0  0  0  0  0  0
    7.1191   -7.3636   15.7739 C   0  0  0  0  0  0  0  0  0  0  0  0
    5.9612   -8.3203   17.2732 N   0  0  0  0  0  0  0  0  0  0  0  0
    8.5296   -5.9814   17.1841 C   0  0  0  0  0  0  0  0  0  0  0  0
    9.1527   -5.2118   16.2116 C   0  0  0  0  0  0  0  0  0  0  0  0
   10.3364   -3.8368   22.9255 O   0  0  0  0  0  0  0  0  0  0  0  0
    9.6947   -4.8407   18.8534 C   0  0  0  0  0  0  0  0  0  0  0  0
    9.1596    1.7042   24.1381 C   0  0  0  0  0  0  0  0  0  0  0  0
   11.0456   -2.9774   18.2694 N   0  0  0  0  0  0  0  0  0  0  0  0
   10.4788   -3.0457   21.8593 C   0  0  0  0  0  0  0  0  0  0  0  0
    8.8693   -5.8099   18.4657 N   0  0  0  0  0  0  0  0  0  0  0  0
    8.9892   -0.7926   25.4573 C   0  0  0  0  0  0  0  0  0  0  0  0
   10.5677   -3.4462   20.5323 C   0  0  0  0  0  0  0  0  0  0  0  0
  1  8  1  0
  1 12  4  0
  1 14  4  0
  2  3  4  0
  2 18  4  0
  3 20  4  0
  3 22  4  0
  4 11  4  0
  4 21  4  0
  5  9  4  0
  5 16  4  0
  6 15  4  0
  6 16  4  0
  7 22  4  0
  7 26  4  0
  8 10  4  0
  8 25  4  0
  9 15  4  0
  9 17  1  0
 10 21  4  0
 11 25  4  0
 12 23  4  0
 13 20  4  0
 13 26  4  0
 14 19  4  0
 17 18  4  0
 17 24  4  0
 19 23  4  0
 20 24  4  0
 23 26  1  0
M  END
$$$$

 Created by Python create_sdf_string function

 26 30  0  0  0  0  0  0  0  0999 V2000
   10.0084   -1.8019   23.4945 C   0  0  0  0  0  0  0  0  0  0  0  0
   10.0005   -4.2520   16.5631 C   0  0  0  0  0  0  0  0  0  0  0  0
   10.2759   -4.0036   17.8845 C   0  0  0  0  0  0  0  0  0  0  0  0
    8.5652    1.5478   25.3778 N   0  0  0  0  0  0  0  0  0  0  0  0
    6.8048   -7.5457   17.8752 C   0  0  0  0  0  0  0  0  0  0  0  0
    6.1721   -8.2186   15.9886 N   0  0  0  0  0  0  0  0  0  0  0  0
   11.1764   -2.6600   19.5604 C   0  0  0  0  0  0  0  0  0  0  0  0
    9.5491   -0.6380   24.1912 C   0  0  0  0  0  0  0  0  0  0  0  0
    7.5337   -6.9256   16.9519 C   0  0  0  0  0  0  0  0  0  0  0  0
    9.6782    0.5671   23.5143 C   0  0  0  0  0  0  0  0  0  0  0  0
    8.4532    0.3482   26.0821 C   0  0  0  0  0  0  0  0  0  0  0  0
   10.4239   -1.7677   22.2230 N   0  0  0  0  0  0  0  0  0  0  0  0
    9.9468   -4.5953   20.1709 C   0  0  0  0  0  0  0  0  0  0  0  0
   10.0366   -3.0590   23.9864 N   0  0  0  0  0  0  0  0  0  0  0  0
    7.1191   -7.3636   15.7739 C   0  0  0  0  0  0  0  0  0  0  0  0
    5.9612   -8.3203   17.2732 N   0  0  0  0  0  0  0  0  0  0  0  0
    8.5296   -5.9814   17.1841 C   0  0  0  0  0  0  0  0  0  0  0  0
    9.1527   -5.2118   16.2116 C   0  0  0  0  0  0  0  0  0  0  0  0
   10.3364   -3.8368   22.9255 O   0  0  0  0  0  0  0  0  0  0  0  0
    9.6947   -4.8407   18.8534 C   0  0  0  0  0  0  0  0  0  0  0  0
    9.1596    1.7042   24.1381 C   0  0  0  0  0  0  0  0  0  0  0  0
   11.0456   -2.9774   18.2694 N   0  0  0  0  0  0  0  0  0  0  0  0
   10.4788   -3.0457   21.8593 C   0  0  0  0  0  0  0  0  0  0  0  0
    8.8693   -5.8099   18.4657 N   0  0  0  0  0  0  0  0  0  0  0  0
    8.9892   -0.7926   25.4573 C   0  0  0  0  0  0  0  0  0  0  0  0
   10.5677   -3.4462   20.5323 C   0  0  0  0  0  0  0  0  0  0  0  0
  1  8  1  0
  1 12  4  0
  1 14  4  0
  2  3  4  0
  2 18  4  0
  3 20  4  0
  3 22  4  0
  4 11  4  0
  4 21  4  0
  5  9  4  0
  5 16  4  0
  6 15  4  0
  6 16  4  0
  7 22  4  0
  7 26  4  0
  8 10  4  0
  8 25  4  0
  9 15  4  0
  9 17  1  0
 10 21  4  0
 11 25  4  0
 12 23  4  0
 13 20  4  0
 13 26  4  0
 14 19  4  0
 17 18  4  0
 17 24  4  0
 19 23  4  0
 20 24  4  0
 23 26  1  0
M  END
$$$$

 Created by Python create_sdf_string function

 26 30  0  0  0  0  0  0  0  0999 V2000
   10.0084   -1.8019   23.4945 C   0  0  0  0  0  0  0  0  0  0  0  0
   10.0005   -4.2520   16.5631 C   0  0  0  0  0  0  0  0  0  0  0  0
   10.2759   -4.0036   17.8845 C   0  0  0  0  0  0  0  0  0  0  0  0
    8.5652    1.5478   25.3778 N   0  0  0  0  0  0  0  0  0  0  0  0
    6.8048   -7.5457   17.8752 C   0  0  0  0  0  0  0  0  0  0  0  0
    6.1721   -8.2186   15.9886 N   0  0  0  0  0  0  0  0  0  0  0  0
   11.1764   -2.6600   19.5604 C   0  0  0  0  0  0  0  0  0  0  0  0
    9.5491   -0.6380   24.1912 C   0  0  0  0  0  0  0  0  0  0  0  0
    7.5337   -6.9256   16.9519 C   0  0  0  0  0  0  0  0  0  0  0  0
    9.6782    0.5671   23.5143 C   0  0  0  0  0  0  0  0  0  0  0  0
    8.4532    0.3482   26.0821 C   0  0  0  0  0  0  0  0  0  0  0  0
   10.4239   -1.7677   22.2230 N   0  0  0  0  0  0  0  0  0  0  0  0
    9.9468   -4.5953   20.1709 C   0  0  0  0  0  0  0  0  0  0  0  0
   10.0366   -3.0590   23.9864 N   0  0  0  0  0  0  0  0  0  0  0  0
    7.1191   -7.3636   15.7739 C   0  0  0  0  0  0  0  0  0  0  0  0
    5.9612   -8.3203   17.2732 N   0  0  0  0  0  0  0  0  0  0  0  0
    8.5296   -5.9814   17.1841 C   0  0  0  0  0  0  0  0  0  0  0  0
    9.1527   -5.2118   16.2116 C   0  0  0  0  0  0  0  0  0  0  0  0
   10.3364   -3.8368   22.9255 O   0  0  0  0  0  0  0  0  0  0  0  0
    9.6947   -4.8407   18.8534 C   0  0  0  0  0  0  0  0  0  0  0  0
    9.1596    1.7042   24.1381 C   0  0  0  0  0  0  0  0  0  0  0  0
   11.0456   -2.9774   18.2694 N   0  0  0  0  0  0  0  0  0  0  0  0
   10.4788   -3.0457   21.8593 C   0  0  0  0  0  0  0  0  0  0  0  0
    8.8693   -5.8099   18.4657 N   0  0  0  0  0  0  0  0  0  0  0  0
    8.9892   -0.7926   25.4573 C   0  0  0  0  0  0  0  0  0  0  0  0
   10.5677   -3.4462   20.5323 C   0  0  0  0  0  0  0  0  0  0  0  0
  1  8  1  0
  1 12  4  0
  1 14  4  0
  2  3  4  0
  2 18  4  0
  3 20  4  0
  3 22  4  0
  4 11  4  0
  4 21  4  0
  5  9  4  0
  5 16  4  0
  6 15  4  0
  6 16  4  0
  7 22  4  0
  7 26  4  0
  8 10  4  0
  8 25  4  0
  9 15  4  0
  9 17  1  0
 10 21  4  0
 11 25  4  0
 12 23  4  0
 13 20  4  0
 13 26  4  0
 14 19  4  0
 17 18  4  0
 17 24  4  0
 19 23  4  0
 20 24  4  0
 23 26  1  0
M  END
$$$$

 Created by Python create_sdf_string function

 26 30  0  0  0  0  0  0  0  0999 V2000
   10.0084   -1.8019   23.4945 C   0  0  0  0  0  0  0  0  0  0  0  0
   10.0005   -4.2520   16.5631 C   0  0  0  0  0  0  0  0  0  0  0  0
   10.2759   -4.0036   17.8845 C   0  0  0  0  0  0  0  0  0  0  0  0
    8.5652    1.5478   25.3778 N   0  0  0  0  0  0  0  0  0  0  0  0
    6.8048   -7.5457   17.8752 C   0  0  0  0  0  0  0  0  0  0  0  0
    6.1721   -8.2186   15.9886 N   0  0  0  0  0  0  0  0  0  0  0  0
   11.1764   -2.6600   19.5604 C   0  0  0  0  0  0  0  0  0  0  0  0
    9.5491   -0.6380   24.1912 C   0  0  0  0  0  0  0  0  0  0  0  0
    7.5337   -6.9256   16.9519 C   0  0  0  0  0  0  0  0  0  0  0  0
    9.6782    0.5671   23.5143 C   0  0  0  0  0  0  0  0  0  0  0  0
    8.4532    0.3482   26.0821 C   0  0  0  0  0  0  0  0  0  0  0  0
   10.4239   -1.7677   22.2230 N   0  0  0  0  0  0  0  0  0  0  0  0
    9.9468   -4.5953   20.1709 C   0  0  0  0  0  0  0  0  0  0  0  0
   10.0366   -3.0590   23.9864 N   0  0  0  0  0  0  0  0  0  0  0  0
    7.1191   -7.3636   15.7739 C   0  0  0  0  0  0  0  0  0  0  0  0
    5.9612   -8.3203   17.2732 N   0  0  0  0  0  0  0  0  0  0  0  0
    8.5296   -5.9814   17.1841 C   0  0  0  0  0  0  0  0  0  0  0  0
    9.1527   -5.2118   16.2116 C   0  0  0  0  0  0  0  0  0  0  0  0
   10.3364   -3.8368   22.9255 O   0  0  0  0  0  0  0  0  0  0  0  0
    9.6947   -4.8407   18.8534 C   0  0  0  0  0  0  0  0  0  0  0  0
    9.1596    1.7042   24.1381 C   0  0  0  0  0  0  0  0  0  0  0  0
   11.0456   -2.9774   18.2694 N   0  0  0  0  0  0  0  0  0  0  0  0
   10.4788   -3.0457   21.8593 C   0  0  0  0  0  0  0  0  0  0  0  0
    8.8693   -5.8099   18.4657 N   0  0  0  0  0  0  0  0  0  0  0  0
    8.9892   -0.7926   25.4573 C   0  0  0  0  0  0  0  0  0  0  0  0
   10.5677   -3.4462   20.5323 C   0  0  0  0  0  0  0  0  0  0  0  0
  1  8  1  0
  1 12  4  0
  1 14  4  0
  2  3  4  0
  2 18  4  0
  3 20  4  0
  3 22  4  0
  4 11  4  0
  4 21  4  0
  5  9  4  0
  5 16  4  0
  6 15  4  0
  6 16  4  0
  7 22  4  0
  7 26  4  0
  8 10  4  0
  8 25  4  0
  9 15  4  0
  9 17  1  0
 10 21  4  0
 11 25  4  0
 12 23  4  0
 13 20  4  0
 13 26  4  0
 14 19  4  0
 17 18  4  0
 17 24  4  0
 19 23  4  0
 20 24  4  0
 23 26  1  0
M  END
$$$$

 Created by Python create_sdf_string function

 26 30  0  0  0  0  0  0  0  0999 V2000
   10.0084   -1.8019   23.4945 C   0  0  0  0  0  0  0  0  0  0  0  0
   10.0005   -4.2520   16.5631 C   0  0  0  0  0  0  0  0  0  0  0  0
   10.2759   -4.0036   17.8845 C   0  0  0  0  0  0  0  0  0  0  0  0
    8.5652    1.5478   25.3778 N   0  0  0  0  0  0  0  0  0  0  0  0
    6.8048   -7.5457   17.8752 C   0  0  0  0  0  0  0  0  0  0  0  0
    6.1721   -8.2186   15.9886 N   0  0  0  0  0  0  0  0  0  0  0  0
   11.1764   -2.6600   19.5604 C   0  0  0  0  0  0  0  0  0  0  0  0
    9.5491   -0.6380   24.1912 C   0  0  0  0  0  0  0  0  0  0  0  0
    7.5337   -6.9256   16.9519 C   0  0  0  0  0  0  0  0  0  0  0  0
    9.6782    0.5671   23.5143 C   0  0  0  0  0  0  0  0  0  0  0  0
    8.4532    0.3482   26.0821 C   0  0  0  0  0  0  0  0  0  0  0  0
   10.4239   -1.7677   22.2230 N   0  0  0  0  0  0  0  0  0  0  0  0
    9.9468   -4.5953   20.1709 C   0  0  0  0  0  0  0  0  0  0  0  0
   10.0366   -3.0590   23.9864 N   0  0  0  0  0  0  0  0  0  0  0  0
    7.1191   -7.3636   15.7739 C   0  0  0  0  0  0  0  0  0  0  0  0
    5.9612   -8.3203   17.2732 N   0  0  0  0  0  0  0  0  0  0  0  0
    8.5296   -5.9814   17.1841 C   0  0  0  0  0  0  0  0  0  0  0  0
    9.1527   -5.2118   16.2116 C   0  0  0  0  0  0  0  0  0  0  0  0
   10.3364   -3.8368   22.9255 O   0  0  0  0  0  0  0  0  0  0  0  0
    9.6947   -4.8407   18.8534 C   0  0  0  0  0  0  0  0  0  0  0  0
    9.1596    1.7042   24.1381 C   0  0  0  0  0  0  0  0  0  0  0  0
   11.0456   -2.9774   18.2694 N   0  0  0  0  0  0  0  0  0  0  0  0
   10.4788   -3.0457   21.8593 C   0  0  0  0  0  0  0  0  0  0  0  0
    8.8693   -5.8099   18.4657 N   0  0  0  0  0  0  0  0  0  0  0  0
    8.9892   -0.7926   25.4573 C   0  0  0  0  0  0  0  0  0  0  0  0
   10.5677   -3.4462   20.5323 C   0  0  0  0  0  0  0  0  0  0  0  0
  1  8  1  0
  1 12  4  0
  1 14  4  0
  2  3  4  0
  2 18  4  0
  3 20  4  0
  3 22  4  0
  4 11  4  0
  4 21  4  0
  5  9  4  0
  5 16  4  0
  6 15  4  0
  6 16  4  0
  7 22  4  0
  7 26  4  0
  8 10  4  0
  8 25  4  0
  9 15  4  0
  9 17  1  0
 10 21  4  0
 11 25  4  0
 12 23  4  0
 13 20  4  0
 13 26  4  0
 14 19  4  0
 17 18  4  0
 17 24  4  0
 19 23  4  0
 20 24  4  0
 23 26  1  0
M  END
$$$$

 Created by Python create_sdf_string function

 26 30  0  0  0  0  0  0  0  0999 V2000
   10.0084   -1.8019   23.4945 C   0  0  0  0  0  0  0  0  0  0  0  0
   10.0005   -4.2520   16.5631 C   0  0  0  0  0  0  0  0  0  0  0  0
   10.2759   -4.0036   17.8845 C   0  0  0  0  0  0  0  0  0  0  0  0
    8.5652    1.5478   25.3778 N   0  0  0  0  0  0  0  0  0  0  0  0
    6.8048   -7.5457   17.8752 C   0  0  0  0  0  0  0  0  0  0  0  0
    6.1721   -8.2186   15.9886 N   0  0  0  0  0  0  0  0  0  0  0  0
   11.1764   -2.6600   19.5604 C   0  0  0  0  0  0  0  0  0  0  0  0
    9.5491   -0.6380   24.1912 C   0  0  0  0  0  0  0  0  0  0  0  0
    7.5337   -6.9256   16.9519 C   0  0  0  0  0  0  0  0  0  0  0  0
    9.6782    0.5671   23.5143 C   0  0  0  0  0  0  0  0  0  0  0  0
    8.4532    0.3482   26.0821 C   0  0  0  0  0  0  0  0  0  0  0  0
   10.4239   -1.7677   22.2230 N   0  0  0  0  0  0  0  0  0  0  0  0
    9.9468   -4.5953   20.1709 C   0  0  0  0  0  0  0  0  0  0  0  0
   10.0366   -3.0590   23.9864 N   0  0  0  0  0  0  0  0  0  0  0  0
    7.1191   -7.3636   15.7739 C   0  0  0  0  0  0  0  0  0  0  0  0
    5.9612   -8.3203   17.2732 N   0  0  0  0  0  0  0  0  0  0  0  0
    8.5296   -5.9814   17.1841 C   0  0  0  0  0  0  0  0  0  0  0  0
    9.1527   -5.2118   16.2116 C   0  0  0  0  0  0  0  0  0  0  0  0
   10.3364   -3.8368   22.9255 O   0  0  0  0  0  0  0  0  0  0  0  0
    9.6947   -4.8407   18.8534 C   0  0  0  0  0  0  0  0  0  0  0  0
    9.1596    1.7042   24.1381 C   0  0  0  0  0  0  0  0  0  0  0  0
   11.0456   -2.9774   18.2694 N   0  0  0  0  0  0  0  0  0  0  0  0
   10.4788   -3.0457   21.8593 C   0  0  0  0  0  0  0  0  0  0  0  0
    8.8693   -5.8099   18.4657 N   0  0  0  0  0  0  0  0  0  0  0  0
    8.9892   -0.7926   25.4573 C   0  0  0  0  0  0  0  0  0  0  0  0
   10.5677   -3.4462   20.5323 C   0  0  0  0  0  0  0  0  0  0  0  0
  1  8  1  0
  1 12  4  0
  1 14  4  0
  2  3  4  0
  2 18  4  0
  3 20  4  0
  3 22  4  0
  4 11  4  0
  4 21  4  0
  5  9  4  0
  5 16  4  0
  6 15  4  0
  6 16  4  0
  7 22  4  0
  7 26  4  0
  8 10  4  0
  8 25  4  0
  9 15  4  0
  9 17  1  0
 10 21  4  0
 11 25  4  0
 12 23  4  0
 13 20  4  0
 13 26  4  0
 14 19  4  0
 17 18  4  0
 17 24  4  0
 19 23  4  0
 20 24  4  0
 23 26  1  0
M  END
$$$$

 Created by Python create_sdf_string function

 26 30  0  0  0  0  0  0  0  0999 V2000
   10.0084   -1.8019   23.4945 C   0  0  0  0  0  0  0  0  0  0  0  0
   10.0005   -4.2520   16.5631 C   0  0  0  0  0  0  0  0  0  0  0  0
   10.2759   -4.0036   17.8845 C   0  0  0  0  0  0  0  0  0  0  0  0
    8.5652    1.5478   25.3778 N   0  0  0  0  0  0  0  0  0  0  0  0
    6.8048   -7.5457   17.8752 C   0  0  0  0  0  0  0  0  0  0  0  0
    6.1721   -8.2186   15.9886 N   0  0  0  0  0  0  0  0  0  0  0  0
   11.1764   -2.6600   19.5604 C   0  0  0  0  0  0  0  0  0  0  0  0
    9.5491   -0.6380   24.1912 C   0  0  0  0  0  0  0  0  0  0  0  0
    7.5337   -6.9256   16.9519 C   0  0  0  0  0  0  0  0  0  0  0  0
    9.6782    0.5671   23.5143 C   0  0  0  0  0  0  0  0  0  0  0  0
    8.4532    0.3482   26.0821 C   0  0  0  0  0  0  0  0  0  0  0  0
   10.4239   -1.7677   22.2230 N   0  0  0  0  0  0  0  0  0  0  0  0
    9.9468   -4.5953   20.1709 C   0  0  0  0  0  0  0  0  0  0  0  0
   10.0366   -3.0590   23.9864 N   0  0  0  0  0  0  0  0  0  0  0  0
    7.1191   -7.3636   15.7739 C   0  0  0  0  0  0  0  0  0  0  0  0
    5.9612   -8.3203   17.2732 N   0  0  0  0  0  0  0  0  0  0  0  0
    8.5296   -5.9814   17.1841 C   0  0  0  0  0  0  0  0  0  0  0  0
    9.1527   -5.2118   16.2116 C   0  0  0  0  0  0  0  0  0  0  0  0
   10.3364   -3.8368   22.9255 O   0  0  0  0  0  0  0  0  0  0  0  0
    9.6947   -4.8407   18.8534 C   0  0  0  0  0  0  0  0  0  0  0  0
    9.1596    1.7042   24.1381 C   0  0  0  0  0  0  0  0  0  0  0  0
   11.0456   -2.9774   18.2694 N   0  0  0  0  0  0  0  0  0  0  0  0
   10.4788   -3.0457   21.8593 C   0  0  0  0  0  0  0  0  0  0  0  0
    8.8693   -5.8099   18.4657 N   0  0  0  0  0  0  0  0  0  0  0  0
    8.9892   -0.7926   25.4573 C   0  0  0  0  0  0  0  0  0  0  0  0
   10.5677   -3.4462   20.5323 C   0  0  0  0  0  0  0  0  0  0  0  0
  1  8  1  0
  1 12  4  0
  1 14  4  0
  2  3  4  0
  2 18  4  0
  3 20  4  0
  3 22  4  0
  4 11  4  0
  4 21  4  0
  5  9  4  0
  5 16  4  0
  6 15  4  0
  6 16  4  0
  7 22  4  0
  7 26  4  0
  8 10  4  0
  8 25  4  0
  9 15  4  0
  9 17  1  0
 10 21  4  0
 11 25  4  0
 12 23  4  0
 13 20  4  0
 13 26  4  0
 14 19  4  0
 17 18  4  0
 17 24  4  0
 19 23  4  0
 20 24  4  0
 23 26  1  0
M  END
$$$$

 Created by Python create_sdf_string function

 26 30  0  0  0  0  0  0  0  0999 V2000
   10.0084   -1.8019   23.4945 C   0  0  0  0  0  0  0  0  0  0  0  0
   10.0005   -4.2520   16.5631 C   0  0  0  0  0  0  0  0  0  0  0  0
   10.2759   -4.0036   17.8845 C   0  0  0  0  0  0  0  0  0  0  0  0
    8.5652    1.5478   25.3778 N   0  0  0  0  0  0  0  0  0  0  0  0
    6.8048   -7.5457   17.8752 C   0  0  0  0  0  0  0  0  0  0  0  0
    6.1721   -8.2186   15.9886 N   0  0  0  0  0  0  0  0  0  0  0  0
   11.1764   -2.6600   19.5604 C   0  0  0  0  0  0  0  0  0  0  0  0
    9.5491   -0.6380   24.1912 C   0  0  0  0  0  0  0  0  0  0  0  0
    7.5337   -6.9256   16.9519 C   0  0  0  0  0  0  0  0  0  0  0  0
    9.6782    0.5671   23.5143 C   0  0  0  0  0  0  0  0  0  0  0  0
    8.4532    0.3482   26.0821 C   0  0  0  0  0  0  0  0  0  0  0  0
   10.4239   -1.7677   22.2230 N   0  0  0  0  0  0  0  0  0  0  0  0
    9.9468   -4.5953   20.1709 C   0  0  0  0  0  0  0  0  0  0  0  0
   10.0366   -3.0590   23.9864 N   0  0  0  0  0  0  0  0  0  0  0  0
    7.1191   -7.3636   15.7739 C   0  0  0  0  0  0  0  0  0  0  0  0
    5.9612   -8.3203   17.2732 N   0  0  0  0  0  0  0  0  0  0  0  0
    8.5296   -5.9814   17.1841 C   0  0  0  0  0  0  0  0  0  0  0  0
    9.1527   -5.2118   16.2116 C   0  0  0  0  0  0  0  0  0  0  0  0
   10.3364   -3.8368   22.9255 O   0  0  0  0  0  0  0  0  0  0  0  0
    9.6947   -4.8407   18.8534 C   0  0  0  0  0  0  0  0  0  0  0  0
    9.1596    1.7042   24.1381 C   0  0  0  0  0  0  0  0  0  0  0  0
   11.0456   -2.9774   18.2694 N   0  0  0  0  0  0  0  0  0  0  0  0
   10.4788   -3.0457   21.8593 C   0  0  0  0  0  0  0  0  0  0  0  0
    8.8693   -5.8099   18.4657 N   0  0  0  0  0  0  0  0  0  0  0  0
    8.9892   -0.7926   25.4573 C   0  0  0  0  0  0  0  0  0  0  0  0
   10.5677   -3.4462   20.5323 C   0  0  0  0  0  0  0  0  0  0  0  0
  1  8  1  0
  1 12  4  0
  1 14  4  0
  2  3  4  0
  2 18  4  0
  3 20  4  0
  3 22  4  0
  4 11  4  0
  4 21  4  0
  5  9  4  0
  5 16  4  0
  6 15  4  0
  6 16  4  0
  7 22  4  0
  7 26  4  0
  8 10  4  0
  8 25  4  0
  9 15  4  0
  9 17  1  0
 10 21  4  0
 11 25  4  0
 12 23  4  0
 13 20  4  0
 13 26  4  0
 14 19  4  0
 17 18  4  0
 17 24  4  0
 19 23  4  0
 20 24  4  0
 23 26  1  0
M  END
$$$$

 Created by Python create_sdf_string function

 26 30  0  0  0  0  0  0  0  0999 V2000
   10.0084   -1.8019   23.4945 C   0  0  0  0  0  0  0  0  0  0  0  0
   10.0005   -4.2520   16.5631 C   0  0  0  0  0  0  0  0  0  0  0  0
   10.2759   -4.0036   17.8845 C   0  0  0  0  0  0  0  0  0  0  0  0
    8.5652    1.5478   25.3778 N   0  0  0  0  0  0  0  0  0  0  0  0
    6.8048   -7.5457   17.8752 C   0  0  0  0  0  0  0  0  0  0  0  0
    6.1721   -8.2186   15.9886 N   0  0  0  0  0  0  0  0  0  0  0  0
   11.1764   -2.6600   19.5604 C   0  0  0  0  0  0  0  0  0  0  0  0
    9.5491   -0.6380   24.1912 C   0  0  0  0  0  0  0  0  0  0  0  0
    7.5337   -6.9256   16.9519 C   0  0  0  0  0  0  0  0  0  0  0  0
    9.6782    0.5671   23.5143 C   0  0  0  0  0  0  0  0  0  0  0  0
    8.4532    0.3482   26.0821 C   0  0  0  0  0  0  0  0  0  0  0  0
   10.4239   -1.7677   22.2230 N   0  0  0  0  0  0  0  0  0  0  0  0
    9.9468   -4.5953   20.1709 C   0  0  0  0  0  0  0  0  0  0  0  0
   10.0366   -3.0590   23.9864 N   0  0  0  0  0  0  0  0  0  0  0  0
    7.1191   -7.3636   15.7739 C   0  0  0  0  0  0  0  0  0  0  0  0
    5.9612   -8.3203   17.2732 N   0  0  0  0  0  0  0  0  0  0  0  0
    8.5296   -5.9814   17.1841 C   0  0  0  0  0  0  0  0  0  0  0  0
    9.1527   -5.2118   16.2116 C   0  0  0  0  0  0  0  0  0  0  0  0
   10.3364   -3.8368   22.9255 O   0  0  0  0  0  0  0  0  0  0  0  0
    9.6947   -4.8407   18.8534 C   0  0  0  0  0  0  0  0  0  0  0  0
    9.1596    1.7042   24.1381 C   0  0  0  0  0  0  0  0  0  0  0  0
   11.0456   -2.9774   18.2694 N   0  0  0  0  0  0  0  0  0  0  0  0
   10.4788   -3.0457   21.8593 C   0  0  0  0  0  0  0  0  0  0  0  0
    8.8693   -5.8099   18.4657 N   0  0  0  0  0  0  0  0  0  0  0  0
    8.9892   -0.7926   25.4573 C   0  0  0  0  0  0  0  0  0  0  0  0
   10.5677   -3.4462   20.5323 C   0  0  0  0  0  0  0  0  0  0  0  0
  1  8  1  0
  1 12  4  0
  1 14  4  0
  2  3  4  0
  2 18  4  0
  3 20  4  0
  3 22  4  0
  4 11  4  0
  4 21  4  0
  5  9  4  0
  5 16  4  0
  6 15  4  0
  6 16  4  0
  7 22  4  0
  7 26  4  0
  8 10  4  0
  8 25  4  0
  9 15  4  0
  9 17  1  0
 10 21  4  0
 11 25  4  0
 12 23  4  0
 13 20  4  0
 13 26  4  0
 14 19  4  0
 17 18  4  0
 17 24  4  0
 19 23  4  0
 20 24  4  0
 23 26  1  0
M  END
$$$$

 Created by Python create_sdf_string function

 26 30  0  0  0  0  0  0  0  0999 V2000
   10.0084   -1.8019   23.4945 C   0  0  0  0  0  0  0  0  0  0  0  0
   10.0005   -4.2520   16.5631 C   0  0  0  0  0  0  0  0  0  0  0  0
   10.2759   -4.0036   17.8845 C   0  0  0  0  0  0  0  0  0  0  0  0
    8.5652    1.5478   25.3778 N   0  0  0  0  0  0  0  0  0  0  0  0
    6.8048   -7.5457   17.8752 C   0  0  0  0  0  0  0  0  0  0  0  0
    6.1721   -8.2186   15.9886 N   0  0  0  0  0  0  0  0  0  0  0  0
   11.1764   -2.6600   19.5604 C   0  0  0  0  0  0  0  0  0  0  0  0
    9.5491   -0.6380   24.1912 C   0  0  0  0  0  0  0  0  0  0  0  0
    7.5337   -6.9256   16.9519 C   0  0  0  0  0  0  0  0  0  0  0  0
    9.6782    0.5671   23.5143 C   0  0  0  0  0  0  0  0  0  0  0  0
    8.4532    0.3482   26.0821 C   0  0  0  0  0  0  0  0  0  0  0  0
   10.4239   -1.7677   22.2230 N   0  0  0  0  0  0  0  0  0  0  0  0
    9.9468   -4.5953   20.1709 C   0  0  0  0  0  0  0  0  0  0  0  0
   10.0366   -3.0590   23.9864 N   0  0  0  0  0  0  0  0  0  0  0  0
    7.1191   -7.3636   15.7739 C   0  0  0  0  0  0  0  0  0  0  0  0
    5.9612   -8.3203   17.2732 N   0  0  0  0  0  0  0  0  0  0  0  0
    8.5296   -5.9814   17.1841 C   0  0  0  0  0  0  0  0  0  0  0  0
    9.1527   -5.2118   16.2116 C   0  0  0  0  0  0  0  0  0  0  0  0
   10.3364   -3.8368   22.9255 O   0  0  0  0  0  0  0  0  0  0  0  0
    9.6947   -4.8407   18.8534 C   0  0  0  0  0  0  0  0  0  0  0  0
    9.1596    1.7042   24.1381 C   0  0  0  0  0  0  0  0  0  0  0  0
   11.0456   -2.9774   18.2694 N   0  0  0  0  0  0  0  0  0  0  0  0
   10.4788   -3.0457   21.8593 C   0  0  0  0  0  0  0  0  0  0  0  0
    8.8693   -5.8099   18.4657 N   0  0  0  0  0  0  0  0  0  0  0  0
    8.9892   -0.7926   25.4573 C   0  0  0  0  0  0  0  0  0  0  0  0
   10.5677   -3.4462   20.5323 C   0  0  0  0  0  0  0  0  0  0  0  0
  1  8  1  0
  1 12  4  0
  1 14  4  0
  2  3  4  0
  2 18  4  0
  3 20  4  0
  3 22  4  0
  4 11  4  0
  4 21  4  0
  5  9  4  0
  5 16  4  0
  6 15  4  0
  6 16  4  0
  7 22  4  0
  7 26  4  0
  8 10  4  0
  8 25  4  0
  9 15  4  0
  9 17  1  0
 10 21  4  0
 11 25  4  0
 12 23  4  0
 13 20  4  0
 13 26  4  0
 14 19  4  0
 17 18  4  0
 17 24  4  0
 19 23  4  0
 20 24  4  0
 23 26  1  0
M  END
$$$$

 Created by Python create_sdf_string function

 26 30  0  0  0  0  0  0  0  0999 V2000
   10.0084   -1.8019   23.4945 C   0  0  0  0  0  0  0  0  0  0  0  0
   10.0005   -4.2520   16.5631 C   0  0  0  0  0  0  0  0  0  0  0  0
   10.2759   -4.0036   17.8845 C   0  0  0  0  0  0  0  0  0  0  0  0
    8.5652    1.5478   25.3778 N   0  0  0  0  0  0  0  0  0  0  0  0
    6.8048   -7.5457   17.8752 C   0  0  0  0  0  0  0  0  0  0  0  0
    6.1721   -8.2186   15.9886 N   0  0  0  0  0  0  0  0  0  0  0  0
   11.1764   -2.6600   19.5604 C   0  0  0  0  0  0  0  0  0  0  0  0
    9.5491   -0.6380   24.1912 C   0  0  0  0  0  0  0  0  0  0  0  0
    7.5337   -6.9256   16.9519 C   0  0  0  0  0  0  0  0  0  0  0  0
    9.6782    0.5671   23.5143 C   0  0  0  0  0  0  0  0  0  0  0  0
    8.4532    0.3482   26.0821 C   0  0  0  0  0  0  0  0  0  0  0  0
   10.4239   -1.7677   22.2230 N   0  0  0  0  0  0  0  0  0  0  0  0
    9.9468   -4.5953   20.1709 C   0  0  0  0  0  0  0  0  0  0  0  0
   10.0366   -3.0590   23.9864 N   0  0  0  0  0  0  0  0  0  0  0  0
    7.1191   -7.3636   15.7739 C   0  0  0  0  0  0  0  0  0  0  0  0
    5.9612   -8.3203   17.2732 N   0  0  0  0  0  0  0  0  0  0  0  0
    8.5296   -5.9814   17.1841 C   0  0  0  0  0  0  0  0  0  0  0  0
    9.1527   -5.2118   16.2116 C   0  0  0  0  0  0  0  0  0  0  0  0
   10.3364   -3.8368   22.9255 O   0  0  0  0  0  0  0  0  0  0  0  0
    9.6947   -4.8407   18.8534 C   0  0  0  0  0  0  0  0  0  0  0  0
    9.1596    1.7042   24.1381 C   0  0  0  0  0  0  0  0  0  0  0  0
   11.0456   -2.9774   18.2694 N   0  0  0  0  0  0  0  0  0  0  0  0
   10.4788   -3.0457   21.8593 C   0  0  0  0  0  0  0  0  0  0  0  0
    8.8693   -5.8099   18.4657 N   0  0  0  0  0  0  0  0  0  0  0  0
    8.9892   -0.7926   25.4573 C   0  0  0  0  0  0  0  0  0  0  0  0
   10.5677   -3.4462   20.5323 C   0  0  0  0  0  0  0  0  0  0  0  0
  1  8  1  0
  1 12  4  0
  1 14  4  0
  2  3  4  0
  2 18  4  0
  3 20  4  0
  3 22  4  0
  4 11  4  0
  4 21  4  0
  5  9  4  0
  5 16  4  0
  6 15  4  0
  6 16  4  0
  7 22  4  0
  7 26  4  0
  8 10  4  0
  8 25  4  0
  9 15  4  0
  9 17  1  0
 10 21  4  0
 11 25  4  0
 12 23  4  0
 13 20  4  0
 13 26  4  0
 14 19  4  0
 17 18  4  0
 17 24  4  0
 19 23  4  0
 20 24  4  0
 23 26  1  0
M  END
$$$$

 Created by Python create_sdf_string function

 26 30  0  0  0  0  0  0  0  0999 V2000
   10.0084   -1.8019   23.4945 C   0  0  0  0  0  0  0  0  0  0  0  0
   10.0005   -4.2520   16.5631 C   0  0  0  0  0  0  0  0  0  0  0  0
   10.2759   -4.0036   17.8845 C   0  0  0  0  0  0  0  0  0  0  0  0
    8.5652    1.5478   25.3778 N   0  0  0  0  0  0  0  0  0  0  0  0
    6.8048   -7.5457   17.8752 C   0  0  0  0  0  0  0  0  0  0  0  0
    6.1721   -8.2186   15.9886 N   0  0  0  0  0  0  0  0  0  0  0  0
   11.1764   -2.6600   19.5604 C   0  0  0  0  0  0  0  0  0  0  0  0
    9.5491   -0.6380   24.1912 C   0  0  0  0  0  0  0  0  0  0  0  0
    7.5337   -6.9256   16.9519 C   0  0  0  0  0  0  0  0  0  0  0  0
    9.6782    0.5671   23.5143 C   0  0  0  0  0  0  0  0  0  0  0  0
    8.4532    0.3482   26.0821 C   0  0  0  0  0  0  0  0  0  0  0  0
   10.4239   -1.7677   22.2230 N   0  0  0  0  0  0  0  0  0  0  0  0
    9.9468   -4.5953   20.1709 C   0  0  0  0  0  0  0  0  0  0  0  0
   10.0366   -3.0590   23.9864 N   0  0  0  0  0  0  0  0  0  0  0  0
    7.1191   -7.3636   15.7739 C   0  0  0  0  0  0  0  0  0  0  0  0
    5.9612   -8.3203   17.2732 N   0  0  0  0  0  0  0  0  0  0  0  0
    8.5296   -5.9814   17.1841 C   0  0  0  0  0  0  0  0  0  0  0  0
    9.1527   -5.2118   16.2116 C   0  0  0  0  0  0  0  0  0  0  0  0
   10.3364   -3.8368   22.9255 O   0  0  0  0  0  0  0  0  0  0  0  0
    9.6947   -4.8407   18.8534 C   0  0  0  0  0  0  0  0  0  0  0  0
    9.1596    1.7042   24.1381 C   0  0  0  0  0  0  0  0  0  0  0  0
   11.0456   -2.9774   18.2694 N   0  0  0  0  0  0  0  0  0  0  0  0
   10.4788   -3.0457   21.8593 C   0  0  0  0  0  0  0  0  0  0  0  0
    8.8693   -5.8099   18.4657 N   0  0  0  0  0  0  0  0  0  0  0  0
    8.9892   -0.7926   25.4573 C   0  0  0  0  0  0  0  0  0  0  0  0
   10.5677   -3.4462   20.5323 C   0  0  0  0  0  0  0  0  0  0  0  0
  1  8  1  0
  1 12  4  0
  1 14  4  0
  2  3  4  0
  2 18  4  0
  3 20  4  0
  3 22  4  0
  4 11  4  0
  4 21  4  0
  5  9  4  0
  5 16  4  0
  6 15  4  0
  6 16  4  0
  7 22  4  0
  7 26  4  0
  8 10  4  0
  8 25  4  0
  9 15  4  0
  9 17  1  0
 10 21  4  0
 11 25  4  0
 12 23  4  0
 13 20  4  0
 13 26  4  0
 14 19  4  0
 17 18  4  0
 17 24  4  0
 19 23  4  0
 20 24  4  0
 23 26  1  0
M  END
$$$$

 Created by Python create_sdf_string function

 26 30  0  0  0  0  0  0  0  0999 V2000
   10.0084   -1.8019   23.4945 C   0  0  0  0  0  0  0  0  0  0  0  0
   10.0005   -4.2520   16.5631 C   0  0  0  0  0  0  0  0  0  0  0  0
   10.2759   -4.0036   17.8845 C   0  0  0  0  0  0  0  0  0  0  0  0
    8.5652    1.5478   25.3778 N   0  0  0  0  0  0  0  0  0  0  0  0
    6.8048   -7.5457   17.8752 C   0  0  0  0  0  0  0  0  0  0  0  0
    6.1721   -8.2186   15.9886 N   0  0  0  0  0  0  0  0  0  0  0  0
   11.1764   -2.6600   19.5604 C   0  0  0  0  0  0  0  0  0  0  0  0
    9.5491   -0.6380   24.1912 C   0  0  0  0  0  0  0  0  0  0  0  0
    7.5337   -6.9256   16.9519 C   0  0  0  0  0  0  0  0  0  0  0  0
    9.6782    0.5671   23.5143 C   0  0  0  0  0  0  0  0  0  0  0  0
    8.4532    0.3482   26.0821 C   0  0  0  0  0  0  0  0  0  0  0  0
   10.4239   -1.7677   22.2230 N   0  0  0  0  0  0  0  0  0  0  0  0
    9.9468   -4.5953   20.1709 C   0  0  0  0  0  0  0  0  0  0  0  0
   10.0366   -3.0590   23.9864 N   0  0  0  0  0  0  0  0  0  0  0  0
    7.1191   -7.3636   15.7739 C   0  0  0  0  0  0  0  0  0  0  0  0
    5.9612   -8.3203   17.2732 N   0  0  0  0  0  0  0  0  0  0  0  0
    8.5296   -5.9814   17.1841 C   0  0  0  0  0  0  0  0  0  0  0  0
    9.1527   -5.2118   16.2116 C   0  0  0  0  0  0  0  0  0  0  0  0
   10.3364   -3.8368   22.9255 O   0  0  0  0  0  0  0  0  0  0  0  0
    9.6947   -4.8407   18.8534 C   0  0  0  0  0  0  0  0  0  0  0  0
    9.1596    1.7042   24.1381 C   0  0  0  0  0  0  0  0  0  0  0  0
   11.0456   -2.9774   18.2694 N   0  0  0  0  0  0  0  0  0  0  0  0
   10.4788   -3.0457   21.8593 C   0  0  0  0  0  0  0  0  0  0  0  0
    8.8693   -5.8099   18.4657 N   0  0  0  0  0  0  0  0  0  0  0  0
    8.9892   -0.7926   25.4573 C   0  0  0  0  0  0  0  0  0  0  0  0
   10.5677   -3.4462   20.5323 C   0  0  0  0  0  0  0  0  0  0  0  0
  1  8  1  0
  1 12  4  0
  1 14  4  0
  2  3  4  0
  2 18  4  0
  3 20  4  0
  3 22  4  0
  4 11  4  0
  4 21  4  0
  5  9  4  0
  5 16  4  0
  6 15  4  0
  6 16  4  0
  7 22  4  0
  7 26  4  0
  8 10  4  0
  8 25  4  0
  9 15  4  0
  9 17  1  0
 10 21  4  0
 11 25  4  0
 12 23  4  0
 13 20  4  0
 13 26  4  0
 14 19  4  0
 17 18  4  0
 17 24  4  0
 19 23  4  0
 20 24  4  0
 23 26  1  0
M  END
$$$$

 Created by Python create_sdf_string function

 26 30  0  0  0  0  0  0  0  0999 V2000
   10.0084   -1.8019   23.4945 C   0  0  0  0  0  0  0  0  0  0  0  0
   10.0005   -4.2520   16.5631 C   0  0  0  0  0  0  0  0  0  0  0  0
   10.2759   -4.0036   17.8845 C   0  0  0  0  0  0  0  0  0  0  0  0
    8.5652    1.5478   25.3778 N   0  0  0  0  0  0  0  0  0  0  0  0
    6.8048   -7.5457   17.8752 C   0  0  0  0  0  0  0  0  0  0  0  0
    6.1721   -8.2186   15.9886 N   0  0  0  0  0  0  0  0  0  0  0  0
   11.1764   -2.6600   19.5604 C   0  0  0  0  0  0  0  0  0  0  0  0
    9.5491   -0.6380   24.1912 C   0  0  0  0  0  0  0  0  0  0  0  0
    7.5337   -6.9256   16.9519 C   0  0  0  0  0  0  0  0  0  0  0  0
    9.6782    0.5671   23.5143 C   0  0  0  0  0  0  0  0  0  0  0  0
    8.4532    0.3482   26.0821 C   0  0  0  0  0  0  0  0  0  0  0  0
   10.4239   -1.7677   22.2230 N   0  0  0  0  0  0  0  0  0  0  0  0
    9.9468   -4.5953   20.1709 C   0  0  0  0  0  0  0  0  0  0  0  0
   10.0366   -3.0590   23.9864 N   0  0  0  0  0  0  0  0  0  0  0  0
    7.1191   -7.3636   15.7739 C   0  0  0  0  0  0  0  0  0  0  0  0
    5.9612   -8.3203   17.2732 N   0  0  0  0  0  0  0  0  0  0  0  0
    8.5296   -5.9814   17.1841 C   0  0  0  0  0  0  0  0  0  0  0  0
    9.1527   -5.2118   16.2116 C   0  0  0  0  0  0  0  0  0  0  0  0
   10.3364   -3.8368   22.9255 O   0  0  0  0  0  0  0  0  0  0  0  0
    9.6947   -4.8407   18.8534 C   0  0  0  0  0  0  0  0  0  0  0  0
    9.1596    1.7042   24.1381 C   0  0  0  0  0  0  0  0  0  0  0  0
   11.0456   -2.9774   18.2694 N   0  0  0  0  0  0  0  0  0  0  0  0
   10.4788   -3.0457   21.8593 C   0  0  0  0  0  0  0  0  0  0  0  0
    8.8693   -5.8099   18.4657 N   0  0  0  0  0  0  0  0  0  0  0  0
    8.9892   -0.7926   25.4573 C   0  0  0  0  0  0  0  0  0  0  0  0
   10.5677   -3.4462   20.5323 C   0  0  0  0  0  0  0  0  0  0  0  0
  1  8  1  0
  1 12  4  0
  1 14  4  0
  2  3  4  0
  2 18  4  0
  3 20  4  0
  3 22  4  0
  4 11  4  0
  4 21  4  0
  5  9  4  0
  5 16  4  0
  6 15  4  0
  6 16  4  0
  7 22  4  0
  7 26  4  0
  8 10  4  0
  8 25  4  0
  9 15  4  0
  9 17  1  0
 10 21  4  0
 11 25  4  0
 12 23  4  0
 13 20  4  0
 13 26  4  0
 14 19  4  0
 17 18  4  0
 17 24  4  0
 19 23  4  0
 20 24  4  0
 23 26  1  0
M  END
$$$$

 Created by Python create_sdf_string function

 26 30  0  0  0  0  0  0  0  0999 V2000
   10.0084   -1.8019   23.4945 C   0  0  0  0  0  0  0  0  0  0  0  0
   10.0005   -4.2520   16.5631 C   0  0  0  0  0  0  0  0  0  0  0  0
   10.2759   -4.0036   17.8845 C   0  0  0  0  0  0  0  0  0  0  0  0
    8.5652    1.5478   25.3778 N   0  0  0  0  0  0  0  0  0  0  0  0
    6.8048   -7.5457   17.8752 C   0  0  0  0  0  0  0  0  0  0  0  0
    6.1721   -8.2186   15.9886 N   0  0  0  0  0  0  0  0  0  0  0  0
   11.1764   -2.6600   19.5604 C   0  0  0  0  0  0  0  0  0  0  0  0
    9.5491   -0.6380   24.1912 C   0  0  0  0  0  0  0  0  0  0  0  0
    7.5337   -6.9256   16.9519 C   0  0  0  0  0  0  0  0  0  0  0  0
    9.6782    0.5671   23.5143 C   0  0  0  0  0  0  0  0  0  0  0  0
    8.4532    0.3482   26.0821 C   0  0  0  0  0  0  0  0  0  0  0  0
   10.4239   -1.7677   22.2230 N   0  0  0  0  0  0  0  0  0  0  0  0
    9.9468   -4.5953   20.1709 C   0  0  0  0  0  0  0  0  0  0  0  0
   10.0366   -3.0590   23.9864 N   0  0  0  0  0  0  0  0  0  0  0  0
    7.1191   -7.3636   15.7739 C   0  0  0  0  0  0  0  0  0  0  0  0
    5.9612   -8.3203   17.2732 N   0  0  0  0  0  0  0  0  0  0  0  0
    8.5296   -5.9814   17.1841 C   0  0  0  0  0  0  0  0  0  0  0  0
    9.1527   -5.2118   16.2116 C   0  0  0  0  0  0  0  0  0  0  0  0
   10.3364   -3.8368   22.9255 O   0  0  0  0  0  0  0  0  0  0  0  0
    9.6947   -4.8407   18.8534 C   0  0  0  0  0  0  0  0  0  0  0  0
    9.1596    1.7042   24.1381 C   0  0  0  0  0  0  0  0  0  0  0  0
   11.0456   -2.9774   18.2694 N   0  0  0  0  0  0  0  0  0  0  0  0
   10.4788   -3.0457   21.8593 C   0  0  0  0  0  0  0  0  0  0  0  0
    8.8693   -5.8099   18.4657 N   0  0  0  0  0  0  0  0  0  0  0  0
    8.9892   -0.7926   25.4573 C   0  0  0  0  0  0  0  0  0  0  0  0
   10.5677   -3.4462   20.5323 C   0  0  0  0  0  0  0  0  0  0  0  0
  1  8  1  0
  1 12  4  0
  1 14  4  0
  2  3  4  0
  2 18  4  0
  3 20  4  0
  3 22  4  0
  4 11  4  0
  4 21  4  0
  5  9  4  0
  5 16  4  0
  6 15  4  0
  6 16  4  0
  7 22  4  0
  7 26  4  0
  8 10  4  0
  8 25  4  0
  9 15  4  0
  9 17  1  0
 10 21  4  0
 11 25  4  0
 12 23  4  0
 13 20  4  0
 13 26  4  0
 14 19  4  0
 17 18  4  0
 17 24  4  0
 19 23  4  0
 20 24  4  0
 23 26  1  0
M  END
$$$$

 Created by Python create_sdf_string function

 26 30  0  0  0  0  0  0  0  0999 V2000
   10.0084   -1.8019   23.4945 C   0  0  0  0  0  0  0  0  0  0  0  0
   10.0005   -4.2520   16.5631 C   0  0  0  0  0  0  0  0  0  0  0  0
   10.2759   -4.0036   17.8845 C   0  0  0  0  0  0  0  0  0  0  0  0
    8.5652    1.5478   25.3778 N   0  0  0  0  0  0  0  0  0  0  0  0
    6.8048   -7.5457   17.8752 C   0  0  0  0  0  0  0  0  0  0  0  0
    6.1721   -8.2186   15.9886 N   0  0  0  0  0  0  0  0  0  0  0  0
   11.1764   -2.6600   19.5604 C   0  0  0  0  0  0  0  0  0  0  0  0
    9.5491   -0.6380   24.1912 C   0  0  0  0  0  0  0  0  0  0  0  0
    7.5337   -6.9256   16.9519 C   0  0  0  0  0  0  0  0  0  0  0  0
    9.6782    0.5671   23.5143 C   0  0  0  0  0  0  0  0  0  0  0  0
    8.4532    0.3482   26.0821 C   0  0  0  0  0  0  0  0  0  0  0  0
   10.4239   -1.7677   22.2230 N   0  0  0  0  0  0  0  0  0  0  0  0
    9.9468   -4.5953   20.1709 C   0  0  0  0  0  0  0  0  0  0  0  0
   10.0366   -3.0590   23.9864 N   0  0  0  0  0  0  0  0  0  0  0  0
    7.1191   -7.3636   15.7739 C   0  0  0  0  0  0  0  0  0  0  0  0
    5.9612   -8.3203   17.2732 N   0  0  0  0  0  0  0  0  0  0  0  0
    8.5296   -5.9814   17.1841 C   0  0  0  0  0  0  0  0  0  0  0  0
    9.1527   -5.2118   16.2116 C   0  0  0  0  0  0  0  0  0  0  0  0
   10.3364   -3.8368   22.9255 O   0  0  0  0  0  0  0  0  0  0  0  0
    9.6947   -4.8407   18.8534 C   0  0  0  0  0  0  0  0  0  0  0  0
    9.1596    1.7042   24.1381 C   0  0  0  0  0  0  0  0  0  0  0  0
   11.0456   -2.9774   18.2694 N   0  0  0  0  0  0  0  0  0  0  0  0
   10.4788   -3.0457   21.8593 C   0  0  0  0  0  0  0  0  0  0  0  0
    8.8693   -5.8099   18.4657 N   0  0  0  0  0  0  0  0  0  0  0  0
    8.9892   -0.7926   25.4573 C   0  0  0  0  0  0  0  0  0  0  0  0
   10.5677   -3.4462   20.5323 C   0  0  0  0  0  0  0  0  0  0  0  0
  1  8  1  0
  1 12  4  0
  1 14  4  0
  2  3  4  0
  2 18  4  0
  3 20  4  0
  3 22  4  0
  4 11  4  0
  4 21  4  0
  5  9  4  0
  5 16  4  0
  6 15  4  0
  6 16  4  0
  7 22  4  0
  7 26  4  0
  8 10  4  0
  8 25  4  0
  9 15  4  0
  9 17  1  0
 10 21  4  0
 11 25  4  0
 12 23  4  0
 13 20  4  0
 13 26  4  0
 14 19  4  0
 17 18  4  0
 17 24  4  0
 19 23  4  0
 20 24  4  0
 23 26  1  0
M  END
$$$$

 Created by Python create_sdf_string function

 26 30  0  0  0  0  0  0  0  0999 V2000
   10.0084   -1.8019   23.4945 C   0  0  0  0  0  0  0  0  0  0  0  0
   10.0005   -4.2520   16.5631 C   0  0  0  0  0  0  0  0  0  0  0  0
   10.2759   -4.0036   17.8845 C   0  0  0  0  0  0  0  0  0  0  0  0
    8.5652    1.5478   25.3778 N   0  0  0  0  0  0  0  0  0  0  0  0
    6.8048   -7.5457   17.8752 C   0  0  0  0  0  0  0  0  0  0  0  0
    6.1721   -8.2186   15.9886 N   0  0  0  0  0  0  0  0  0  0  0  0
   11.1764   -2.6600   19.5604 C   0  0  0  0  0  0  0  0  0  0  0  0
    9.5491   -0.6380   24.1912 C   0  0  0  0  0  0  0  0  0  0  0  0
    7.5337   -6.9256   16.9519 C   0  0  0  0  0  0  0  0  0  0  0  0
    9.6782    0.5671   23.5143 C   0  0  0  0  0  0  0  0  0  0  0  0
    8.4532    0.3482   26.0821 C   0  0  0  0  0  0  0  0  0  0  0  0
   10.4239   -1.7677   22.2230 N   0  0  0  0  0  0  0  0  0  0  0  0
    9.9468   -4.5953   20.1709 C   0  0  0  0  0  0  0  0  0  0  0  0
   10.0366   -3.0590   23.9864 N   0  0  0  0  0  0  0  0  0  0  0  0
    7.1191   -7.3636   15.7739 C   0  0  0  0  0  0  0  0  0  0  0  0
    5.9612   -8.3203   17.2732 N   0  0  0  0  0  0  0  0  0  0  0  0
    8.5296   -5.9814   17.1841 C   0  0  0  0  0  0  0  0  0  0  0  0
    9.1527   -5.2118   16.2116 C   0  0  0  0  0  0  0  0  0  0  0  0
   10.3364   -3.8368   22.9255 O   0  0  0  0  0  0  0  0  0  0  0  0
    9.6947   -4.8407   18.8534 C   0  0  0  0  0  0  0  0  0  0  0  0
    9.1596    1.7042   24.1381 C   0  0  0  0  0  0  0  0  0  0  0  0
   11.0456   -2.9774   18.2694 N   0  0  0  0  0  0  0  0  0  0  0  0
   10.4788   -3.0457   21.8593 C   0  0  0  0  0  0  0  0  0  0  0  0
    8.8693   -5.8099   18.4657 N   0  0  0  0  0  0  0  0  0  0  0  0
    8.9892   -0.7926   25.4573 C   0  0  0  0  0  0  0  0  0  0  0  0
   10.5677   -3.4462   20.5323 C   0  0  0  0  0  0  0  0  0  0  0  0
  1  8  1  0
  1 12  4  0
  1 14  4  0
  2  3  4  0
  2 18  4  0
  3 20  4  0
  3 22  4  0
  4 11  4  0
  4 21  4  0
  5  9  4  0
  5 16  4  0
  6 15  4  0
  6 16  4  0
  7 22  4  0
  7 26  4  0
  8 10  4  0
  8 25  4  0
  9 15  4  0
  9 17  1  0
 10 21  4  0
 11 25  4  0
 12 23  4  0
 13 20  4  0
 13 26  4  0
 14 19  4  0
 17 18  4  0
 17 24  4  0
 19 23  4  0
 20 24  4  0
 23 26  1  0
M  END
$$$$

 Created by Python create_sdf_string function

 26 30  0  0  0  0  0  0  0  0999 V2000
   10.0084   -1.8019   23.4945 C   0  0  0  0  0  0  0  0  0  0  0  0
   10.0005   -4.2520   16.5631 C   0  0  0  0  0  0  0  0  0  0  0  0
   10.2759   -4.0036   17.8845 C   0  0  0  0  0  0  0  0  0  0  0  0
    8.5652    1.5478   25.3778 N   0  0  0  0  0  0  0  0  0  0  0  0
    6.8048   -7.5457   17.8752 C   0  0  0  0  0  0  0  0  0  0  0  0
    6.1721   -8.2186   15.9886 N   0  0  0  0  0  0  0  0  0  0  0  0
   11.1764   -2.6600   19.5604 C   0  0  0  0  0  0  0  0  0  0  0  0
    9.5491   -0.6380   24.1912 C   0  0  0  0  0  0  0  0  0  0  0  0
    7.5337   -6.9256   16.9519 C   0  0  0  0  0  0  0  0  0  0  0  0
    9.6782    0.5671   23.5143 C   0  0  0  0  0  0  0  0  0  0  0  0
    8.4532    0.3482   26.0821 C   0  0  0  0  0  0  0  0  0  0  0  0
   10.4239   -1.7677   22.2230 N   0  0  0  0  0  0  0  0  0  0  0  0
    9.9468   -4.5953   20.1709 C   0  0  0  0  0  0  0  0  0  0  0  0
   10.0366   -3.0590   23.9864 N   0  0  0  0  0  0  0  0  0  0  0  0
    7.1191   -7.3636   15.7739 C   0  0  0  0  0  0  0  0  0  0  0  0
    5.9612   -8.3203   17.2732 N   0  0  0  0  0  0  0  0  0  0  0  0
    8.5296   -5.9814   17.1841 C   0  0  0  0  0  0  0  0  0  0  0  0
    9.1527   -5.2118   16.2116 C   0  0  0  0  0  0  0  0  0  0  0  0
   10.3364   -3.8368   22.9255 O   0  0  0  0  0  0  0  0  0  0  0  0
    9.6947   -4.8407   18.8534 C   0  0  0  0  0  0  0  0  0  0  0  0
    9.1596    1.7042   24.1381 C   0  0  0  0  0  0  0  0  0  0  0  0
   11.0456   -2.9774   18.2694 N   0  0  0  0  0  0  0  0  0  0  0  0
   10.4788   -3.0457   21.8593 C   0  0  0  0  0  0  0  0  0  0  0  0
    8.8693   -5.8099   18.4657 N   0  0  0  0  0  0  0  0  0  0  0  0
    8.9892   -0.7926   25.4573 C   0  0  0  0  0  0  0  0  0  0  0  0
   10.5677   -3.4462   20.5323 C   0  0  0  0  0  0  0  0  0  0  0  0
  1  8  1  0
  1 12  4  0
  1 14  4  0
  2  3  4  0
  2 18  4  0
  3 20  4  0
  3 22  4  0
  4 11  4  0
  4 21  4  0
  5  9  4  0
  5 16  4  0
  6 15  4  0
  6 16  4  0
  7 22  4  0
  7 26  4  0
  8 10  4  0
  8 25  4  0
  9 15  4  0
  9 17  1  0
 10 21  4  0
 11 25  4  0
 12 23  4  0
 13 20  4  0
 13 26  4  0
 14 19  4  0
 17 18  4  0
 17 24  4  0
 19 23  4  0
 20 24  4  0
 23 26  1  0
M  END
$$$$

 Created by Python create_sdf_string function

 26 30  0  0  0  0  0  0  0  0999 V2000
   10.0084   -1.8019   23.4945 C   0  0  0  0  0  0  0  0  0  0  0  0
   10.0005   -4.2520   16.5631 C   0  0  0  0  0  0  0  0  0  0  0  0
   10.2759   -4.0036   17.8845 C   0  0  0  0  0  0  0  0  0  0  0  0
    8.5652    1.5478   25.3778 N   0  0  0  0  0  0  0  0  0  0  0  0
    6.8048   -7.5457   17.8752 C   0  0  0  0  0  0  0  0  0  0  0  0
    6.1721   -8.2186   15.9886 N   0  0  0  0  0  0  0  0  0  0  0  0
   11.1764   -2.6600   19.5604 C   0  0  0  0  0  0  0  0  0  0  0  0
    9.5491   -0.6380   24.1912 C   0  0  0  0  0  0  0  0  0  0  0  0
    7.5337   -6.9256   16.9519 C   0  0  0  0  0  0  0  0  0  0  0  0
    9.6782    0.5671   23.5143 C   0  0  0  0  0  0  0  0  0  0  0  0
    8.4532    0.3482   26.0821 C   0  0  0  0  0  0  0  0  0  0  0  0
   10.4239   -1.7677   22.2230 N   0  0  0  0  0  0  0  0  0  0  0  0
    9.9468   -4.5953   20.1709 C   0  0  0  0  0  0  0  0  0  0  0  0
   10.0366   -3.0590   23.9864 N   0  0  0  0  0  0  0  0  0  0  0  0
    7.1191   -7.3636   15.7739 C   0  0  0  0  0  0  0  0  0  0  0  0
    5.9612   -8.3203   17.2732 N   0  0  0  0  0  0  0  0  0  0  0  0
    8.5296   -5.9814   17.1841 C   0  0  0  0  0  0  0  0  0  0  0  0
    9.1527   -5.2118   16.2116 C   0  0  0  0  0  0  0  0  0  0  0  0
   10.3364   -3.8368   22.9255 O   0  0  0  0  0  0  0  0  0  0  0  0
    9.6947   -4.8407   18.8534 C   0  0  0  0  0  0  0  0  0  0  0  0
    9.1596    1.7042   24.1381 C   0  0  0  0  0  0  0  0  0  0  0  0
   11.0456   -2.9774   18.2694 N   0  0  0  0  0  0  0  0  0  0  0  0
   10.4788   -3.0457   21.8593 C   0  0  0  0  0  0  0  0  0  0  0  0
    8.8693   -5.8099   18.4657 N   0  0  0  0  0  0  0  0  0  0  0  0
    8.9892   -0.7926   25.4573 C   0  0  0  0  0  0  0  0  0  0  0  0
   10.5677   -3.4462   20.5323 C   0  0  0  0  0  0  0  0  0  0  0  0
  1  8  1  0
  1 12  4  0
  1 14  4  0
  2  3  4  0
  2 18  4  0
  3 20  4  0
  3 22  4  0
  4 11  4  0
  4 21  4  0
  5  9  4  0
  5 16  4  0
  6 15  4  0
  6 16  4  0
  7 22  4  0
  7 26  4  0
  8 10  4  0
  8 25  4  0
  9 15  4  0
  9 17  1  0
 10 21  4  0
 11 25  4  0
 12 23  4  0
 13 20  4  0
 13 26  4  0
 14 19  4  0
 17 18  4  0
 17 24  4  0
 19 23  4  0
 20 24  4  0
 23 26  1  0
M  END
$$$$

 Created by Python create_sdf_string function

 26 30  0  0  0  0  0  0  0  0999 V2000
   10.0084   -1.8019   23.4945 C   0  0  0  0  0  0  0  0  0  0  0  0
   10.0005   -4.2520   16.5631 C   0  0  0  0  0  0  0  0  0  0  0  0
   10.2759   -4.0036   17.8845 C   0  0  0  0  0  0  0  0  0  0  0  0
    8.5652    1.5478   25.3778 N   0  0  0  0  0  0  0  0  0  0  0  0
    6.8048   -7.5457   17.8752 C   0  0  0  0  0  0  0  0  0  0  0  0
    6.1721   -8.2186   15.9886 N   0  0  0  0  0  0  0  0  0  0  0  0
   11.1764   -2.6600   19.5604 C   0  0  0  0  0  0  0  0  0  0  0  0
    9.5491   -0.6380   24.1912 C   0  0  0  0  0  0  0  0  0  0  0  0
    7.5337   -6.9256   16.9519 C   0  0  0  0  0  0  0  0  0  0  0  0
    9.6782    0.5671   23.5143 C   0  0  0  0  0  0  0  0  0  0  0  0
    8.4532    0.3482   26.0821 C   0  0  0  0  0  0  0  0  0  0  0  0
   10.4239   -1.7677   22.2230 N   0  0  0  0  0  0  0  0  0  0  0  0
    9.9468   -4.5953   20.1709 C   0  0  0  0  0  0  0  0  0  0  0  0
   10.0366   -3.0590   23.9864 N   0  0  0  0  0  0  0  0  0  0  0  0
    7.1191   -7.3636   15.7739 C   0  0  0  0  0  0  0  0  0  0  0  0
    5.9612   -8.3203   17.2732 N   0  0  0  0  0  0  0  0  0  0  0  0
    8.5296   -5.9814   17.1841 C   0  0  0  0  0  0  0  0  0  0  0  0
    9.1527   -5.2118   16.2116 C   0  0  0  0  0  0  0  0  0  0  0  0
   10.3364   -3.8368   22.9255 O   0  0  0  0  0  0  0  0  0  0  0  0
    9.6947   -4.8407   18.8534 C   0  0  0  0  0  0  0  0  0  0  0  0
    9.1596    1.7042   24.1381 C   0  0  0  0  0  0  0  0  0  0  0  0
   11.0456   -2.9774   18.2694 N   0  0  0  0  0  0  0  0  0  0  0  0
   10.4788   -3.0457   21.8593 C   0  0  0  0  0  0  0  0  0  0  0  0
    8.8693   -5.8099   18.4657 N   0  0  0  0  0  0  0  0  0  0  0  0
    8.9892   -0.7926   25.4573 C   0  0  0  0  0  0  0  0  0  0  0  0
   10.5677   -3.4462   20.5323 C   0  0  0  0  0  0  0  0  0  0  0  0
  1  8  1  0
  1 12  4  0
  1 14  4  0
  2  3  4  0
  2 18  4  0
  3 20  4  0
  3 22  4  0
  4 11  4  0
  4 21  4  0
  5  9  4  0
  5 16  4  0
  6 15  4  0
  6 16  4  0
  7 22  4  0
  7 26  4  0
  8 10  4  0
  8 25  4  0
  9 15  4  0
  9 17  1  0
 10 21  4  0
 11 25  4  0
 12 23  4  0
 13 20  4  0
 13 26  4  0
 14 19  4  0
 17 18  4  0
 17 24  4  0
 19 23  4  0
 20 24  4  0
 23 26  1  0
M  END
$$$$

 Created by Python create_sdf_string function

 26 30  0  0  0  0  0  0  0  0999 V2000
   10.0084   -1.8019   23.4945 C   0  0  0  0  0  0  0  0  0  0  0  0
   10.0005   -4.2520   16.5631 C   0  0  0  0  0  0  0  0  0  0  0  0
   10.2759   -4.0036   17.8845 C   0  0  0  0  0  0  0  0  0  0  0  0
    8.5652    1.5478   25.3778 N   0  0  0  0  0  0  0  0  0  0  0  0
    6.8048   -7.5457   17.8752 C   0  0  0  0  0  0  0  0  0  0  0  0
    6.1721   -8.2186   15.9886 N   0  0  0  0  0  0  0  0  0  0  0  0
   11.1764   -2.6600   19.5604 C   0  0  0  0  0  0  0  0  0  0  0  0
    9.5491   -0.6380   24.1912 C   0  0  0  0  0  0  0  0  0  0  0  0
    7.5337   -6.9256   16.9519 C   0  0  0  0  0  0  0  0  0  0  0  0
    9.6782    0.5671   23.5143 C   0  0  0  0  0  0  0  0  0  0  0  0
    8.4532    0.3482   26.0821 C   0  0  0  0  0  0  0  0  0  0  0  0
   10.4239   -1.7677   22.2230 N   0  0  0  0  0  0  0  0  0  0  0  0
    9.9468   -4.5953   20.1709 C   0  0  0  0  0  0  0  0  0  0  0  0
   10.0366   -3.0590   23.9864 N   0  0  0  0  0  0  0  0  0  0  0  0
    7.1191   -7.3636   15.7739 C   0  0  0  0  0  0  0  0  0  0  0  0
    5.9612   -8.3203   17.2732 N   0  0  0  0  0  0  0  0  0  0  0  0
    8.5296   -5.9814   17.1841 C   0  0  0  0  0  0  0  0  0  0  0  0
    9.1527   -5.2118   16.2116 C   0  0  0  0  0  0  0  0  0  0  0  0
   10.3364   -3.8368   22.9255 O   0  0  0  0  0  0  0  0  0  0  0  0
    9.6947   -4.8407   18.8534 C   0  0  0  0  0  0  0  0  0  0  0  0
    9.1596    1.7042   24.1381 C   0  0  0  0  0  0  0  0  0  0  0  0
   11.0456   -2.9774   18.2694 N   0  0  0  0  0  0  0  0  0  0  0  0
   10.4788   -3.0457   21.8593 C   0  0  0  0  0  0  0  0  0  0  0  0
    8.8693   -5.8099   18.4657 N   0  0  0  0  0  0  0  0  0  0  0  0
    8.9892   -0.7926   25.4573 C   0  0  0  0  0  0  0  0  0  0  0  0
   10.5677   -3.4462   20.5323 C   0  0  0  0  0  0  0  0  0  0  0  0
  1  8  1  0
  1 12  4  0
  1 14  4  0
  2  3  4  0
  2 18  4  0
  3 20  4  0
  3 22  4  0
  4 11  4  0
  4 21  4  0
  5  9  4  0
  5 16  4  0
  6 15  4  0
  6 16  4  0
  7 22  4  0
  7 26  4  0
  8 10  4  0
  8 25  4  0
  9 15  4  0
  9 17  1  0
 10 21  4  0
 11 25  4  0
 12 23  4  0
 13 20  4  0
 13 26  4  0
 14 19  4  0
 17 18  4  0
 17 24  4  0
 19 23  4  0
 20 24  4  0
 23 26  1  0
M  END
$$$$

 Created by Python create_sdf_string function

 26 30  0  0  0  0  0  0  0  0999 V2000
   10.0084   -1.8019   23.4945 C   0  0  0  0  0  0  0  0  0  0  0  0
   10.0005   -4.2520   16.5631 C   0  0  0  0  0  0  0  0  0  0  0  0
   10.2759   -4.0036   17.8845 C   0  0  0  0  0  0  0  0  0  0  0  0
    8.5652    1.5478   25.3778 N   0  0  0  0  0  0  0  0  0  0  0  0
    6.8048   -7.5457   17.8752 C   0  0  0  0  0  0  0  0  0  0  0  0
    6.1721   -8.2186   15.9886 N   0  0  0  0  0  0  0  0  0  0  0  0
   11.1764   -2.6600   19.5604 C   0  0  0  0  0  0  0  0  0  0  0  0
    9.5491   -0.6380   24.1912 C   0  0  0  0  0  0  0  0  0  0  0  0
    7.5337   -6.9256   16.9519 C   0  0  0  0  0  0  0  0  0  0  0  0
    9.6782    0.5671   23.5143 C   0  0  0  0  0  0  0  0  0  0  0  0
    8.4532    0.3482   26.0821 C   0  0  0  0  0  0  0  0  0  0  0  0
   10.4239   -1.7677   22.2230 N   0  0  0  0  0  0  0  0  0  0  0  0
    9.9468   -4.5953   20.1709 C   0  0  0  0  0  0  0  0  0  0  0  0
   10.0366   -3.0590   23.9864 N   0  0  0  0  0  0  0  0  0  0  0  0
    7.1191   -7.3636   15.7739 C   0  0  0  0  0  0  0  0  0  0  0  0
    5.9612   -8.3203   17.2732 N   0  0  0  0  0  0  0  0  0  0  0  0
    8.5296   -5.9814   17.1841 C   0  0  0  0  0  0  0  0  0  0  0  0
    9.1527   -5.2118   16.2116 C   0  0  0  0  0  0  0  0  0  0  0  0
   10.3364   -3.8368   22.9255 O   0  0  0  0  0  0  0  0  0  0  0  0
    9.6947   -4.8407   18.8534 C   0  0  0  0  0  0  0  0  0  0  0  0
    9.1596    1.7042   24.1381 C   0  0  0  0  0  0  0  0  0  0  0  0
   11.0456   -2.9774   18.2694 N   0  0  0  0  0  0  0  0  0  0  0  0
   10.4788   -3.0457   21.8593 C   0  0  0  0  0  0  0  0  0  0  0  0
    8.8693   -5.8099   18.4657 N   0  0  0  0  0  0  0  0  0  0  0  0
    8.9892   -0.7926   25.4573 C   0  0  0  0  0  0  0  0  0  0  0  0
   10.5677   -3.4462   20.5323 C   0  0  0  0  0  0  0  0  0  0  0  0
  1  8  1  0
  1 12  4  0
  1 14  4  0
  2  3  4  0
  2 18  4  0
  3 20  4  0
  3 22  4  0
  4 11  4  0
  4 21  4  0
  5  9  4  0
  5 16  4  0
  6 15  4  0
  6 16  4  0
  7 22  4  0
  7 26  4  0
  8 10  4  0
  8 25  4  0
  9 15  4  0
  9 17  1  0
 10 21  4  0
 11 25  4  0
 12 23  4  0
 13 20  4  0
 13 26  4  0
 14 19  4  0
 17 18  4  0
 17 24  4  0
 19 23  4  0
 20 24  4  0
 23 26  1  0
M  END
$$$$

 Created by Python create_sdf_string function

 26 30  0  0  0  0  0  0  0  0999 V2000
   10.0084   -1.8019   23.4945 C   0  0  0  0  0  0  0  0  0  0  0  0
   10.0005   -4.2520   16.5631 C   0  0  0  0  0  0  0  0  0  0  0  0
   10.2759   -4.0036   17.8845 C   0  0  0  0  0  0  0  0  0  0  0  0
    8.5652    1.5478   25.3778 N   0  0  0  0  0  0  0  0  0  0  0  0
    6.8048   -7.5457   17.8752 C   0  0  0  0  0  0  0  0  0  0  0  0
    6.1721   -8.2186   15.9886 N   0  0  0  0  0  0  0  0  0  0  0  0
   11.1764   -2.6600   19.5604 C   0  0  0  0  0  0  0  0  0  0  0  0
    9.5491   -0.6380   24.1912 C   0  0  0  0  0  0  0  0  0  0  0  0
    7.5337   -6.9256   16.9519 C   0  0  0  0  0  0  0  0  0  0  0  0
    9.6782    0.5671   23.5143 C   0  0  0  0  0  0  0  0  0  0  0  0
    8.4532    0.3482   26.0821 C   0  0  0  0  0  0  0  0  0  0  0  0
   10.4239   -1.7677   22.2230 N   0  0  0  0  0  0  0  0  0  0  0  0
    9.9468   -4.5953   20.1709 C   0  0  0  0  0  0  0  0  0  0  0  0
   10.0366   -3.0590   23.9864 N   0  0  0  0  0  0  0  0  0  0  0  0
    7.1191   -7.3636   15.7739 C   0  0  0  0  0  0  0  0  0  0  0  0
    5.9612   -8.3203   17.2732 N   0  0  0  0  0  0  0  0  0  0  0  0
    8.5296   -5.9814   17.1841 C   0  0  0  0  0  0  0  0  0  0  0  0
    9.1527   -5.2118   16.2116 C   0  0  0  0  0  0  0  0  0  0  0  0
   10.3364   -3.8368   22.9255 O   0  0  0  0  0  0  0  0  0  0  0  0
    9.6947   -4.8407   18.8534 C   0  0  0  0  0  0  0  0  0  0  0  0
    9.1596    1.7042   24.1381 C   0  0  0  0  0  0  0  0  0  0  0  0
   11.0456   -2.9774   18.2694 N   0  0  0  0  0  0  0  0  0  0  0  0
   10.4788   -3.0457   21.8593 C   0  0  0  0  0  0  0  0  0  0  0  0
    8.8693   -5.8099   18.4657 N   0  0  0  0  0  0  0  0  0  0  0  0
    8.9892   -0.7926   25.4573 C   0  0  0  0  0  0  0  0  0  0  0  0
   10.5677   -3.4462   20.5323 C   0  0  0  0  0  0  0  0  0  0  0  0
  1  8  1  0
  1 12  4  0
  1 14  4  0
  2  3  4  0
  2 18  4  0
  3 20  4  0
  3 22  4  0
  4 11  4  0
  4 21  4  0
  5  9  4  0
  5 16  4  0
  6 15  4  0
  6 16  4  0
  7 22  4  0
  7 26  4  0
  8 10  4  0
  8 25  4  0
  9 15  4  0
  9 17  1  0
 10 21  4  0
 11 25  4  0
 12 23  4  0
 13 20  4  0
 13 26  4  0
 14 19  4  0
 17 18  4  0
 17 24  4  0
 19 23  4  0
 20 24  4  0
 23 26  1  0
M  END
$$$$

 Created by Python create_sdf_string function

 26 30  0  0  0  0  0  0  0  0999 V2000
   10.0084   -1.8019   23.4945 C   0  0  0  0  0  0  0  0  0  0  0  0
   10.0005   -4.2520   16.5631 C   0  0  0  0  0  0  0  0  0  0  0  0
   10.2759   -4.0036   17.8845 C   0  0  0  0  0  0  0  0  0  0  0  0
    8.5652    1.5478   25.3778 N   0  0  0  0  0  0  0  0  0  0  0  0
    6.8048   -7.5457   17.8752 C   0  0  0  0  0  0  0  0  0  0  0  0
    6.1721   -8.2186   15.9886 N   0  0  0  0  0  0  0  0  0  0  0  0
   11.1764   -2.6600   19.5604 C   0  0  0  0  0  0  0  0  0  0  0  0
    9.5491   -0.6380   24.1912 C   0  0  0  0  0  0  0  0  0  0  0  0
    7.5337   -6.9256   16.9519 C   0  0  0  0  0  0  0  0  0  0  0  0
    9.6782    0.5671   23.5143 C   0  0  0  0  0  0  0  0  0  0  0  0
    8.4532    0.3482   26.0821 C   0  0  0  0  0  0  0  0  0  0  0  0
   10.4239   -1.7677   22.2230 N   0  0  0  0  0  0  0  0  0  0  0  0
    9.9468   -4.5953   20.1709 C   0  0  0  0  0  0  0  0  0  0  0  0
   10.0366   -3.0590   23.9864 N   0  0  0  0  0  0  0  0  0  0  0  0
    7.1191   -7.3636   15.7739 C   0  0  0  0  0  0  0  0  0  0  0  0
    5.9612   -8.3203   17.2732 N   0  0  0  0  0  0  0  0  0  0  0  0
    8.5296   -5.9814   17.1841 C   0  0  0  0  0  0  0  0  0  0  0  0
    9.1527   -5.2118   16.2116 C   0  0  0  0  0  0  0  0  0  0  0  0
   10.3364   -3.8368   22.9255 O   0  0  0  0  0  0  0  0  0  0  0  0
    9.6947   -4.8407   18.8534 C   0  0  0  0  0  0  0  0  0  0  0  0
    9.1596    1.7042   24.1381 C   0  0  0  0  0  0  0  0  0  0  0  0
   11.0456   -2.9774   18.2694 N   0  0  0  0  0  0  0  0  0  0  0  0
   10.4788   -3.0457   21.8593 C   0  0  0  0  0  0  0  0  0  0  0  0
    8.8693   -5.8099   18.4657 N   0  0  0  0  0  0  0  0  0  0  0  0
    8.9892   -0.7926   25.4573 C   0  0  0  0  0  0  0  0  0  0  0  0
   10.5677   -3.4462   20.5323 C   0  0  0  0  0  0  0  0  0  0  0  0
  1  8  1  0
  1 12  4  0
  1 14  4  0
  2  3  4  0
  2 18  4  0
  3 20  4  0
  3 22  4  0
  4 11  4  0
  4 21  4  0
  5  9  4  0
  5 16  4  0
  6 15  4  0
  6 16  4  0
  7 22  4  0
  7 26  4  0
  8 10  4  0
  8 25  4  0
  9 15  4  0
  9 17  1  0
 10 21  4  0
 11 25  4  0
 12 23  4  0
 13 20  4  0
 13 26  4  0
 14 19  4  0
 17 18  4  0
 17 24  4  0
 19 23  4  0
 20 24  4  0
 23 26  1  0
M  END
$$$$

 Created by Python create_sdf_string function

 26 30  0  0  0  0  0  0  0  0999 V2000
   10.0084   -1.8019   23.4945 C   0  0  0  0  0  0  0  0  0  0  0  0
   10.0005   -4.2520   16.5631 C   0  0  0  0  0  0  0  0  0  0  0  0
   10.2759   -4.0036   17.8845 C   0  0  0  0  0  0  0  0  0  0  0  0
    8.5652    1.5478   25.3778 N   0  0  0  0  0  0  0  0  0  0  0  0
    6.8048   -7.5457   17.8752 C   0  0  0  0  0  0  0  0  0  0  0  0
    6.1721   -8.2186   15.9886 N   0  0  0  0  0  0  0  0  0  0  0  0
   11.1764   -2.6600   19.5604 C   0  0  0  0  0  0  0  0  0  0  0  0
    9.5491   -0.6380   24.1912 C   0  0  0  0  0  0  0  0  0  0  0  0
    7.5337   -6.9256   16.9519 C   0  0  0  0  0  0  0  0  0  0  0  0
    9.6782    0.5671   23.5143 C   0  0  0  0  0  0  0  0  0  0  0  0
    8.4532    0.3482   26.0821 C   0  0  0  0  0  0  0  0  0  0  0  0
   10.4239   -1.7677   22.2230 N   0  0  0  0  0  0  0  0  0  0  0  0
    9.9468   -4.5953   20.1709 C   0  0  0  0  0  0  0  0  0  0  0  0
   10.0366   -3.0590   23.9864 N   0  0  0  0  0  0  0  0  0  0  0  0
    7.1191   -7.3636   15.7739 C   0  0  0  0  0  0  0  0  0  0  0  0
    5.9612   -8.3203   17.2732 N   0  0  0  0  0  0  0  0  0  0  0  0
    8.5296   -5.9814   17.1841 C   0  0  0  0  0  0  0  0  0  0  0  0
    9.1527   -5.2118   16.2116 C   0  0  0  0  0  0  0  0  0  0  0  0
   10.3364   -3.8368   22.9255 O   0  0  0  0  0  0  0  0  0  0  0  0
    9.6947   -4.8407   18.8534 C   0  0  0  0  0  0  0  0  0  0  0  0
    9.1596    1.7042   24.1381 C   0  0  0  0  0  0  0  0  0  0  0  0
   11.0456   -2.9774   18.2694 N   0  0  0  0  0  0  0  0  0  0  0  0
   10.4788   -3.0457   21.8593 C   0  0  0  0  0  0  0  0  0  0  0  0
    8.8693   -5.8099   18.4657 N   0  0  0  0  0  0  0  0  0  0  0  0
    8.9892   -0.7926   25.4573 C   0  0  0  0  0  0  0  0  0  0  0  0
   10.5677   -3.4462   20.5323 C   0  0  0  0  0  0  0  0  0  0  0  0
  1  8  1  0
  1 12  4  0
  1 14  4  0
  2  3  4  0
  2 18  4  0
  3 20  4  0
  3 22  4  0
  4 11  4  0
  4 21  4  0
  5  9  4  0
  5 16  4  0
  6 15  4  0
  6 16  4  0
  7 22  4  0
  7 26  4  0
  8 10  4  0
  8 25  4  0
  9 15  4  0
  9 17  1  0
 10 21  4  0
 11 25  4  0
 12 23  4  0
 13 20  4  0
 13 26  4  0
 14 19  4  0
 17 18  4  0
 17 24  4  0
 19 23  4  0
 20 24  4  0
 23 26  1  0
M  END
$$$$

 Created by Python create_sdf_string function

 26 30  0  0  0  0  0  0  0  0999 V2000
   10.0084   -1.8019   23.4945 C   0  0  0  0  0  0  0  0  0  0  0  0
   10.0005   -4.2520   16.5631 C   0  0  0  0  0  0  0  0  0  0  0  0
   10.2759   -4.0036   17.8845 C   0  0  0  0  0  0  0  0  0  0  0  0
    8.5652    1.5478   25.3778 N   0  0  0  0  0  0  0  0  0  0  0  0
    6.8048   -7.5457   17.8752 C   0  0  0  0  0  0  0  0  0  0  0  0
    6.1721   -8.2186   15.9886 N   0  0  0  0  0  0  0  0  0  0  0  0
   11.1764   -2.6600   19.5604 C   0  0  0  0  0  0  0  0  0  0  0  0
    9.5491   -0.6380   24.1912 C   0  0  0  0  0  0  0  0  0  0  0  0
    7.5337   -6.9256   16.9519 C   0  0  0  0  0  0  0  0  0  0  0  0
    9.6782    0.5671   23.5143 C   0  0  0  0  0  0  0  0  0  0  0  0
    8.4532    0.3482   26.0821 C   0  0  0  0  0  0  0  0  0  0  0  0
   10.4239   -1.7677   22.2230 N   0  0  0  0  0  0  0  0  0  0  0  0
    9.9468   -4.5953   20.1709 C   0  0  0  0  0  0  0  0  0  0  0  0
   10.0366   -3.0590   23.9864 N   0  0  0  0  0  0  0  0  0  0  0  0
    7.1191   -7.3636   15.7739 C   0  0  0  0  0  0  0  0  0  0  0  0
    5.9612   -8.3203   17.2732 N   0  0  0  0  0  0  0  0  0  0  0  0
    8.5296   -5.9814   17.1841 C   0  0  0  0  0  0  0  0  0  0  0  0
    9.1527   -5.2118   16.2116 C   0  0  0  0  0  0  0  0  0  0  0  0
   10.3364   -3.8368   22.9255 O   0  0  0  0  0  0  0  0  0  0  0  0
    9.6947   -4.8407   18.8534 C   0  0  0  0  0  0  0  0  0  0  0  0
    9.1596    1.7042   24.1381 C   0  0  0  0  0  0  0  0  0  0  0  0
   11.0456   -2.9774   18.2694 N   0  0  0  0  0  0  0  0  0  0  0  0
   10.4788   -3.0457   21.8593 C   0  0  0  0  0  0  0  0  0  0  0  0
    8.8693   -5.8099   18.4657 N   0  0  0  0  0  0  0  0  0  0  0  0
    8.9892   -0.7926   25.4573 C   0  0  0  0  0  0  0  0  0  0  0  0
   10.5677   -3.4462   20.5323 C   0  0  0  0  0  0  0  0  0  0  0  0
  1  8  1  0
  1 12  4  0
  1 14  4  0
  2  3  4  0
  2 18  4  0
  3 20  4  0
  3 22  4  0
  4 11  4  0
  4 21  4  0
  5  9  4  0
  5 16  4  0
  6 15  4  0
  6 16  4  0
  7 22  4  0
  7 26  4  0
  8 10  4  0
  8 25  4  0
  9 15  4  0
  9 17  1  0
 10 21  4  0
 11 25  4  0
 12 23  4  0
 13 20  4  0
 13 26  4  0
 14 19  4  0
 17 18  4  0
 17 24  4  0
 19 23  4  0
 20 24  4  0
 23 26  1  0
M  END
$$$$

 Created by Python create_sdf_string function

 26 30  0  0  0  0  0  0  0  0999 V2000
   10.0084   -1.8019   23.4945 C   0  0  0  0  0  0  0  0  0  0  0  0
   10.0005   -4.2520   16.5631 C   0  0  0  0  0  0  0  0  0  0  0  0
   10.2759   -4.0036   17.8845 C   0  0  0  0  0  0  0  0  0  0  0  0
    8.5652    1.5478   25.3778 N   0  0  0  0  0  0  0  0  0  0  0  0
    6.8048   -7.5457   17.8752 C   0  0  0  0  0  0  0  0  0  0  0  0
    6.1721   -8.2186   15.9886 N   0  0  0  0  0  0  0  0  0  0  0  0
   11.1764   -2.6600   19.5604 C   0  0  0  0  0  0  0  0  0  0  0  0
    9.5491   -0.6380   24.1912 C   0  0  0  0  0  0  0  0  0  0  0  0
    7.5337   -6.9256   16.9519 C   0  0  0  0  0  0  0  0  0  0  0  0
    9.6782    0.5671   23.5143 C   0  0  0  0  0  0  0  0  0  0  0  0
    8.4532    0.3482   26.0821 C   0  0  0  0  0  0  0  0  0  0  0  0
   10.4239   -1.7677   22.2230 N   0  0  0  0  0  0  0  0  0  0  0  0
    9.9468   -4.5953   20.1709 C   0  0  0  0  0  0  0  0  0  0  0  0
   10.0366   -3.0590   23.9864 N   0  0  0  0  0  0  0  0  0  0  0  0
    7.1191   -7.3636   15.7739 C   0  0  0  0  0  0  0  0  0  0  0  0
    5.9612   -8.3203   17.2732 N   0  0  0  0  0  0  0  0  0  0  0  0
    8.5296   -5.9814   17.1841 C   0  0  0  0  0  0  0  0  0  0  0  0
    9.1527   -5.2118   16.2116 C   0  0  0  0  0  0  0  0  0  0  0  0
   10.3364   -3.8368   22.9255 O   0  0  0  0  0  0  0  0  0  0  0  0
    9.6947   -4.8407   18.8534 C   0  0  0  0  0  0  0  0  0  0  0  0
    9.1596    1.7042   24.1381 C   0  0  0  0  0  0  0  0  0  0  0  0
   11.0456   -2.9774   18.2694 N   0  0  0  0  0  0  0  0  0  0  0  0
   10.4788   -3.0457   21.8593 C   0  0  0  0  0  0  0  0  0  0  0  0
    8.8693   -5.8099   18.4657 N   0  0  0  0  0  0  0  0  0  0  0  0
    8.9892   -0.7926   25.4573 C   0  0  0  0  0  0  0  0  0  0  0  0
   10.5677   -3.4462   20.5323 C   0  0  0  0  0  0  0  0  0  0  0  0
  1  8  1  0
  1 12  4  0
  1 14  4  0
  2  3  4  0
  2 18  4  0
  3 20  4  0
  3 22  4  0
  4 11  4  0
  4 21  4  0
  5  9  4  0
  5 16  4  0
  6 15  4  0
  6 16  4  0
  7 22  4  0
  7 26  4  0
  8 10  4  0
  8 25  4  0
  9 15  4  0
  9 17  1  0
 10 21  4  0
 11 25  4  0
 12 23  4  0
 13 20  4  0
 13 26  4  0
 14 19  4  0
 17 18  4  0
 17 24  4  0
 19 23  4  0
 20 24  4  0
 23 26  1  0
M  END
$$$$

 Created by Python create_sdf_string function

 26 30  0  0  0  0  0  0  0  0999 V2000
   10.0084   -1.8019   23.4945 C   0  0  0  0  0  0  0  0  0  0  0  0
   10.0005   -4.2520   16.5631 C   0  0  0  0  0  0  0  0  0  0  0  0
   10.2759   -4.0036   17.8845 C   0  0  0  0  0  0  0  0  0  0  0  0
    8.5652    1.5478   25.3778 N   0  0  0  0  0  0  0  0  0  0  0  0
    6.8048   -7.5457   17.8752 C   0  0  0  0  0  0  0  0  0  0  0  0
    6.1721   -8.2186   15.9886 N   0  0  0  0  0  0  0  0  0  0  0  0
   11.1764   -2.6600   19.5604 C   0  0  0  0  0  0  0  0  0  0  0  0
    9.5491   -0.6380   24.1912 C   0  0  0  0  0  0  0  0  0  0  0  0
    7.5337   -6.9256   16.9519 C   0  0  0  0  0  0  0  0  0  0  0  0
    9.6782    0.5671   23.5143 C   0  0  0  0  0  0  0  0  0  0  0  0
    8.4532    0.3482   26.0821 C   0  0  0  0  0  0  0  0  0  0  0  0
   10.4239   -1.7677   22.2230 N   0  0  0  0  0  0  0  0  0  0  0  0
    9.9468   -4.5953   20.1709 C   0  0  0  0  0  0  0  0  0  0  0  0
   10.0366   -3.0590   23.9864 N   0  0  0  0  0  0  0  0  0  0  0  0
    7.1191   -7.3636   15.7739 C   0  0  0  0  0  0  0  0  0  0  0  0
    5.9612   -8.3203   17.2732 N   0  0  0  0  0  0  0  0  0  0  0  0
    8.5296   -5.9814   17.1841 C   0  0  0  0  0  0  0  0  0  0  0  0
    9.1527   -5.2118   16.2116 C   0  0  0  0  0  0  0  0  0  0  0  0
   10.3364   -3.8368   22.9255 O   0  0  0  0  0  0  0  0  0  0  0  0
    9.6947   -4.8407   18.8534 C   0  0  0  0  0  0  0  0  0  0  0  0
    9.1596    1.7042   24.1381 C   0  0  0  0  0  0  0  0  0  0  0  0
   11.0456   -2.9774   18.2694 N   0  0  0  0  0  0  0  0  0  0  0  0
   10.4788   -3.0457   21.8593 C   0  0  0  0  0  0  0  0  0  0  0  0
    8.8693   -5.8099   18.4657 N   0  0  0  0  0  0  0  0  0  0  0  0
    8.9892   -0.7926   25.4573 C   0  0  0  0  0  0  0  0  0  0  0  0
   10.5677   -3.4462   20.5323 C   0  0  0  0  0  0  0  0  0  0  0  0
  1  8  1  0
  1 12  4  0
  1 14  4  0
  2  3  4  0
  2 18  4  0
  3 20  4  0
  3 22  4  0
  4 11  4  0
  4 21  4  0
  5  9  4  0
  5 16  4  0
  6 15  4  0
  6 16  4  0
  7 22  4  0
  7 26  4  0
  8 10  4  0
  8 25  4  0
  9 15  4  0
  9 17  1  0
 10 21  4  0
 11 25  4  0
 12 23  4  0
 13 20  4  0
 13 26  4  0
 14 19  4  0
 17 18  4  0
 17 24  4  0
 19 23  4  0
 20 24  4  0
 23 26  1  0
M  END
$$$$

 Created by Python create_sdf_string function

 26 30  0  0  0  0  0  0  0  0999 V2000
   10.0084   -1.8019   23.4945 C   0  0  0  0  0  0  0  0  0  0  0  0
   10.0005   -4.2520   16.5631 C   0  0  0  0  0  0  0  0  0  0  0  0
   10.2759   -4.0036   17.8845 C   0  0  0  0  0  0  0  0  0  0  0  0
    8.5652    1.5478   25.3778 N   0  0  0  0  0  0  0  0  0  0  0  0
    6.8048   -7.5457   17.8752 C   0  0  0  0  0  0  0  0  0  0  0  0
    6.1721   -8.2186   15.9886 N   0  0  0  0  0  0  0  0  0  0  0  0
   11.1764   -2.6600   19.5604 C   0  0  0  0  0  0  0  0  0  0  0  0
    9.5491   -0.6380   24.1912 C   0  0  0  0  0  0  0  0  0  0  0  0
    7.5337   -6.9256   16.9519 C   0  0  0  0  0  0  0  0  0  0  0  0
    9.6782    0.5671   23.5143 C   0  0  0  0  0  0  0  0  0  0  0  0
    8.4532    0.3482   26.0821 C   0  0  0  0  0  0  0  0  0  0  0  0
   10.4239   -1.7677   22.2230 N   0  0  0  0  0  0  0  0  0  0  0  0
    9.9468   -4.5953   20.1709 C   0  0  0  0  0  0  0  0  0  0  0  0
   10.0366   -3.0590   23.9864 N   0  0  0  0  0  0  0  0  0  0  0  0
    7.1191   -7.3636   15.7739 C   0  0  0  0  0  0  0  0  0  0  0  0
    5.9612   -8.3203   17.2732 N   0  0  0  0  0  0  0  0  0  0  0  0
    8.5296   -5.9814   17.1841 C   0  0  0  0  0  0  0  0  0  0  0  0
    9.1527   -5.2118   16.2116 C   0  0  0  0  0  0  0  0  0  0  0  0
   10.3364   -3.8368   22.9255 O   0  0  0  0  0  0  0  0  0  0  0  0
    9.6947   -4.8407   18.8534 C   0  0  0  0  0  0  0  0  0  0  0  0
    9.1596    1.7042   24.1381 C   0  0  0  0  0  0  0  0  0  0  0  0
   11.0456   -2.9774   18.2694 N   0  0  0  0  0  0  0  0  0  0  0  0
   10.4788   -3.0457   21.8593 C   0  0  0  0  0  0  0  0  0  0  0  0
    8.8693   -5.8099   18.4657 N   0  0  0  0  0  0  0  0  0  0  0  0
    8.9892   -0.7926   25.4573 C   0  0  0  0  0  0  0  0  0  0  0  0
   10.5677   -3.4462   20.5323 C   0  0  0  0  0  0  0  0  0  0  0  0
  1  8  1  0
  1 12  4  0
  1 14  4  0
  2  3  4  0
  2 18  4  0
  3 20  4  0
  3 22  4  0
  4 11  4  0
  4 21  4  0
  5  9  4  0
  5 16  4  0
  6 15  4  0
  6 16  4  0
  7 22  4  0
  7 26  4  0
  8 10  4  0
  8 25  4  0
  9 15  4  0
  9 17  1  0
 10 21  4  0
 11 25  4  0
 12 23  4  0
 13 20  4  0
 13 26  4  0
 14 19  4  0
 17 18  4  0
 17 24  4  0
 19 23  4  0
 20 24  4  0
 23 26  1  0
M  END
$$$$

 Created by Python create_sdf_string function

 26 30  0  0  0  0  0  0  0  0999 V2000
   10.0084   -1.8019   23.4945 C   0  0  0  0  0  0  0  0  0  0  0  0
   10.0005   -4.2520   16.5631 C   0  0  0  0  0  0  0  0  0  0  0  0
   10.2759   -4.0036   17.8845 C   0  0  0  0  0  0  0  0  0  0  0  0
    8.5652    1.5478   25.3778 N   0  0  0  0  0  0  0  0  0  0  0  0
    6.8048   -7.5457   17.8752 C   0  0  0  0  0  0  0  0  0  0  0  0
    6.1721   -8.2186   15.9886 N   0  0  0  0  0  0  0  0  0  0  0  0
   11.1764   -2.6600   19.5604 C   0  0  0  0  0  0  0  0  0  0  0  0
    9.5491   -0.6380   24.1912 C   0  0  0  0  0  0  0  0  0  0  0  0
    7.5337   -6.9256   16.9519 C   0  0  0  0  0  0  0  0  0  0  0  0
    9.6782    0.5671   23.5143 C   0  0  0  0  0  0  0  0  0  0  0  0
    8.4532    0.3482   26.0821 C   0  0  0  0  0  0  0  0  0  0  0  0
   10.4239   -1.7677   22.2230 N   0  0  0  0  0  0  0  0  0  0  0  0
    9.9468   -4.5953   20.1709 C   0  0  0  0  0  0  0  0  0  0  0  0
   10.0366   -3.0590   23.9864 N   0  0  0  0  0  0  0  0  0  0  0  0
    7.1191   -7.3636   15.7739 C   0  0  0  0  0  0  0  0  0  0  0  0
    5.9612   -8.3203   17.2732 N   0  0  0  0  0  0  0  0  0  0  0  0
    8.5296   -5.9814   17.1841 C   0  0  0  0  0  0  0  0  0  0  0  0
    9.1527   -5.2118   16.2116 C   0  0  0  0  0  0  0  0  0  0  0  0
   10.3364   -3.8368   22.9255 O   0  0  0  0  0  0  0  0  0  0  0  0
    9.6947   -4.8407   18.8534 C   0  0  0  0  0  0  0  0  0  0  0  0
    9.1596    1.7042   24.1381 C   0  0  0  0  0  0  0  0  0  0  0  0
   11.0456   -2.9774   18.2694 N   0  0  0  0  0  0  0  0  0  0  0  0
   10.4788   -3.0457   21.8593 C   0  0  0  0  0  0  0  0  0  0  0  0
    8.8693   -5.8099   18.4657 N   0  0  0  0  0  0  0  0  0  0  0  0
    8.9892   -0.7926   25.4573 C   0  0  0  0  0  0  0  0  0  0  0  0
   10.5677   -3.4462   20.5323 C   0  0  0  0  0  0  0  0  0  0  0  0
  1  8  1  0
  1 12  4  0
  1 14  4  0
  2  3  4  0
  2 18  4  0
  3 20  4  0
  3 22  4  0
  4 11  4  0
  4 21  4  0
  5  9  4  0
  5 16  4  0
  6 15  4  0
  6 16  4  0
  7 22  4  0
  7 26  4  0
  8 10  4  0
  8 25  4  0
  9 15  4  0
  9 17  1  0
 10 21  4  0
 11 25  4  0
 12 23  4  0
 13 20  4  0
 13 26  4  0
 14 19  4  0
 17 18  4  0
 17 24  4  0
 19 23  4  0
 20 24  4  0
 23 26  1  0
M  END
$$$$

 Created by Python create_sdf_string function

 26 30  0  0  0  0  0  0  0  0999 V2000
   10.0084   -1.8019   23.4945 C   0  0  0  0  0  0  0  0  0  0  0  0
   10.0005   -4.2520   16.5631 C   0  0  0  0  0  0  0  0  0  0  0  0
   10.2759   -4.0036   17.8845 C   0  0  0  0  0  0  0  0  0  0  0  0
    8.5652    1.5478   25.3778 N   0  0  0  0  0  0  0  0  0  0  0  0
    6.8048   -7.5457   17.8752 C   0  0  0  0  0  0  0  0  0  0  0  0
    6.1721   -8.2186   15.9886 N   0  0  0  0  0  0  0  0  0  0  0  0
   11.1764   -2.6600   19.5604 C   0  0  0  0  0  0  0  0  0  0  0  0
    9.5491   -0.6380   24.1912 C   0  0  0  0  0  0  0  0  0  0  0  0
    7.5337   -6.9256   16.9519 C   0  0  0  0  0  0  0  0  0  0  0  0
    9.6782    0.5671   23.5143 C   0  0  0  0  0  0  0  0  0  0  0  0
    8.4532    0.3482   26.0821 C   0  0  0  0  0  0  0  0  0  0  0  0
   10.4239   -1.7677   22.2230 N   0  0  0  0  0  0  0  0  0  0  0  0
    9.9468   -4.5953   20.1709 C   0  0  0  0  0  0  0  0  0  0  0  0
   10.0366   -3.0590   23.9864 N   0  0  0  0  0  0  0  0  0  0  0  0
    7.1191   -7.3636   15.7739 C   0  0  0  0  0  0  0  0  0  0  0  0
    5.9612   -8.3203   17.2732 N   0  0  0  0  0  0  0  0  0  0  0  0
    8.5296   -5.9814   17.1841 C   0  0  0  0  0  0  0  0  0  0  0  0
    9.1527   -5.2118   16.2116 C   0  0  0  0  0  0  0  0  0  0  0  0
   10.3364   -3.8368   22.9255 O   0  0  0  0  0  0  0  0  0  0  0  0
    9.6947   -4.8407   18.8534 C   0  0  0  0  0  0  0  0  0  0  0  0
    9.1596    1.7042   24.1381 C   0  0  0  0  0  0  0  0  0  0  0  0
   11.0456   -2.9774   18.2694 N   0  0  0  0  0  0  0  0  0  0  0  0
   10.4788   -3.0457   21.8593 C   0  0  0  0  0  0  0  0  0  0  0  0
    8.8693   -5.8099   18.4657 N   0  0  0  0  0  0  0  0  0  0  0  0
    8.9892   -0.7926   25.4573 C   0  0  0  0  0  0  0  0  0  0  0  0
   10.5677   -3.4462   20.5323 C   0  0  0  0  0  0  0  0  0  0  0  0
  1  8  1  0
  1 12  4  0
  1 14  4  0
  2  3  4  0
  2 18  4  0
  3 20  4  0
  3 22  4  0
  4 11  4  0
  4 21  4  0
  5  9  4  0
  5 16  4  0
  6 15  4  0
  6 16  4  0
  7 22  4  0
  7 26  4  0
  8 10  4  0
  8 25  4  0
  9 15  4  0
  9 17  1  0
 10 21  4  0
 11 25  4  0
 12 23  4  0
 13 20  4  0
 13 26  4  0
 14 19  4  0
 17 18  4  0
 17 24  4  0
 19 23  4  0
 20 24  4  0
 23 26  1  0
M  END
$$$$

 Created by Python create_sdf_string function

 26 30  0  0  0  0  0  0  0  0999 V2000
   10.0084   -1.8019   23.4945 C   0  0  0  0  0  0  0  0  0  0  0  0
   10.0005   -4.2520   16.5631 C   0  0  0  0  0  0  0  0  0  0  0  0
   10.2759   -4.0036   17.8845 C   0  0  0  0  0  0  0  0  0  0  0  0
    8.5652    1.5478   25.3778 N   0  0  0  0  0  0  0  0  0  0  0  0
    6.8048   -7.5457   17.8752 C   0  0  0  0  0  0  0  0  0  0  0  0
    6.1721   -8.2186   15.9886 N   0  0  0  0  0  0  0  0  0  0  0  0
   11.1764   -2.6600   19.5604 C   0  0  0  0  0  0  0  0  0  0  0  0
    9.5491   -0.6380   24.1912 C   0  0  0  0  0  0  0  0  0  0  0  0
    7.5337   -6.9256   16.9519 C   0  0  0  0  0  0  0  0  0  0  0  0
    9.6782    0.5671   23.5143 C   0  0  0  0  0  0  0  0  0  0  0  0
    8.4532    0.3482   26.0821 C   0  0  0  0  0  0  0  0  0  0  0  0
   10.4239   -1.7677   22.2230 N   0  0  0  0  0  0  0  0  0  0  0  0
    9.9468   -4.5953   20.1709 C   0  0  0  0  0  0  0  0  0  0  0  0
   10.0366   -3.0590   23.9864 N   0  0  0  0  0  0  0  0  0  0  0  0
    7.1191   -7.3636   15.7739 C   0  0  0  0  0  0  0  0  0  0  0  0
    5.9612   -8.3203   17.2732 N   0  0  0  0  0  0  0  0  0  0  0  0
    8.5296   -5.9814   17.1841 C   0  0  0  0  0  0  0  0  0  0  0  0
    9.1527   -5.2118   16.2116 C   0  0  0  0  0  0  0  0  0  0  0  0
   10.3364   -3.8368   22.9255 O   0  0  0  0  0  0  0  0  0  0  0  0
    9.6947   -4.8407   18.8534 C   0  0  0  0  0  0  0  0  0  0  0  0
    9.1596    1.7042   24.1381 C   0  0  0  0  0  0  0  0  0  0  0  0
   11.0456   -2.9774   18.2694 N   0  0  0  0  0  0  0  0  0  0  0  0
   10.4788   -3.0457   21.8593 C   0  0  0  0  0  0  0  0  0  0  0  0
    8.8693   -5.8099   18.4657 N   0  0  0  0  0  0  0  0  0  0  0  0
    8.9892   -0.7926   25.4573 C   0  0  0  0  0  0  0  0  0  0  0  0
   10.5677   -3.4462   20.5323 C   0  0  0  0  0  0  0  0  0  0  0  0
  1  8  1  0
  1 12  4  0
  1 14  4  0
  2  3  4  0
  2 18  4  0
  3 20  4  0
  3 22  4  0
  4 11  4  0
  4 21  4  0
  5  9  4  0
  5 16  4  0
  6 15  4  0
  6 16  4  0
  7 22  4  0
  7 26  4  0
  8 10  4  0
  8 25  4  0
  9 15  4  0
  9 17  1  0
 10 21  4  0
 11 25  4  0
 12 23  4  0
 13 20  4  0
 13 26  4  0
 14 19  4  0
 17 18  4  0
 17 24  4  0
 19 23  4  0
 20 24  4  0
 23 26  1  0
M  END
$$$$

 Created by Python create_sdf_string function

 26 30  0  0  0  0  0  0  0  0999 V2000
   10.0084   -1.8019   23.4945 C   0  0  0  0  0  0  0  0  0  0  0  0
   10.0005   -4.2520   16.5631 C   0  0  0  0  0  0  0  0  0  0  0  0
   10.2759   -4.0036   17.8845 C   0  0  0  0  0  0  0  0  0  0  0  0
    8.5652    1.5478   25.3778 N   0  0  0  0  0  0  0  0  0  0  0  0
    6.8048   -7.5457   17.8752 C   0  0  0  0  0  0  0  0  0  0  0  0
    6.1721   -8.2186   15.9886 N   0  0  0  0  0  0  0  0  0  0  0  0
   11.1764   -2.6600   19.5604 C   0  0  0  0  0  0  0  0  0  0  0  0
    9.5491   -0.6380   24.1912 C   0  0  0  0  0  0  0  0  0  0  0  0
    7.5337   -6.9256   16.9519 C   0  0  0  0  0  0  0  0  0  0  0  0
    9.6782    0.5671   23.5143 C   0  0  0  0  0  0  0  0  0  0  0  0
    8.4532    0.3482   26.0821 C   0  0  0  0  0  0  0  0  0  0  0  0
   10.4239   -1.7677   22.2230 N   0  0  0  0  0  0  0  0  0  0  0  0
    9.9468   -4.5953   20.1709 C   0  0  0  0  0  0  0  0  0  0  0  0
   10.0366   -3.0590   23.9864 N   0  0  0  0  0  0  0  0  0  0  0  0
    7.1191   -7.3636   15.7739 C   0  0  0  0  0  0  0  0  0  0  0  0
    5.9612   -8.3203   17.2732 N   0  0  0  0  0  0  0  0  0  0  0  0
    8.5296   -5.9814   17.1841 C   0  0  0  0  0  0  0  0  0  0  0  0
    9.1527   -5.2118   16.2116 C   0  0  0  0  0  0  0  0  0  0  0  0
   10.3364   -3.8368   22.9255 O   0  0  0  0  0  0  0  0  0  0  0  0
    9.6947   -4.8407   18.8534 C   0  0  0  0  0  0  0  0  0  0  0  0
    9.1596    1.7042   24.1381 C   0  0  0  0  0  0  0  0  0  0  0  0
   11.0456   -2.9774   18.2694 N   0  0  0  0  0  0  0  0  0  0  0  0
   10.4788   -3.0457   21.8593 C   0  0  0  0  0  0  0  0  0  0  0  0
    8.8693   -5.8099   18.4657 N   0  0  0  0  0  0  0  0  0  0  0  0
    8.9892   -0.7926   25.4573 C   0  0  0  0  0  0  0  0  0  0  0  0
   10.5677   -3.4462   20.5323 C   0  0  0  0  0  0  0  0  0  0  0  0
  1  8  1  0
  1 12  4  0
  1 14  4  0
  2  3  4  0
  2 18  4  0
  3 20  4  0
  3 22  4  0
  4 11  4  0
  4 21  4  0
  5  9  4  0
  5 16  4  0
  6 15  4  0
  6 16  4  0
  7 22  4  0
  7 26  4  0
  8 10  4  0
  8 25  4  0
  9 15  4  0
  9 17  1  0
 10 21  4  0
 11 25  4  0
 12 23  4  0
 13 20  4  0
 13 26  4  0
 14 19  4  0
 17 18  4  0
 17 24  4  0
 19 23  4  0
 20 24  4  0
 23 26  1  0
M  END
$$$$

 Created by Python create_sdf_string function

 26 30  0  0  0  0  0  0  0  0999 V2000
   10.0084   -1.8019   23.4945 C   0  0  0  0  0  0  0  0  0  0  0  0
   10.0005   -4.2520   16.5631 C   0  0  0  0  0  0  0  0  0  0  0  0
   10.2759   -4.0036   17.8845 C   0  0  0  0  0  0  0  0  0  0  0  0
    8.5652    1.5478   25.3778 N   0  0  0  0  0  0  0  0  0  0  0  0
    6.8048   -7.5457   17.8752 C   0  0  0  0  0  0  0  0  0  0  0  0
    6.1721   -8.2186   15.9886 N   0  0  0  0  0  0  0  0  0  0  0  0
   11.1764   -2.6600   19.5604 C   0  0  0  0  0  0  0  0  0  0  0  0
    9.5491   -0.6380   24.1912 C   0  0  0  0  0  0  0  0  0  0  0  0
    7.5337   -6.9256   16.9519 C   0  0  0  0  0  0  0  0  0  0  0  0
    9.6782    0.5671   23.5143 C   0  0  0  0  0  0  0  0  0  0  0  0
    8.4532    0.3482   26.0821 C   0  0  0  0  0  0  0  0  0  0  0  0
   10.4239   -1.7677   22.2230 N   0  0  0  0  0  0  0  0  0  0  0  0
    9.9468   -4.5953   20.1709 C   0  0  0  0  0  0  0  0  0  0  0  0
   10.0366   -3.0590   23.9864 N   0  0  0  0  0  0  0  0  0  0  0  0
    7.1191   -7.3636   15.7739 C   0  0  0  0  0  0  0  0  0  0  0  0
    5.9612   -8.3203   17.2732 N   0  0  0  0  0  0  0  0  0  0  0  0
    8.5296   -5.9814   17.1841 C   0  0  0  0  0  0  0  0  0  0  0  0
    9.1527   -5.2118   16.2116 C   0  0  0  0  0  0  0  0  0  0  0  0
   10.3364   -3.8368   22.9255 O   0  0  0  0  0  0  0  0  0  0  0  0
    9.6947   -4.8407   18.8534 C   0  0  0  0  0  0  0  0  0  0  0  0
    9.1596    1.7042   24.1381 C   0  0  0  0  0  0  0  0  0  0  0  0
   11.0456   -2.9774   18.2694 N   0  0  0  0  0  0  0  0  0  0  0  0
   10.4788   -3.0457   21.8593 C   0  0  0  0  0  0  0  0  0  0  0  0
    8.8693   -5.8099   18.4657 N   0  0  0  0  0  0  0  0  0  0  0  0
    8.9892   -0.7926   25.4573 C   0  0  0  0  0  0  0  0  0  0  0  0
   10.5677   -3.4462   20.5323 C   0  0  0  0  0  0  0  0  0  0  0  0
  1  8  1  0
  1 12  4  0
  1 14  4  0
  2  3  4  0
  2 18  4  0
  3 20  4  0
  3 22  4  0
  4 11  4  0
  4 21  4  0
  5  9  4  0
  5 16  4  0
  6 15  4  0
  6 16  4  0
  7 22  4  0
  7 26  4  0
  8 10  4  0
  8 25  4  0
  9 15  4  0
  9 17  1  0
 10 21  4  0
 11 25  4  0
 12 23  4  0
 13 20  4  0
 13 26  4  0
 14 19  4  0
 17 18  4  0
 17 24  4  0
 19 23  4  0
 20 24  4  0
 23 26  1  0
M  END
$$$$

 Created by Python create_sdf_string function

 26 30  0  0  0  0  0  0  0  0999 V2000
   10.0084   -1.8019   23.4945 C   0  0  0  0  0  0  0  0  0  0  0  0
   10.0005   -4.2520   16.5631 C   0  0  0  0  0  0  0  0  0  0  0  0
   10.2759   -4.0036   17.8845 C   0  0  0  0  0  0  0  0  0  0  0  0
    8.5652    1.5478   25.3778 N   0  0  0  0  0  0  0  0  0  0  0  0
    6.8048   -7.5457   17.8752 C   0  0  0  0  0  0  0  0  0  0  0  0
    6.1721   -8.2186   15.9886 N   0  0  0  0  0  0  0  0  0  0  0  0
   11.1764   -2.6600   19.5604 C   0  0  0  0  0  0  0  0  0  0  0  0
    9.5491   -0.6380   24.1912 C   0  0  0  0  0  0  0  0  0  0  0  0
    7.5337   -6.9256   16.9519 C   0  0  0  0  0  0  0  0  0  0  0  0
    9.6782    0.5671   23.5143 C   0  0  0  0  0  0  0  0  0  0  0  0
    8.4532    0.3482   26.0821 C   0  0  0  0  0  0  0  0  0  0  0  0
   10.4239   -1.7677   22.2230 N   0  0  0  0  0  0  0  0  0  0  0  0
    9.9468   -4.5953   20.1709 C   0  0  0  0  0  0  0  0  0  0  0  0
   10.0366   -3.0590   23.9864 N   0  0  0  0  0  0  0  0  0  0  0  0
    7.1191   -7.3636   15.7739 C   0  0  0  0  0  0  0  0  0  0  0  0
    5.9612   -8.3203   17.2732 N   0  0  0  0  0  0  0  0  0  0  0  0
    8.5296   -5.9814   17.1841 C   0  0  0  0  0  0  0  0  0  0  0  0
    9.1527   -5.2118   16.2116 C   0  0  0  0  0  0  0  0  0  0  0  0
   10.3364   -3.8368   22.9255 O   0  0  0  0  0  0  0  0  0  0  0  0
    9.6947   -4.8407   18.8534 C   0  0  0  0  0  0  0  0  0  0  0  0
    9.1596    1.7042   24.1381 C   0  0  0  0  0  0  0  0  0  0  0  0
   11.0456   -2.9774   18.2694 N   0  0  0  0  0  0  0  0  0  0  0  0
   10.4788   -3.0457   21.8593 C   0  0  0  0  0  0  0  0  0  0  0  0
    8.8693   -5.8099   18.4657 N   0  0  0  0  0  0  0  0  0  0  0  0
    8.9892   -0.7926   25.4573 C   0  0  0  0  0  0  0  0  0  0  0  0
   10.5677   -3.4462   20.5323 C   0  0  0  0  0  0  0  0  0  0  0  0
  1  8  1  0
  1 12  4  0
  1 14  4  0
  2  3  4  0
  2 18  4  0
  3 20  4  0
  3 22  4  0
  4 11  4  0
  4 21  4  0
  5  9  4  0
  5 16  4  0
  6 15  4  0
  6 16  4  0
  7 22  4  0
  7 26  4  0
  8 10  4  0
  8 25  4  0
  9 15  4  0
  9 17  1  0
 10 21  4  0
 11 25  4  0
 12 23  4  0
 13 20  4  0
 13 26  4  0
 14 19  4  0
 17 18  4  0
 17 24  4  0
 19 23  4  0
 20 24  4  0
 23 26  1  0
M  END
$$$$

 Created by Python create_sdf_string function

 26 30  0  0  0  0  0  0  0  0999 V2000
   10.0084   -1.8019   23.4945 C   0  0  0  0  0  0  0  0  0  0  0  0
   10.0005   -4.2520   16.5631 C   0  0  0  0  0  0  0  0  0  0  0  0
   10.2759   -4.0036   17.8845 C   0  0  0  0  0  0  0  0  0  0  0  0
    8.5652    1.5478   25.3778 N   0  0  0  0  0  0  0  0  0  0  0  0
    6.8048   -7.5457   17.8752 C   0  0  0  0  0  0  0  0  0  0  0  0
    6.1721   -8.2186   15.9886 N   0  0  0  0  0  0  0  0  0  0  0  0
   11.1764   -2.6600   19.5604 C   0  0  0  0  0  0  0  0  0  0  0  0
    9.5491   -0.6380   24.1912 C   0  0  0  0  0  0  0  0  0  0  0  0
    7.5337   -6.9256   16.9519 C   0  0  0  0  0  0  0  0  0  0  0  0
    9.6782    0.5671   23.5143 C   0  0  0  0  0  0  0  0  0  0  0  0
    8.4532    0.3482   26.0821 C   0  0  0  0  0  0  0  0  0  0  0  0
   10.4239   -1.7677   22.2230 N   0  0  0  0  0  0  0  0  0  0  0  0
    9.9468   -4.5953   20.1709 C   0  0  0  0  0  0  0  0  0  0  0  0
   10.0366   -3.0590   23.9864 N   0  0  0  0  0  0  0  0  0  0  0  0
    7.1191   -7.3636   15.7739 C   0  0  0  0  0  0  0  0  0  0  0  0
    5.9612   -8.3203   17.2732 N   0  0  0  0  0  0  0  0  0  0  0  0
    8.5296   -5.9814   17.1841 C   0  0  0  0  0  0  0  0  0  0  0  0
    9.1527   -5.2118   16.2116 C   0  0  0  0  0  0  0  0  0  0  0  0
   10.3364   -3.8368   22.9255 O   0  0  0  0  0  0  0  0  0  0  0  0
    9.6947   -4.8407   18.8534 C   0  0  0  0  0  0  0  0  0  0  0  0
    9.1596    1.7042   24.1381 C   0  0  0  0  0  0  0  0  0  0  0  0
   11.0456   -2.9774   18.2694 N   0  0  0  0  0  0  0  0  0  0  0  0
   10.4788   -3.0457   21.8593 C   0  0  0  0  0  0  0  0  0  0  0  0
    8.8693   -5.8099   18.4657 N   0  0  0  0  0  0  0  0  0  0  0  0
    8.9892   -0.7926   25.4573 C   0  0  0  0  0  0  0  0  0  0  0  0
   10.5677   -3.4462   20.5323 C   0  0  0  0  0  0  0  0  0  0  0  0
  1  8  1  0
  1 12  4  0
  1 14  4  0
  2  3  4  0
  2 18  4  0
  3 20  4  0
  3 22  4  0
  4 11  4  0
  4 21  4  0
  5  9  4  0
  5 16  4  0
  6 15  4  0
  6 16  4  0
  7 22  4  0
  7 26  4  0
  8 10  4  0
  8 25  4  0
  9 15  4  0
  9 17  1  0
 10 21  4  0
 11 25  4  0
 12 23  4  0
 13 20  4  0
 13 26  4  0
 14 19  4  0
 17 18  4  0
 17 24  4  0
 19 23  4  0
 20 24  4  0
 23 26  1  0
M  END
$$$$

 Created by Python create_sdf_string function

 26 30  0  0  0  0  0  0  0  0999 V2000
   10.0084   -1.8019   23.4945 C   0  0  0  0  0  0  0  0  0  0  0  0
   10.0005   -4.2520   16.5631 C   0  0  0  0  0  0  0  0  0  0  0  0
   10.2759   -4.0036   17.8845 C   0  0  0  0  0  0  0  0  0  0  0  0
    8.5652    1.5478   25.3778 N   0  0  0  0  0  0  0  0  0  0  0  0
    6.8048   -7.5457   17.8752 C   0  0  0  0  0  0  0  0  0  0  0  0
    6.1721   -8.2186   15.9886 N   0  0  0  0  0  0  0  0  0  0  0  0
   11.1764   -2.6600   19.5604 C   0  0  0  0  0  0  0  0  0  0  0  0
    9.5491   -0.6380   24.1912 C   0  0  0  0  0  0  0  0  0  0  0  0
    7.5337   -6.9256   16.9519 C   0  0  0  0  0  0  0  0  0  0  0  0
    9.6782    0.5671   23.5143 C   0  0  0  0  0  0  0  0  0  0  0  0
    8.4532    0.3482   26.0821 C   0  0  0  0  0  0  0  0  0  0  0  0
   10.4239   -1.7677   22.2230 N   0  0  0  0  0  0  0  0  0  0  0  0
    9.9468   -4.5953   20.1709 C   0  0  0  0  0  0  0  0  0  0  0  0
   10.0366   -3.0590   23.9864 N   0  0  0  0  0  0  0  0  0  0  0  0
    7.1191   -7.3636   15.7739 C   0  0  0  0  0  0  0  0  0  0  0  0
    5.9612   -8.3203   17.2732 N   0  0  0  0  0  0  0  0  0  0  0  0
    8.5296   -5.9814   17.1841 C   0  0  0  0  0  0  0  0  0  0  0  0
    9.1527   -5.2118   16.2116 C   0  0  0  0  0  0  0  0  0  0  0  0
   10.3364   -3.8368   22.9255 O   0  0  0  0  0  0  0  0  0  0  0  0
    9.6947   -4.8407   18.8534 C   0  0  0  0  0  0  0  0  0  0  0  0
    9.1596    1.7042   24.1381 C   0  0  0  0  0  0  0  0  0  0  0  0
   11.0456   -2.9774   18.2694 N   0  0  0  0  0  0  0  0  0  0  0  0
   10.4788   -3.0457   21.8593 C   0  0  0  0  0  0  0  0  0  0  0  0
    8.8693   -5.8099   18.4657 N   0  0  0  0  0  0  0  0  0  0  0  0
    8.9892   -0.7926   25.4573 C   0  0  0  0  0  0  0  0  0  0  0  0
   10.5677   -3.4462   20.5323 C   0  0  0  0  0  0  0  0  0  0  0  0
  1  8  1  0
  1 12  4  0
  1 14  4  0
  2  3  4  0
  2 18  4  0
  3 20  4  0
  3 22  4  0
  4 11  4  0
  4 21  4  0
  5  9  4  0
  5 16  4  0
  6 15  4  0
  6 16  4  0
  7 22  4  0
  7 26  4  0
  8 10  4  0
  8 25  4  0
  9 15  4  0
  9 17  1  0
 10 21  4  0
 11 25  4  0
 12 23  4  0
 13 20  4  0
 13 26  4  0
 14 19  4  0
 17 18  4  0
 17 24  4  0
 19 23  4  0
 20 24  4  0
 23 26  1  0
M  END
$$$$

 Created by Python create_sdf_string function

 26 30  0  0  0  0  0  0  0  0999 V2000
   10.0084   -1.8019   23.4945 C   0  0  0  0  0  0  0  0  0  0  0  0
   10.0005   -4.2520   16.5631 C   0  0  0  0  0  0  0  0  0  0  0  0
   10.2759   -4.0036   17.8845 C   0  0  0  0  0  0  0  0  0  0  0  0
    8.5652    1.5478   25.3778 N   0  0  0  0  0  0  0  0  0  0  0  0
    6.8048   -7.5457   17.8752 C   0  0  0  0  0  0  0  0  0  0  0  0
    6.1721   -8.2186   15.9886 N   0  0  0  0  0  0  0  0  0  0  0  0
   11.1764   -2.6600   19.5604 C   0  0  0  0  0  0  0  0  0  0  0  0
    9.5491   -0.6380   24.1912 C   0  0  0  0  0  0  0  0  0  0  0  0
    7.5337   -6.9256   16.9519 C   0  0  0  0  0  0  0  0  0  0  0  0
    9.6782    0.5671   23.5143 C   0  0  0  0  0  0  0  0  0  0  0  0
    8.4532    0.3482   26.0821 C   0  0  0  0  0  0  0  0  0  0  0  0
   10.4239   -1.7677   22.2230 N   0  0  0  0  0  0  0  0  0  0  0  0
    9.9468   -4.5953   20.1709 C   0  0  0  0  0  0  0  0  0  0  0  0
   10.0366   -3.0590   23.9864 N   0  0  0  0  0  0  0  0  0  0  0  0
    7.1191   -7.3636   15.7739 C   0  0  0  0  0  0  0  0  0  0  0  0
    5.9612   -8.3203   17.2732 N   0  0  0  0  0  0  0  0  0  0  0  0
    8.5296   -5.9814   17.1841 C   0  0  0  0  0  0  0  0  0  0  0  0
    9.1527   -5.2118   16.2116 C   0  0  0  0  0  0  0  0  0  0  0  0
   10.3364   -3.8368   22.9255 O   0  0  0  0  0  0  0  0  0  0  0  0
    9.6947   -4.8407   18.8534 C   0  0  0  0  0  0  0  0  0  0  0  0
    9.1596    1.7042   24.1381 C   0  0  0  0  0  0  0  0  0  0  0  0
   11.0456   -2.9774   18.2694 N   0  0  0  0  0  0  0  0  0  0  0  0
   10.4788   -3.0457   21.8593 C   0  0  0  0  0  0  0  0  0  0  0  0
    8.8693   -5.8099   18.4657 N   0  0  0  0  0  0  0  0  0  0  0  0
    8.9892   -0.7926   25.4573 C   0  0  0  0  0  0  0  0  0  0  0  0
   10.5677   -3.4462   20.5323 C   0  0  0  0  0  0  0  0  0  0  0  0
  1  8  1  0
  1 12  4  0
  1 14  4  0
  2  3  4  0
  2 18  4  0
  3 20  4  0
  3 22  4  0
  4 11  4  0
  4 21  4  0
  5  9  4  0
  5 16  4  0
  6 15  4  0
  6 16  4  0
  7 22  4  0
  7 26  4  0
  8 10  4  0
  8 25  4  0
  9 15  4  0
  9 17  1  0
 10 21  4  0
 11 25  4  0
 12 23  4  0
 13 20  4  0
 13 26  4  0
 14 19  4  0
 17 18  4  0
 17 24  4  0
 19 23  4  0
 20 24  4  0
 23 26  1  0
M  END
$$$$

 Created by Python create_sdf_string function

 26 30  0  0  0  0  0  0  0  0999 V2000
   10.0084   -1.8019   23.4945 C   0  0  0  0  0  0  0  0  0  0  0  0
   10.0005   -4.2520   16.5631 C   0  0  0  0  0  0  0  0  0  0  0  0
   10.2759   -4.0036   17.8845 C   0  0  0  0  0  0  0  0  0  0  0  0
    8.5652    1.5478   25.3778 N   0  0  0  0  0  0  0  0  0  0  0  0
    6.8048   -7.5457   17.8752 C   0  0  0  0  0  0  0  0  0  0  0  0
    6.1721   -8.2186   15.9886 N   0  0  0  0  0  0  0  0  0  0  0  0
   11.1764   -2.6600   19.5604 C   0  0  0  0  0  0  0  0  0  0  0  0
    9.5491   -0.6380   24.1912 C   0  0  0  0  0  0  0  0  0  0  0  0
    7.5337   -6.9256   16.9519 C   0  0  0  0  0  0  0  0  0  0  0  0
    9.6782    0.5671   23.5143 C   0  0  0  0  0  0  0  0  0  0  0  0
    8.4532    0.3482   26.0821 C   0  0  0  0  0  0  0  0  0  0  0  0
   10.4239   -1.7677   22.2230 N   0  0  0  0  0  0  0  0  0  0  0  0
    9.9468   -4.5953   20.1709 C   0  0  0  0  0  0  0  0  0  0  0  0
   10.0366   -3.0590   23.9864 N   0  0  0  0  0  0  0  0  0  0  0  0
    7.1191   -7.3636   15.7739 C   0  0  0  0  0  0  0  0  0  0  0  0
    5.9612   -8.3203   17.2732 N   0  0  0  0  0  0  0  0  0  0  0  0
    8.5296   -5.9814   17.1841 C   0  0  0  0  0  0  0  0  0  0  0  0
    9.1527   -5.2118   16.2116 C   0  0  0  0  0  0  0  0  0  0  0  0
   10.3364   -3.8368   22.9255 O   0  0  0  0  0  0  0  0  0  0  0  0
    9.6947   -4.8407   18.8534 C   0  0  0  0  0  0  0  0  0  0  0  0
    9.1596    1.7042   24.1381 C   0  0  0  0  0  0  0  0  0  0  0  0
   11.0456   -2.9774   18.2694 N   0  0  0  0  0  0  0  0  0  0  0  0
   10.4788   -3.0457   21.8593 C   0  0  0  0  0  0  0  0  0  0  0  0
    8.8693   -5.8099   18.4657 N   0  0  0  0  0  0  0  0  0  0  0  0
    8.9892   -0.7926   25.4573 C   0  0  0  0  0  0  0  0  0  0  0  0
   10.5677   -3.4462   20.5323 C   0  0  0  0  0  0  0  0  0  0  0  0
  1  8  1  0
  1 12  4  0
  1 14  4  0
  2  3  4  0
  2 18  4  0
  3 20  4  0
  3 22  4  0
  4 11  4  0
  4 21  4  0
  5  9  4  0
  5 16  4  0
  6 15  4  0
  6 16  4  0
  7 22  4  0
  7 26  4  0
  8 10  4  0
  8 25  4  0
  9 15  4  0
  9 17  1  0
 10 21  4  0
 11 25  4  0
 12 23  4  0
 13 20  4  0
 13 26  4  0
 14 19  4  0
 17 18  4  0
 17 24  4  0
 19 23  4  0
 20 24  4  0
 23 26  1  0
M  END
$$$$

 Created by Python create_sdf_string function

 26 30  0  0  0  0  0  0  0  0999 V2000
   10.0084   -1.8019   23.4945 C   0  0  0  0  0  0  0  0  0  0  0  0
   10.0005   -4.2520   16.5631 C   0  0  0  0  0  0  0  0  0  0  0  0
   10.2759   -4.0036   17.8845 C   0  0  0  0  0  0  0  0  0  0  0  0
    8.5652    1.5478   25.3778 N   0  0  0  0  0  0  0  0  0  0  0  0
    6.8048   -7.5457   17.8752 C   0  0  0  0  0  0  0  0  0  0  0  0
    6.1721   -8.2186   15.9886 N   0  0  0  0  0  0  0  0  0  0  0  0
   11.1764   -2.6600   19.5604 C   0  0  0  0  0  0  0  0  0  0  0  0
    9.5491   -0.6380   24.1912 C   0  0  0  0  0  0  0  0  0  0  0  0
    7.5337   -6.9256   16.9519 C   0  0  0  0  0  0  0  0  0  0  0  0
    9.6782    0.5671   23.5143 C   0  0  0  0  0  0  0  0  0  0  0  0
    8.4532    0.3482   26.0821 C   0  0  0  0  0  0  0  0  0  0  0  0
   10.4239   -1.7677   22.2230 N   0  0  0  0  0  0  0  0  0  0  0  0
    9.9468   -4.5953   20.1709 C   0  0  0  0  0  0  0  0  0  0  0  0
   10.0366   -3.0590   23.9864 N   0  0  0  0  0  0  0  0  0  0  0  0
    7.1191   -7.3636   15.7739 C   0  0  0  0  0  0  0  0  0  0  0  0
    5.9612   -8.3203   17.2732 N   0  0  0  0  0  0  0  0  0  0  0  0
    8.5296   -5.9814   17.1841 C   0  0  0  0  0  0  0  0  0  0  0  0
    9.1527   -5.2118   16.2116 C   0  0  0  0  0  0  0  0  0  0  0  0
   10.3364   -3.8368   22.9255 O   0  0  0  0  0  0  0  0  0  0  0  0
    9.6947   -4.8407   18.8534 C   0  0  0  0  0  0  0  0  0  0  0  0
    9.1596    1.7042   24.1381 C   0  0  0  0  0  0  0  0  0  0  0  0
   11.0456   -2.9774   18.2694 N   0  0  0  0  0  0  0  0  0  0  0  0
   10.4788   -3.0457   21.8593 C   0  0  0  0  0  0  0  0  0  0  0  0
    8.8693   -5.8099   18.4657 N   0  0  0  0  0  0  0  0  0  0  0  0
    8.9892   -0.7926   25.4573 C   0  0  0  0  0  0  0  0  0  0  0  0
   10.5677   -3.4462   20.5323 C   0  0  0  0  0  0  0  0  0  0  0  0
  1  8  1  0
  1 12  4  0
  1 14  4  0
  2  3  4  0
  2 18  4  0
  3 20  4  0
  3 22  4  0
  4 11  4  0
  4 21  4  0
  5  9  4  0
  5 16  4  0
  6 15  4  0
  6 16  4  0
  7 22  4  0
  7 26  4  0
  8 10  4  0
  8 25  4  0
  9 15  4  0
  9 17  1  0
 10 21  4  0
 11 25  4  0
 12 23  4  0
 13 20  4  0
 13 26  4  0
 14 19  4  0
 17 18  4  0
 17 24  4  0
 19 23  4  0
 20 24  4  0
 23 26  1  0
M  END
$$$$

 Created by Python create_sdf_string function

 26 30  0  0  0  0  0  0  0  0999 V2000
   10.0084   -1.8019   23.4945 C   0  0  0  0  0  0  0  0  0  0  0  0
   10.0005   -4.2520   16.5631 C   0  0  0  0  0  0  0  0  0  0  0  0
   10.2759   -4.0036   17.8845 C   0  0  0  0  0  0  0  0  0  0  0  0
    8.5652    1.5478   25.3778 N   0  0  0  0  0  0  0  0  0  0  0  0
    6.8048   -7.5457   17.8752 C   0  0  0  0  0  0  0  0  0  0  0  0
    6.1721   -8.2186   15.9886 N   0  0  0  0  0  0  0  0  0  0  0  0
   11.1764   -2.6600   19.5604 C   0  0  0  0  0  0  0  0  0  0  0  0
    9.5491   -0.6380   24.1912 C   0  0  0  0  0  0  0  0  0  0  0  0
    7.5337   -6.9256   16.9519 C   0  0  0  0  0  0  0  0  0  0  0  0
    9.6782    0.5671   23.5143 C   0  0  0  0  0  0  0  0  0  0  0  0
    8.4532    0.3482   26.0821 C   0  0  0  0  0  0  0  0  0  0  0  0
   10.4239   -1.7677   22.2230 N   0  0  0  0  0  0  0  0  0  0  0  0
    9.9468   -4.5953   20.1709 C   0  0  0  0  0  0  0  0  0  0  0  0
   10.0366   -3.0590   23.9864 N   0  0  0  0  0  0  0  0  0  0  0  0
    7.1191   -7.3636   15.7739 C   0  0  0  0  0  0  0  0  0  0  0  0
    5.9612   -8.3203   17.2732 N   0  0  0  0  0  0  0  0  0  0  0  0
    8.5296   -5.9814   17.1841 C   0  0  0  0  0  0  0  0  0  0  0  0
    9.1527   -5.2118   16.2116 C   0  0  0  0  0  0  0  0  0  0  0  0
   10.3364   -3.8368   22.9255 O   0  0  0  0  0  0  0  0  0  0  0  0
    9.6947   -4.8407   18.8534 C   0  0  0  0  0  0  0  0  0  0  0  0
    9.1596    1.7042   24.1381 C   0  0  0  0  0  0  0  0  0  0  0  0
   11.0456   -2.9774   18.2694 N   0  0  0  0  0  0  0  0  0  0  0  0
   10.4788   -3.0457   21.8593 C   0  0  0  0  0  0  0  0  0  0  0  0
    8.8693   -5.8099   18.4657 N   0  0  0  0  0  0  0  0  0  0  0  0
    8.9892   -0.7926   25.4573 C   0  0  0  0  0  0  0  0  0  0  0  0
   10.5677   -3.4462   20.5323 C   0  0  0  0  0  0  0  0  0  0  0  0
  1  8  1  0
  1 12  4  0
  1 14  4  0
  2  3  4  0
  2 18  4  0
  3 20  4  0
  3 22  4  0
  4 11  4  0
  4 21  4  0
  5  9  4  0
  5 16  4  0
  6 15  4  0
  6 16  4  0
  7 22  4  0
  7 26  4  0
  8 10  4  0
  8 25  4  0
  9 15  4  0
  9 17  1  0
 10 21  4  0
 11 25  4  0
 12 23  4  0
 13 20  4  0
 13 26  4  0
 14 19  4  0
 17 18  4  0
 17 24  4  0
 19 23  4  0
 20 24  4  0
 23 26  1  0
M  END
$$$$

 Created by Python create_sdf_string function

 26 30  0  0  0  0  0  0  0  0999 V2000
   10.0084   -1.8019   23.4945 C   0  0  0  0  0  0  0  0  0  0  0  0
   10.0005   -4.2520   16.5631 C   0  0  0  0  0  0  0  0  0  0  0  0
   10.2759   -4.0036   17.8845 C   0  0  0  0  0  0  0  0  0  0  0  0
    8.5652    1.5478   25.3778 N   0  0  0  0  0  0  0  0  0  0  0  0
    6.8048   -7.5457   17.8752 C   0  0  0  0  0  0  0  0  0  0  0  0
    6.1721   -8.2186   15.9886 N   0  0  0  0  0  0  0  0  0  0  0  0
   11.1764   -2.6600   19.5604 C   0  0  0  0  0  0  0  0  0  0  0  0
    9.5491   -0.6380   24.1912 C   0  0  0  0  0  0  0  0  0  0  0  0
    7.5337   -6.9256   16.9519 C   0  0  0  0  0  0  0  0  0  0  0  0
    9.6782    0.5671   23.5143 C   0  0  0  0  0  0  0  0  0  0  0  0
    8.4532    0.3482   26.0821 C   0  0  0  0  0  0  0  0  0  0  0  0
   10.4239   -1.7677   22.2230 N   0  0  0  0  0  0  0  0  0  0  0  0
    9.9468   -4.5953   20.1709 C   0  0  0  0  0  0  0  0  0  0  0  0
   10.0366   -3.0590   23.9864 N   0  0  0  0  0  0  0  0  0  0  0  0
    7.1191   -7.3636   15.7739 C   0  0  0  0  0  0  0  0  0  0  0  0
    5.9612   -8.3203   17.2732 N   0  0  0  0  0  0  0  0  0  0  0  0
    8.5296   -5.9814   17.1841 C   0  0  0  0  0  0  0  0  0  0  0  0
    9.1527   -5.2118   16.2116 C   0  0  0  0  0  0  0  0  0  0  0  0
   10.3364   -3.8368   22.9255 O   0  0  0  0  0  0  0  0  0  0  0  0
    9.6947   -4.8407   18.8534 C   0  0  0  0  0  0  0  0  0  0  0  0
    9.1596    1.7042   24.1381 C   0  0  0  0  0  0  0  0  0  0  0  0
   11.0456   -2.9774   18.2694 N   0  0  0  0  0  0  0  0  0  0  0  0
   10.4788   -3.0457   21.8593 C   0  0  0  0  0  0  0  0  0  0  0  0
    8.8693   -5.8099   18.4657 N   0  0  0  0  0  0  0  0  0  0  0  0
    8.9892   -0.7926   25.4573 C   0  0  0  0  0  0  0  0  0  0  0  0
   10.5677   -3.4462   20.5323 C   0  0  0  0  0  0  0  0  0  0  0  0
  1  8  1  0
  1 12  4  0
  1 14  4  0
  2  3  4  0
  2 18  4  0
  3 20  4  0
  3 22  4  0
  4 11  4  0
  4 21  4  0
  5  9  4  0
  5 16  4  0
  6 15  4  0
  6 16  4  0
  7 22  4  0
  7 26  4  0
  8 10  4  0
  8 25  4  0
  9 15  4  0
  9 17  1  0
 10 21  4  0
 11 25  4  0
 12 23  4  0
 13 20  4  0
 13 26  4  0
 14 19  4  0
 17 18  4  0
 17 24  4  0
 19 23  4  0
 20 24  4  0
 23 26  1  0
M  END
$$$$

 Created by Python create_sdf_string function

 26 30  0  0  0  0  0  0  0  0999 V2000
   10.0084   -1.8019   23.4945 C   0  0  0  0  0  0  0  0  0  0  0  0
   10.0005   -4.2520   16.5631 C   0  0  0  0  0  0  0  0  0  0  0  0
   10.2759   -4.0036   17.8845 C   0  0  0  0  0  0  0  0  0  0  0  0
    8.5652    1.5478   25.3778 N   0  0  0  0  0  0  0  0  0  0  0  0
    6.8048   -7.5457   17.8752 C   0  0  0  0  0  0  0  0  0  0  0  0
    6.1721   -8.2186   15.9886 N   0  0  0  0  0  0  0  0  0  0  0  0
   11.1764   -2.6600   19.5604 C   0  0  0  0  0  0  0  0  0  0  0  0
    9.5491   -0.6380   24.1912 C   0  0  0  0  0  0  0  0  0  0  0  0
    7.5337   -6.9256   16.9519 C   0  0  0  0  0  0  0  0  0  0  0  0
    9.6782    0.5671   23.5143 C   0  0  0  0  0  0  0  0  0  0  0  0
    8.4532    0.3482   26.0821 C   0  0  0  0  0  0  0  0  0  0  0  0
   10.4239   -1.7677   22.2230 N   0  0  0  0  0  0  0  0  0  0  0  0
    9.9468   -4.5953   20.1709 C   0  0  0  0  0  0  0  0  0  0  0  0
   10.0366   -3.0590   23.9864 N   0  0  0  0  0  0  0  0  0  0  0  0
    7.1191   -7.3636   15.7739 C   0  0  0  0  0  0  0  0  0  0  0  0
    5.9612   -8.3203   17.2732 N   0  0  0  0  0  0  0  0  0  0  0  0
    8.5296   -5.9814   17.1841 C   0  0  0  0  0  0  0  0  0  0  0  0
    9.1527   -5.2118   16.2116 C   0  0  0  0  0  0  0  0  0  0  0  0
   10.3364   -3.8368   22.9255 O   0  0  0  0  0  0  0  0  0  0  0  0
    9.6947   -4.8407   18.8534 C   0  0  0  0  0  0  0  0  0  0  0  0
    9.1596    1.7042   24.1381 C   0  0  0  0  0  0  0  0  0  0  0  0
   11.0456   -2.9774   18.2694 N   0  0  0  0  0  0  0  0  0  0  0  0
   10.4788   -3.0457   21.8593 C   0  0  0  0  0  0  0  0  0  0  0  0
    8.8693   -5.8099   18.4657 N   0  0  0  0  0  0  0  0  0  0  0  0
    8.9892   -0.7926   25.4573 C   0  0  0  0  0  0  0  0  0  0  0  0
   10.5677   -3.4462   20.5323 C   0  0  0  0  0  0  0  0  0  0  0  0
  1  8  1  0
  1 12  4  0
  1 14  4  0
  2  3  4  0
  2 18  4  0
  3 20  4  0
  3 22  4  0
  4 11  4  0
  4 21  4  0
  5  9  4  0
  5 16  4  0
  6 15  4  0
  6 16  4  0
  7 22  4  0
  7 26  4  0
  8 10  4  0
  8 25  4  0
  9 15  4  0
  9 17  1  0
 10 21  4  0
 11 25  4  0
 12 23  4  0
 13 20  4  0
 13 26  4  0
 14 19  4  0
 17 18  4  0
 17 24  4  0
 19 23  4  0
 20 24  4  0
 23 26  1  0
M  END
$$$$

 Created by Python create_sdf_string function

 26 30  0  0  0  0  0  0  0  0999 V2000
   10.0084   -1.8019   23.4945 C   0  0  0  0  0  0  0  0  0  0  0  0
   10.0005   -4.2520   16.5631 C   0  0  0  0  0  0  0  0  0  0  0  0
   10.2759   -4.0036   17.8845 C   0  0  0  0  0  0  0  0  0  0  0  0
    8.5652    1.5478   25.3778 N   0  0  0  0  0  0  0  0  0  0  0  0
    6.8048   -7.5457   17.8752 C   0  0  0  0  0  0  0  0  0  0  0  0
    6.1721   -8.2186   15.9886 N   0  0  0  0  0  0  0  0  0  0  0  0
   11.1764   -2.6600   19.5604 C   0  0  0  0  0  0  0  0  0  0  0  0
    9.5491   -0.6380   24.1912 C   0  0  0  0  0  0  0  0  0  0  0  0
    7.5337   -6.9256   16.9519 C   0  0  0  0  0  0  0  0  0  0  0  0
    9.6782    0.5671   23.5143 C   0  0  0  0  0  0  0  0  0  0  0  0
    8.4532    0.3482   26.0821 C   0  0  0  0  0  0  0  0  0  0  0  0
   10.4239   -1.7677   22.2230 N   0  0  0  0  0  0  0  0  0  0  0  0
    9.9468   -4.5953   20.1709 C   0  0  0  0  0  0  0  0  0  0  0  0
   10.0366   -3.0590   23.9864 N   0  0  0  0  0  0  0  0  0  0  0  0
    7.1191   -7.3636   15.7739 C   0  0  0  0  0  0  0  0  0  0  0  0
    5.9612   -8.3203   17.2732 N   0  0  0  0  0  0  0  0  0  0  0  0
    8.5296   -5.9814   17.1841 C   0  0  0  0  0  0  0  0  0  0  0  0
    9.1527   -5.2118   16.2116 C   0  0  0  0  0  0  0  0  0  0  0  0
   10.3364   -3.8368   22.9255 O   0  0  0  0  0  0  0  0  0  0  0  0
    9.6947   -4.8407   18.8534 C   0  0  0  0  0  0  0  0  0  0  0  0
    9.1596    1.7042   24.1381 C   0  0  0  0  0  0  0  0  0  0  0  0
   11.0456   -2.9774   18.2694 N   0  0  0  0  0  0  0  0  0  0  0  0
   10.4788   -3.0457   21.8593 C   0  0  0  0  0  0  0  0  0  0  0  0
    8.8693   -5.8099   18.4657 N   0  0  0  0  0  0  0  0  0  0  0  0
    8.9892   -0.7926   25.4573 C   0  0  0  0  0  0  0  0  0  0  0  0
   10.5677   -3.4462   20.5323 C   0  0  0  0  0  0  0  0  0  0  0  0
  1  8  1  0
  1 12  4  0
  1 14  4  0
  2  3  4  0
  2 18  4  0
  3 20  4  0
  3 22  4  0
  4 11  4  0
  4 21  4  0
  5  9  4  0
  5 16  4  0
  6 15  4  0
  6 16  4  0
  7 22  4  0
  7 26  4  0
  8 10  4  0
  8 25  4  0
  9 15  4  0
  9 17  1  0
 10 21  4  0
 11 25  4  0
 12 23  4  0
 13 20  4  0
 13 26  4  0
 14 19  4  0
 17 18  4  0
 17 24  4  0
 19 23  4  0
 20 24  4  0
 23 26  1  0
M  END
$$$$

 Created by Python create_sdf_string function

 26 30  0  0  0  0  0  0  0  0999 V2000
   10.0084   -1.8019   23.4945 C   0  0  0  0  0  0  0  0  0  0  0  0
   10.0005   -4.2520   16.5631 C   0  0  0  0  0  0  0  0  0  0  0  0
   10.2759   -4.0036   17.8845 C   0  0  0  0  0  0  0  0  0  0  0  0
    8.5652    1.5478   25.3778 N   0  0  0  0  0  0  0  0  0  0  0  0
    6.8048   -7.5457   17.8752 C   0  0  0  0  0  0  0  0  0  0  0  0
    6.1721   -8.2186   15.9886 N   0  0  0  0  0  0  0  0  0  0  0  0
   11.1764   -2.6600   19.5604 C   0  0  0  0  0  0  0  0  0  0  0  0
    9.5491   -0.6380   24.1912 C   0  0  0  0  0  0  0  0  0  0  0  0
    7.5337   -6.9256   16.9519 C   0  0  0  0  0  0  0  0  0  0  0  0
    9.6782    0.5671   23.5143 C   0  0  0  0  0  0  0  0  0  0  0  0
    8.4532    0.3482   26.0821 C   0  0  0  0  0  0  0  0  0  0  0  0
   10.4239   -1.7677   22.2230 N   0  0  0  0  0  0  0  0  0  0  0  0
    9.9468   -4.5953   20.1709 C   0  0  0  0  0  0  0  0  0  0  0  0
   10.0366   -3.0590   23.9864 N   0  0  0  0  0  0  0  0  0  0  0  0
    7.1191   -7.3636   15.7739 C   0  0  0  0  0  0  0  0  0  0  0  0
    5.9612   -8.3203   17.2732 N   0  0  0  0  0  0  0  0  0  0  0  0
    8.5296   -5.9814   17.1841 C   0  0  0  0  0  0  0  0  0  0  0  0
    9.1527   -5.2118   16.2116 C   0  0  0  0  0  0  0  0  0  0  0  0
   10.3364   -3.8368   22.9255 O   0  0  0  0  0  0  0  0  0  0  0  0
    9.6947   -4.8407   18.8534 C   0  0  0  0  0  0  0  0  0  0  0  0
    9.1596    1.7042   24.1381 C   0  0  0  0  0  0  0  0  0  0  0  0
   11.0456   -2.9774   18.2694 N   0  0  0  0  0  0  0  0  0  0  0  0
   10.4788   -3.0457   21.8593 C   0  0  0  0  0  0  0  0  0  0  0  0
    8.8693   -5.8099   18.4657 N   0  0  0  0  0  0  0  0  0  0  0  0
    8.9892   -0.7926   25.4573 C   0  0  0  0  0  0  0  0  0  0  0  0
   10.5677   -3.4462   20.5323 C   0  0  0  0  0  0  0  0  0  0  0  0
  1  8  1  0
  1 12  4  0
  1 14  4  0
  2  3  4  0
  2 18  4  0
  3 20  4  0
  3 22  4  0
  4 11  4  0
  4 21  4  0
  5  9  4  0
  5 16  4  0
  6 15  4  0
  6 16  4  0
  7 22  4  0
  7 26  4  0
  8 10  4  0
  8 25  4  0
  9 15  4  0
  9 17  1  0
 10 21  4  0
 11 25  4  0
 12 23  4  0
 13 20  4  0
 13 26  4  0
 14 19  4  0
 17 18  4  0
 17 24  4  0
 19 23  4  0
 20 24  4  0
 23 26  1  0
M  END
$$$$

 Created by Python create_sdf_string function

 26 30  0  0  0  0  0  0  0  0999 V2000
   10.0084   -1.8019   23.4945 C   0  0  0  0  0  0  0  0  0  0  0  0
   10.0005   -4.2520   16.5631 C   0  0  0  0  0  0  0  0  0  0  0  0
   10.2759   -4.0036   17.8845 C   0  0  0  0  0  0  0  0  0  0  0  0
    8.5652    1.5478   25.3778 N   0  0  0  0  0  0  0  0  0  0  0  0
    6.8048   -7.5457   17.8752 C   0  0  0  0  0  0  0  0  0  0  0  0
    6.1721   -8.2186   15.9886 N   0  0  0  0  0  0  0  0  0  0  0  0
   11.1764   -2.6600   19.5604 C   0  0  0  0  0  0  0  0  0  0  0  0
    9.5491   -0.6380   24.1912 C   0  0  0  0  0  0  0  0  0  0  0  0
    7.5337   -6.9256   16.9519 C   0  0  0  0  0  0  0  0  0  0  0  0
    9.6782    0.5671   23.5143 C   0  0  0  0  0  0  0  0  0  0  0  0
    8.4532    0.3482   26.0821 C   0  0  0  0  0  0  0  0  0  0  0  0
   10.4239   -1.7677   22.2230 N   0  0  0  0  0  0  0  0  0  0  0  0
    9.9468   -4.5953   20.1709 C   0  0  0  0  0  0  0  0  0  0  0  0
   10.0366   -3.0590   23.9864 N   0  0  0  0  0  0  0  0  0  0  0  0
    7.1191   -7.3636   15.7739 C   0  0  0  0  0  0  0  0  0  0  0  0
    5.9612   -8.3203   17.2732 N   0  0  0  0  0  0  0  0  0  0  0  0
    8.5296   -5.9814   17.1841 C   0  0  0  0  0  0  0  0  0  0  0  0
    9.1527   -5.2118   16.2116 C   0  0  0  0  0  0  0  0  0  0  0  0
   10.3364   -3.8368   22.9255 O   0  0  0  0  0  0  0  0  0  0  0  0
    9.6947   -4.8407   18.8534 C   0  0  0  0  0  0  0  0  0  0  0  0
    9.1596    1.7042   24.1381 C   0  0  0  0  0  0  0  0  0  0  0  0
   11.0456   -2.9774   18.2694 N   0  0  0  0  0  0  0  0  0  0  0  0
   10.4788   -3.0457   21.8593 C   0  0  0  0  0  0  0  0  0  0  0  0
    8.8693   -5.8099   18.4657 N   0  0  0  0  0  0  0  0  0  0  0  0
    8.9892   -0.7926   25.4573 C   0  0  0  0  0  0  0  0  0  0  0  0
   10.5677   -3.4462   20.5323 C   0  0  0  0  0  0  0  0  0  0  0  0
  1  8  1  0
  1 12  4  0
  1 14  4  0
  2  3  4  0
  2 18  4  0
  3 20  4  0
  3 22  4  0
  4 11  4  0
  4 21  4  0
  5  9  4  0
  5 16  4  0
  6 15  4  0
  6 16  4  0
  7 22  4  0
  7 26  4  0
  8 10  4  0
  8 25  4  0
  9 15  4  0
  9 17  1  0
 10 21  4  0
 11 25  4  0
 12 23  4  0
 13 20  4  0
 13 26  4  0
 14 19  4  0
 17 18  4  0
 17 24  4  0
 19 23  4  0
 20 24  4  0
 23 26  1  0
M  END
$$$$

 Created by Python create_sdf_string function

 26 30  0  0  0  0  0  0  0  0999 V2000
   10.0084   -1.8019   23.4945 C   0  0  0  0  0  0  0  0  0  0  0  0
   10.0005   -4.2520   16.5631 C   0  0  0  0  0  0  0  0  0  0  0  0
   10.2759   -4.0036   17.8845 C   0  0  0  0  0  0  0  0  0  0  0  0
    8.5652    1.5478   25.3778 N   0  0  0  0  0  0  0  0  0  0  0  0
    6.8048   -7.5457   17.8752 C   0  0  0  0  0  0  0  0  0  0  0  0
    6.1721   -8.2186   15.9886 N   0  0  0  0  0  0  0  0  0  0  0  0
   11.1764   -2.6600   19.5604 C   0  0  0  0  0  0  0  0  0  0  0  0
    9.5491   -0.6380   24.1912 C   0  0  0  0  0  0  0  0  0  0  0  0
    7.5337   -6.9256   16.9519 C   0  0  0  0  0  0  0  0  0  0  0  0
    9.6782    0.5671   23.5143 C   0  0  0  0  0  0  0  0  0  0  0  0
    8.4532    0.3482   26.0821 C   0  0  0  0  0  0  0  0  0  0  0  0
   10.4239   -1.7677   22.2230 N   0  0  0  0  0  0  0  0  0  0  0  0
    9.9468   -4.5953   20.1709 C   0  0  0  0  0  0  0  0  0  0  0  0
   10.0366   -3.0590   23.9864 N   0  0  0  0  0  0  0  0  0  0  0  0
    7.1191   -7.3636   15.7739 C   0  0  0  0  0  0  0  0  0  0  0  0
    5.9612   -8.3203   17.2732 N   0  0  0  0  0  0  0  0  0  0  0  0
    8.5296   -5.9814   17.1841 C   0  0  0  0  0  0  0  0  0  0  0  0
    9.1527   -5.2118   16.2116 C   0  0  0  0  0  0  0  0  0  0  0  0
   10.3364   -3.8368   22.9255 O   0  0  0  0  0  0  0  0  0  0  0  0
    9.6947   -4.8407   18.8534 C   0  0  0  0  0  0  0  0  0  0  0  0
    9.1596    1.7042   24.1381 C   0  0  0  0  0  0  0  0  0  0  0  0
   11.0456   -2.9774   18.2694 N   0  0  0  0  0  0  0  0  0  0  0  0
   10.4788   -3.0457   21.8593 C   0  0  0  0  0  0  0  0  0  0  0  0
    8.8693   -5.8099   18.4657 N   0  0  0  0  0  0  0  0  0  0  0  0
    8.9892   -0.7926   25.4573 C   0  0  0  0  0  0  0  0  0  0  0  0
   10.5677   -3.4462   20.5323 C   0  0  0  0  0  0  0  0  0  0  0  0
  1  8  1  0
  1 12  4  0
  1 14  4  0
  2  3  4  0
  2 18  4  0
  3 20  4  0
  3 22  4  0
  4 11  4  0
  4 21  4  0
  5  9  4  0
  5 16  4  0
  6 15  4  0
  6 16  4  0
  7 22  4  0
  7 26  4  0
  8 10  4  0
  8 25  4  0
  9 15  4  0
  9 17  1  0
 10 21  4  0
 11 25  4  0
 12 23  4  0
 13 20  4  0
 13 26  4  0
 14 19  4  0
 17 18  4  0
 17 24  4  0
 19 23  4  0
 20 24  4  0
 23 26  1  0
M  END
$$$$

 Created by Python create_sdf_string function

 26 30  0  0  0  0  0  0  0  0999 V2000
   10.0084   -1.8019   23.4945 C   0  0  0  0  0  0  0  0  0  0  0  0
   10.0005   -4.2520   16.5631 C   0  0  0  0  0  0  0  0  0  0  0  0
   10.2759   -4.0036   17.8845 C   0  0  0  0  0  0  0  0  0  0  0  0
    8.5652    1.5478   25.3778 N   0  0  0  0  0  0  0  0  0  0  0  0
    6.8048   -7.5457   17.8752 C   0  0  0  0  0  0  0  0  0  0  0  0
    6.1721   -8.2186   15.9886 N   0  0  0  0  0  0  0  0  0  0  0  0
   11.1764   -2.6600   19.5604 C   0  0  0  0  0  0  0  0  0  0  0  0
    9.5491   -0.6380   24.1912 C   0  0  0  0  0  0  0  0  0  0  0  0
    7.5337   -6.9256   16.9519 C   0  0  0  0  0  0  0  0  0  0  0  0
    9.6782    0.5671   23.5143 C   0  0  0  0  0  0  0  0  0  0  0  0
    8.4532    0.3482   26.0821 C   0  0  0  0  0  0  0  0  0  0  0  0
   10.4239   -1.7677   22.2230 N   0  0  0  0  0  0  0  0  0  0  0  0
    9.9468   -4.5953   20.1709 C   0  0  0  0  0  0  0  0  0  0  0  0
   10.0366   -3.0590   23.9864 N   0  0  0  0  0  0  0  0  0  0  0  0
    7.1191   -7.3636   15.7739 C   0  0  0  0  0  0  0  0  0  0  0  0
    5.9612   -8.3203   17.2732 N   0  0  0  0  0  0  0  0  0  0  0  0
    8.5296   -5.9814   17.1841 C   0  0  0  0  0  0  0  0  0  0  0  0
    9.1527   -5.2118   16.2116 C   0  0  0  0  0  0  0  0  0  0  0  0
   10.3364   -3.8368   22.9255 O   0  0  0  0  0  0  0  0  0  0  0  0
    9.6947   -4.8407   18.8534 C   0  0  0  0  0  0  0  0  0  0  0  0
    9.1596    1.7042   24.1381 C   0  0  0  0  0  0  0  0  0  0  0  0
   11.0456   -2.9774   18.2694 N   0  0  0  0  0  0  0  0  0  0  0  0
   10.4788   -3.0457   21.8593 C   0  0  0  0  0  0  0  0  0  0  0  0
    8.8693   -5.8099   18.4657 N   0  0  0  0  0  0  0  0  0  0  0  0
    8.9892   -0.7926   25.4573 C   0  0  0  0  0  0  0  0  0  0  0  0
   10.5677   -3.4462   20.5323 C   0  0  0  0  0  0  0  0  0  0  0  0
  1  8  1  0
  1 12  4  0
  1 14  4  0
  2  3  4  0
  2 18  4  0
  3 20  4  0
  3 22  4  0
  4 11  4  0
  4 21  4  0
  5  9  4  0
  5 16  4  0
  6 15  4  0
  6 16  4  0
  7 22  4  0
  7 26  4  0
  8 10  4  0
  8 25  4  0
  9 15  4  0
  9 17  1  0
 10 21  4  0
 11 25  4  0
 12 23  4  0
 13 20  4  0
 13 26  4  0
 14 19  4  0
 17 18  4  0
 17 24  4  0
 19 23  4  0
 20 24  4  0
 23 26  1  0
M  END
$$$$

 Created by Python create_sdf_string function

 26 30  0  0  0  0  0  0  0  0999 V2000
   10.0084   -1.8019   23.4945 C   0  0  0  0  0  0  0  0  0  0  0  0
   10.0005   -4.2520   16.5631 C   0  0  0  0  0  0  0  0  0  0  0  0
   10.2759   -4.0036   17.8845 C   0  0  0  0  0  0  0  0  0  0  0  0
    8.5652    1.5478   25.3778 N   0  0  0  0  0  0  0  0  0  0  0  0
    6.8048   -7.5457   17.8752 C   0  0  0  0  0  0  0  0  0  0  0  0
    6.1721   -8.2186   15.9886 N   0  0  0  0  0  0  0  0  0  0  0  0
   11.1764   -2.6600   19.5604 C   0  0  0  0  0  0  0  0  0  0  0  0
    9.5491   -0.6380   24.1912 C   0  0  0  0  0  0  0  0  0  0  0  0
    7.5337   -6.9256   16.9519 C   0  0  0  0  0  0  0  0  0  0  0  0
    9.6782    0.5671   23.5143 C   0  0  0  0  0  0  0  0  0  0  0  0
    8.4532    0.3482   26.0821 C   0  0  0  0  0  0  0  0  0  0  0  0
   10.4239   -1.7677   22.2230 N   0  0  0  0  0  0  0  0  0  0  0  0
    9.9468   -4.5953   20.1709 C   0  0  0  0  0  0  0  0  0  0  0  0
   10.0366   -3.0590   23.9864 N   0  0  0  0  0  0  0  0  0  0  0  0
    7.1191   -7.3636   15.7739 C   0  0  0  0  0  0  0  0  0  0  0  0
    5.9612   -8.3203   17.2732 N   0  0  0  0  0  0  0  0  0  0  0  0
    8.5296   -5.9814   17.1841 C   0  0  0  0  0  0  0  0  0  0  0  0
    9.1527   -5.2118   16.2116 C   0  0  0  0  0  0  0  0  0  0  0  0
   10.3364   -3.8368   22.9255 O   0  0  0  0  0  0  0  0  0  0  0  0
    9.6947   -4.8407   18.8534 C   0  0  0  0  0  0  0  0  0  0  0  0
    9.1596    1.7042   24.1381 C   0  0  0  0  0  0  0  0  0  0  0  0
   11.0456   -2.9774   18.2694 N   0  0  0  0  0  0  0  0  0  0  0  0
   10.4788   -3.0457   21.8593 C   0  0  0  0  0  0  0  0  0  0  0  0
    8.8693   -5.8099   18.4657 N   0  0  0  0  0  0  0  0  0  0  0  0
    8.9892   -0.7926   25.4573 C   0  0  0  0  0  0  0  0  0  0  0  0
   10.5677   -3.4462   20.5323 C   0  0  0  0  0  0  0  0  0  0  0  0
  1  8  1  0
  1 12  4  0
  1 14  4  0
  2  3  4  0
  2 18  4  0
  3 20  4  0
  3 22  4  0
  4 11  4  0
  4 21  4  0
  5  9  4  0
  5 16  4  0
  6 15  4  0
  6 16  4  0
  7 22  4  0
  7 26  4  0
  8 10  4  0
  8 25  4  0
  9 15  4  0
  9 17  1  0
 10 21  4  0
 11 25  4  0
 12 23  4  0
 13 20  4  0
 13 26  4  0
 14 19  4  0
 17 18  4  0
 17 24  4  0
 19 23  4  0
 20 24  4  0
 23 26  1  0
M  END
$$$$

 Created by Python create_sdf_string function

 26 30  0  0  0  0  0  0  0  0999 V2000
   10.0084   -1.8019   23.4945 C   0  0  0  0  0  0  0  0  0  0  0  0
   10.0005   -4.2520   16.5631 C   0  0  0  0  0  0  0  0  0  0  0  0
   10.2759   -4.0036   17.8845 C   0  0  0  0  0  0  0  0  0  0  0  0
    8.5652    1.5478   25.3778 N   0  0  0  0  0  0  0  0  0  0  0  0
    6.8048   -7.5457   17.8752 C   0  0  0  0  0  0  0  0  0  0  0  0
    6.1721   -8.2186   15.9886 N   0  0  0  0  0  0  0  0  0  0  0  0
   11.1764   -2.6600   19.5604 C   0  0  0  0  0  0  0  0  0  0  0  0
    9.5491   -0.6380   24.1912 C   0  0  0  0  0  0  0  0  0  0  0  0
    7.5337   -6.9256   16.9519 C   0  0  0  0  0  0  0  0  0  0  0  0
    9.6782    0.5671   23.5143 C   0  0  0  0  0  0  0  0  0  0  0  0
    8.4532    0.3482   26.0821 C   0  0  0  0  0  0  0  0  0  0  0  0
   10.4239   -1.7677   22.2230 N   0  0  0  0  0  0  0  0  0  0  0  0
    9.9468   -4.5953   20.1709 C   0  0  0  0  0  0  0  0  0  0  0  0
   10.0366   -3.0590   23.9864 N   0  0  0  0  0  0  0  0  0  0  0  0
    7.1191   -7.3636   15.7739 C   0  0  0  0  0  0  0  0  0  0  0  0
    5.9612   -8.3203   17.2732 N   0  0  0  0  0  0  0  0  0  0  0  0
    8.5296   -5.9814   17.1841 C   0  0  0  0  0  0  0  0  0  0  0  0
    9.1527   -5.2118   16.2116 C   0  0  0  0  0  0  0  0  0  0  0  0
   10.3364   -3.8368   22.9255 O   0  0  0  0  0  0  0  0  0  0  0  0
    9.6947   -4.8407   18.8534 C   0  0  0  0  0  0  0  0  0  0  0  0
    9.1596    1.7042   24.1381 C   0  0  0  0  0  0  0  0  0  0  0  0
   11.0456   -2.9774   18.2694 N   0  0  0  0  0  0  0  0  0  0  0  0
   10.4788   -3.0457   21.8593 C   0  0  0  0  0  0  0  0  0  0  0  0
    8.8693   -5.8099   18.4657 N   0  0  0  0  0  0  0  0  0  0  0  0
    8.9892   -0.7926   25.4573 C   0  0  0  0  0  0  0  0  0  0  0  0
   10.5677   -3.4462   20.5323 C   0  0  0  0  0  0  0  0  0  0  0  0
  1  8  1  0
  1 12  4  0
  1 14  4  0
  2  3  4  0
  2 18  4  0
  3 20  4  0
  3 22  4  0
  4 11  4  0
  4 21  4  0
  5  9  4  0
  5 16  4  0
  6 15  4  0
  6 16  4  0
  7 22  4  0
  7 26  4  0
  8 10  4  0
  8 25  4  0
  9 15  4  0
  9 17  1  0
 10 21  4  0
 11 25  4  0
 12 23  4  0
 13 20  4  0
 13 26  4  0
 14 19  4  0
 17 18  4  0
 17 24  4  0
 19 23  4  0
 20 24  4  0
 23 26  1  0
M  END
$$$$

 Created by Python create_sdf_string function

 26 30  0  0  0  0  0  0  0  0999 V2000
   10.0084   -1.8019   23.4945 C   0  0  0  0  0  0  0  0  0  0  0  0
   10.0005   -4.2520   16.5631 C   0  0  0  0  0  0  0  0  0  0  0  0
   10.2759   -4.0036   17.8845 C   0  0  0  0  0  0  0  0  0  0  0  0
    8.5652    1.5478   25.3778 N   0  0  0  0  0  0  0  0  0  0  0  0
    6.8048   -7.5457   17.8752 C   0  0  0  0  0  0  0  0  0  0  0  0
    6.1721   -8.2186   15.9886 N   0  0  0  0  0  0  0  0  0  0  0  0
   11.1764   -2.6600   19.5604 C   0  0  0  0  0  0  0  0  0  0  0  0
    9.5491   -0.6380   24.1912 C   0  0  0  0  0  0  0  0  0  0  0  0
    7.5337   -6.9256   16.9519 C   0  0  0  0  0  0  0  0  0  0  0  0
    9.6782    0.5671   23.5143 C   0  0  0  0  0  0  0  0  0  0  0  0
    8.4532    0.3482   26.0821 C   0  0  0  0  0  0  0  0  0  0  0  0
   10.4239   -1.7677   22.2230 N   0  0  0  0  0  0  0  0  0  0  0  0
    9.9468   -4.5953   20.1709 C   0  0  0  0  0  0  0  0  0  0  0  0
   10.0366   -3.0590   23.9864 N   0  0  0  0  0  0  0  0  0  0  0  0
    7.1191   -7.3636   15.7739 C   0  0  0  0  0  0  0  0  0  0  0  0
    5.9612   -8.3203   17.2732 N   0  0  0  0  0  0  0  0  0  0  0  0
    8.5296   -5.9814   17.1841 C   0  0  0  0  0  0  0  0  0  0  0  0
    9.1527   -5.2118   16.2116 C   0  0  0  0  0  0  0  0  0  0  0  0
   10.3364   -3.8368   22.9255 O   0  0  0  0  0  0  0  0  0  0  0  0
    9.6947   -4.8407   18.8534 C   0  0  0  0  0  0  0  0  0  0  0  0
    9.1596    1.7042   24.1381 C   0  0  0  0  0  0  0  0  0  0  0  0
   11.0456   -2.9774   18.2694 N   0  0  0  0  0  0  0  0  0  0  0  0
   10.4788   -3.0457   21.8593 C   0  0  0  0  0  0  0  0  0  0  0  0
    8.8693   -5.8099   18.4657 N   0  0  0  0  0  0  0  0  0  0  0  0
    8.9892   -0.7926   25.4573 C   0  0  0  0  0  0  0  0  0  0  0  0
   10.5677   -3.4462   20.5323 C   0  0  0  0  0  0  0  0  0  0  0  0
  1  8  1  0
  1 12  4  0
  1 14  4  0
  2  3  4  0
  2 18  4  0
  3 20  4  0
  3 22  4  0
  4 11  4  0
  4 21  4  0
  5  9  4  0
  5 16  4  0
  6 15  4  0
  6 16  4  0
  7 22  4  0
  7 26  4  0
  8 10  4  0
  8 25  4  0
  9 15  4  0
  9 17  1  0
 10 21  4  0
 11 25  4  0
 12 23  4  0
 13 20  4  0
 13 26  4  0
 14 19  4  0
 17 18  4  0
 17 24  4  0
 19 23  4  0
 20 24  4  0
 23 26  1  0
M  END
$$$$

 Created by Python create_sdf_string function

 26 30  0  0  0  0  0  0  0  0999 V2000
   10.0084   -1.8019   23.4945 C   0  0  0  0  0  0  0  0  0  0  0  0
   10.0005   -4.2520   16.5631 C   0  0  0  0  0  0  0  0  0  0  0  0
   10.2759   -4.0036   17.8845 C   0  0  0  0  0  0  0  0  0  0  0  0
    8.5652    1.5478   25.3778 N   0  0  0  0  0  0  0  0  0  0  0  0
    6.8048   -7.5457   17.8752 C   0  0  0  0  0  0  0  0  0  0  0  0
    6.1721   -8.2186   15.9886 N   0  0  0  0  0  0  0  0  0  0  0  0
   11.1764   -2.6600   19.5604 C   0  0  0  0  0  0  0  0  0  0  0  0
    9.5491   -0.6380   24.1912 C   0  0  0  0  0  0  0  0  0  0  0  0
    7.5337   -6.9256   16.9519 C   0  0  0  0  0  0  0  0  0  0  0  0
    9.6782    0.5671   23.5143 C   0  0  0  0  0  0  0  0  0  0  0  0
    8.4532    0.3482   26.0821 C   0  0  0  0  0  0  0  0  0  0  0  0
   10.4239   -1.7677   22.2230 N   0  0  0  0  0  0  0  0  0  0  0  0
    9.9468   -4.5953   20.1709 C   0  0  0  0  0  0  0  0  0  0  0  0
   10.0366   -3.0590   23.9864 N   0  0  0  0  0  0  0  0  0  0  0  0
    7.1191   -7.3636   15.7739 C   0  0  0  0  0  0  0  0  0  0  0  0
    5.9612   -8.3203   17.2732 N   0  0  0  0  0  0  0  0  0  0  0  0
    8.5296   -5.9814   17.1841 C   0  0  0  0  0  0  0  0  0  0  0  0
    9.1527   -5.2118   16.2116 C   0  0  0  0  0  0  0  0  0  0  0  0
   10.3364   -3.8368   22.9255 O   0  0  0  0  0  0  0  0  0  0  0  0
    9.6947   -4.8407   18.8534 C   0  0  0  0  0  0  0  0  0  0  0  0
    9.1596    1.7042   24.1381 C   0  0  0  0  0  0  0  0  0  0  0  0
   11.0456   -2.9774   18.2694 N   0  0  0  0  0  0  0  0  0  0  0  0
   10.4788   -3.0457   21.8593 C   0  0  0  0  0  0  0  0  0  0  0  0
    8.8693   -5.8099   18.4657 N   0  0  0  0  0  0  0  0  0  0  0  0
    8.9892   -0.7926   25.4573 C   0  0  0  0  0  0  0  0  0  0  0  0
   10.5677   -3.4462   20.5323 C   0  0  0  0  0  0  0  0  0  0  0  0
  1  8  1  0
  1 12  4  0
  1 14  4  0
  2  3  4  0
  2 18  4  0
  3 20  4  0
  3 22  4  0
  4 11  4  0
  4 21  4  0
  5  9  4  0
  5 16  4  0
  6 15  4  0
  6 16  4  0
  7 22  4  0
  7 26  4  0
  8 10  4  0
  8 25  4  0
  9 15  4  0
  9 17  1  0
 10 21  4  0
 11 25  4  0
 12 23  4  0
 13 20  4  0
 13 26  4  0
 14 19  4  0
 17 18  4  0
 17 24  4  0
 19 23  4  0
 20 24  4  0
 23 26  1  0
M  END
$$$$

 Created by Python create_sdf_string function

 26 30  0  0  0  0  0  0  0  0999 V2000
   10.0084   -1.8019   23.4945 C   0  0  0  0  0  0  0  0  0  0  0  0
   10.0005   -4.2520   16.5631 C   0  0  0  0  0  0  0  0  0  0  0  0
   10.2759   -4.0036   17.8845 C   0  0  0  0  0  0  0  0  0  0  0  0
    8.5652    1.5478   25.3778 N   0  0  0  0  0  0  0  0  0  0  0  0
    6.8048   -7.5457   17.8752 C   0  0  0  0  0  0  0  0  0  0  0  0
    6.1721   -8.2186   15.9886 N   0  0  0  0  0  0  0  0  0  0  0  0
   11.1764   -2.6600   19.5604 C   0  0  0  0  0  0  0  0  0  0  0  0
    9.5491   -0.6380   24.1912 C   0  0  0  0  0  0  0  0  0  0  0  0
    7.5337   -6.9256   16.9519 C   0  0  0  0  0  0  0  0  0  0  0  0
    9.6782    0.5671   23.5143 C   0  0  0  0  0  0  0  0  0  0  0  0
    8.4532    0.3482   26.0821 C   0  0  0  0  0  0  0  0  0  0  0  0
   10.4239   -1.7677   22.2230 N   0  0  0  0  0  0  0  0  0  0  0  0
    9.9468   -4.5953   20.1709 C   0  0  0  0  0  0  0  0  0  0  0  0
   10.0366   -3.0590   23.9864 N   0  0  0  0  0  0  0  0  0  0  0  0
    7.1191   -7.3636   15.7739 C   0  0  0  0  0  0  0  0  0  0  0  0
    5.9612   -8.3203   17.2732 N   0  0  0  0  0  0  0  0  0  0  0  0
    8.5296   -5.9814   17.1841 C   0  0  0  0  0  0  0  0  0  0  0  0
    9.1527   -5.2118   16.2116 C   0  0  0  0  0  0  0  0  0  0  0  0
   10.3364   -3.8368   22.9255 O   0  0  0  0  0  0  0  0  0  0  0  0
    9.6947   -4.8407   18.8534 C   0  0  0  0  0  0  0  0  0  0  0  0
    9.1596    1.7042   24.1381 C   0  0  0  0  0  0  0  0  0  0  0  0
   11.0456   -2.9774   18.2694 N   0  0  0  0  0  0  0  0  0  0  0  0
   10.4788   -3.0457   21.8593 C   0  0  0  0  0  0  0  0  0  0  0  0
    8.8693   -5.8099   18.4657 N   0  0  0  0  0  0  0  0  0  0  0  0
    8.9892   -0.7926   25.4573 C   0  0  0  0  0  0  0  0  0  0  0  0
   10.5677   -3.4462   20.5323 C   0  0  0  0  0  0  0  0  0  0  0  0
  1  8  1  0
  1 12  4  0
  1 14  4  0
  2  3  4  0
  2 18  4  0
  3 20  4  0
  3 22  4  0
  4 11  4  0
  4 21  4  0
  5  9  4  0
  5 16  4  0
  6 15  4  0
  6 16  4  0
  7 22  4  0
  7 26  4  0
  8 10  4  0
  8 25  4  0
  9 15  4  0
  9 17  1  0
 10 21  4  0
 11 25  4  0
 12 23  4  0
 13 20  4  0
 13 26  4  0
 14 19  4  0
 17 18  4  0
 17 24  4  0
 19 23  4  0
 20 24  4  0
 23 26  1  0
M  END
$$$$

 Created by Python create_sdf_string function

 26 30  0  0  0  0  0  0  0  0999 V2000
   10.0084   -1.8019   23.4945 C   0  0  0  0  0  0  0  0  0  0  0  0
   10.0005   -4.2520   16.5631 C   0  0  0  0  0  0  0  0  0  0  0  0
   10.2759   -4.0036   17.8845 C   0  0  0  0  0  0  0  0  0  0  0  0
    8.5652    1.5478   25.3778 N   0  0  0  0  0  0  0  0  0  0  0  0
    6.8048   -7.5457   17.8752 C   0  0  0  0  0  0  0  0  0  0  0  0
    6.1721   -8.2186   15.9886 N   0  0  0  0  0  0  0  0  0  0  0  0
   11.1764   -2.6600   19.5604 C   0  0  0  0  0  0  0  0  0  0  0  0
    9.5491   -0.6380   24.1912 C   0  0  0  0  0  0  0  0  0  0  0  0
    7.5337   -6.9256   16.9519 C   0  0  0  0  0  0  0  0  0  0  0  0
    9.6782    0.5671   23.5143 C   0  0  0  0  0  0  0  0  0  0  0  0
    8.4532    0.3482   26.0821 C   0  0  0  0  0  0  0  0  0  0  0  0
   10.4239   -1.7677   22.2230 N   0  0  0  0  0  0  0  0  0  0  0  0
    9.9468   -4.5953   20.1709 C   0  0  0  0  0  0  0  0  0  0  0  0
   10.0366   -3.0590   23.9864 N   0  0  0  0  0  0  0  0  0  0  0  0
    7.1191   -7.3636   15.7739 C   0  0  0  0  0  0  0  0  0  0  0  0
    5.9612   -8.3203   17.2732 N   0  0  0  0  0  0  0  0  0  0  0  0
    8.5296   -5.9814   17.1841 C   0  0  0  0  0  0  0  0  0  0  0  0
    9.1527   -5.2118   16.2116 C   0  0  0  0  0  0  0  0  0  0  0  0
   10.3364   -3.8368   22.9255 O   0  0  0  0  0  0  0  0  0  0  0  0
    9.6947   -4.8407   18.8534 C   0  0  0  0  0  0  0  0  0  0  0  0
    9.1596    1.7042   24.1381 C   0  0  0  0  0  0  0  0  0  0  0  0
   11.0456   -2.9774   18.2694 N   0  0  0  0  0  0  0  0  0  0  0  0
   10.4788   -3.0457   21.8593 C   0  0  0  0  0  0  0  0  0  0  0  0
    8.8693   -5.8099   18.4657 N   0  0  0  0  0  0  0  0  0  0  0  0
    8.9892   -0.7926   25.4573 C   0  0  0  0  0  0  0  0  0  0  0  0
   10.5677   -3.4462   20.5323 C   0  0  0  0  0  0  0  0  0  0  0  0
  1  8  1  0
  1 12  4  0
  1 14  4  0
  2  3  4  0
  2 18  4  0
  3 20  4  0
  3 22  4  0
  4 11  4  0
  4 21  4  0
  5  9  4  0
  5 16  4  0
  6 15  4  0
  6 16  4  0
  7 22  4  0
  7 26  4  0
  8 10  4  0
  8 25  4  0
  9 15  4  0
  9 17  1  0
 10 21  4  0
 11 25  4  0
 12 23  4  0
 13 20  4  0
 13 26  4  0
 14 19  4  0
 17 18  4  0
 17 24  4  0
 19 23  4  0
 20 24  4  0
 23 26  1  0
M  END
$$$$

 Created by Python create_sdf_string function

 26 30  0  0  0  0  0  0  0  0999 V2000
   10.0084   -1.8019   23.4945 C   0  0  0  0  0  0  0  0  0  0  0  0
   10.0005   -4.2520   16.5631 C   0  0  0  0  0  0  0  0  0  0  0  0
   10.2759   -4.0036   17.8845 C   0  0  0  0  0  0  0  0  0  0  0  0
    8.5652    1.5478   25.3778 N   0  0  0  0  0  0  0  0  0  0  0  0
    6.8048   -7.5457   17.8752 C   0  0  0  0  0  0  0  0  0  0  0  0
    6.1721   -8.2186   15.9886 N   0  0  0  0  0  0  0  0  0  0  0  0
   11.1764   -2.6600   19.5604 C   0  0  0  0  0  0  0  0  0  0  0  0
    9.5491   -0.6380   24.1912 C   0  0  0  0  0  0  0  0  0  0  0  0
    7.5337   -6.9256   16.9519 C   0  0  0  0  0  0  0  0  0  0  0  0
    9.6782    0.5671   23.5143 C   0  0  0  0  0  0  0  0  0  0  0  0
    8.4532    0.3482   26.0821 C   0  0  0  0  0  0  0  0  0  0  0  0
   10.4239   -1.7677   22.2230 N   0  0  0  0  0  0  0  0  0  0  0  0
    9.9468   -4.5953   20.1709 C   0  0  0  0  0  0  0  0  0  0  0  0
   10.0366   -3.0590   23.9864 N   0  0  0  0  0  0  0  0  0  0  0  0
    7.1191   -7.3636   15.7739 C   0  0  0  0  0  0  0  0  0  0  0  0
    5.9612   -8.3203   17.2732 N   0  0  0  0  0  0  0  0  0  0  0  0
    8.5296   -5.9814   17.1841 C   0  0  0  0  0  0  0  0  0  0  0  0
    9.1527   -5.2118   16.2116 C   0  0  0  0  0  0  0  0  0  0  0  0
   10.3364   -3.8368   22.9255 O   0  0  0  0  0  0  0  0  0  0  0  0
    9.6947   -4.8407   18.8534 C   0  0  0  0  0  0  0  0  0  0  0  0
    9.1596    1.7042   24.1381 C   0  0  0  0  0  0  0  0  0  0  0  0
   11.0456   -2.9774   18.2694 N   0  0  0  0  0  0  0  0  0  0  0  0
   10.4788   -3.0457   21.8593 C   0  0  0  0  0  0  0  0  0  0  0  0
    8.8693   -5.8099   18.4657 N   0  0  0  0  0  0  0  0  0  0  0  0
    8.9892   -0.7926   25.4573 C   0  0  0  0  0  0  0  0  0  0  0  0
   10.5677   -3.4462   20.5323 C   0  0  0  0  0  0  0  0  0  0  0  0
  1  8  1  0
  1 12  4  0
  1 14  4  0
  2  3  4  0
  2 18  4  0
  3 20  4  0
  3 22  4  0
  4 11  4  0
  4 21  4  0
  5  9  4  0
  5 16  4  0
  6 15  4  0
  6 16  4  0
  7 22  4  0
  7 26  4  0
  8 10  4  0
  8 25  4  0
  9 15  4  0
  9 17  1  0
 10 21  4  0
 11 25  4  0
 12 23  4  0
 13 20  4  0
 13 26  4  0
 14 19  4  0
 17 18  4  0
 17 24  4  0
 19 23  4  0
 20 24  4  0
 23 26  1  0
M  END
$$$$

 Created by Python create_sdf_string function

 26 30  0  0  0  0  0  0  0  0999 V2000
   10.0084   -1.8019   23.4945 C   0  0  0  0  0  0  0  0  0  0  0  0
   10.0005   -4.2520   16.5631 C   0  0  0  0  0  0  0  0  0  0  0  0
   10.2759   -4.0036   17.8845 C   0  0  0  0  0  0  0  0  0  0  0  0
    8.5652    1.5478   25.3778 N   0  0  0  0  0  0  0  0  0  0  0  0
    6.8048   -7.5457   17.8752 C   0  0  0  0  0  0  0  0  0  0  0  0
    6.1721   -8.2186   15.9886 N   0  0  0  0  0  0  0  0  0  0  0  0
   11.1764   -2.6600   19.5604 C   0  0  0  0  0  0  0  0  0  0  0  0
    9.5491   -0.6380   24.1912 C   0  0  0  0  0  0  0  0  0  0  0  0
    7.5337   -6.9256   16.9519 C   0  0  0  0  0  0  0  0  0  0  0  0
    9.6782    0.5671   23.5143 C   0  0  0  0  0  0  0  0  0  0  0  0
    8.4532    0.3482   26.0821 C   0  0  0  0  0  0  0  0  0  0  0  0
   10.4239   -1.7677   22.2230 N   0  0  0  0  0  0  0  0  0  0  0  0
    9.9468   -4.5953   20.1709 C   0  0  0  0  0  0  0  0  0  0  0  0
   10.0366   -3.0590   23.9864 N   0  0  0  0  0  0  0  0  0  0  0  0
    7.1191   -7.3636   15.7739 C   0  0  0  0  0  0  0  0  0  0  0  0
    5.9612   -8.3203   17.2732 N   0  0  0  0  0  0  0  0  0  0  0  0
    8.5296   -5.9814   17.1841 C   0  0  0  0  0  0  0  0  0  0  0  0
    9.1527   -5.2118   16.2116 C   0  0  0  0  0  0  0  0  0  0  0  0
   10.3364   -3.8368   22.9255 O   0  0  0  0  0  0  0  0  0  0  0  0
    9.6947   -4.8407   18.8534 C   0  0  0  0  0  0  0  0  0  0  0  0
    9.1596    1.7042   24.1381 C   0  0  0  0  0  0  0  0  0  0  0  0
   11.0456   -2.9774   18.2694 N   0  0  0  0  0  0  0  0  0  0  0  0
   10.4788   -3.0457   21.8593 C   0  0  0  0  0  0  0  0  0  0  0  0
    8.8693   -5.8099   18.4657 N   0  0  0  0  0  0  0  0  0  0  0  0
    8.9892   -0.7926   25.4573 C   0  0  0  0  0  0  0  0  0  0  0  0
   10.5677   -3.4462   20.5323 C   0  0  0  0  0  0  0  0  0  0  0  0
  1  8  1  0
  1 12  4  0
  1 14  4  0
  2  3  4  0
  2 18  4  0
  3 20  4  0
  3 22  4  0
  4 11  4  0
  4 21  4  0
  5  9  4  0
  5 16  4  0
  6 15  4  0
  6 16  4  0
  7 22  4  0
  7 26  4  0
  8 10  4  0
  8 25  4  0
  9 15  4  0
  9 17  1  0
 10 21  4  0
 11 25  4  0
 12 23  4  0
 13 20  4  0
 13 26  4  0
 14 19  4  0
 17 18  4  0
 17 24  4  0
 19 23  4  0
 20 24  4  0
 23 26  1  0
M  END
$$$$

 Created by Python create_sdf_string function

 26 30  0  0  0  0  0  0  0  0999 V2000
   10.0084   -1.8019   23.4945 C   0  0  0  0  0  0  0  0  0  0  0  0
   10.0005   -4.2520   16.5631 C   0  0  0  0  0  0  0  0  0  0  0  0
   10.2759   -4.0036   17.8845 C   0  0  0  0  0  0  0  0  0  0  0  0
    8.5652    1.5478   25.3778 N   0  0  0  0  0  0  0  0  0  0  0  0
    6.8048   -7.5457   17.8752 C   0  0  0  0  0  0  0  0  0  0  0  0
    6.1721   -8.2186   15.9886 N   0  0  0  0  0  0  0  0  0  0  0  0
   11.1764   -2.6600   19.5604 C   0  0  0  0  0  0  0  0  0  0  0  0
    9.5491   -0.6380   24.1912 C   0  0  0  0  0  0  0  0  0  0  0  0
    7.5337   -6.9256   16.9519 C   0  0  0  0  0  0  0  0  0  0  0  0
    9.6782    0.5671   23.5143 C   0  0  0  0  0  0  0  0  0  0  0  0
    8.4532    0.3482   26.0821 C   0  0  0  0  0  0  0  0  0  0  0  0
   10.4239   -1.7677   22.2230 N   0  0  0  0  0  0  0  0  0  0  0  0
    9.9468   -4.5953   20.1709 C   0  0  0  0  0  0  0  0  0  0  0  0
   10.0366   -3.0590   23.9864 N   0  0  0  0  0  0  0  0  0  0  0  0
    7.1191   -7.3636   15.7739 C   0  0  0  0  0  0  0  0  0  0  0  0
    5.9612   -8.3203   17.2732 N   0  0  0  0  0  0  0  0  0  0  0  0
    8.5296   -5.9814   17.1841 C   0  0  0  0  0  0  0  0  0  0  0  0
    9.1527   -5.2118   16.2116 C   0  0  0  0  0  0  0  0  0  0  0  0
   10.3364   -3.8368   22.9255 O   0  0  0  0  0  0  0  0  0  0  0  0
    9.6947   -4.8407   18.8534 C   0  0  0  0  0  0  0  0  0  0  0  0
    9.1596    1.7042   24.1381 C   0  0  0  0  0  0  0  0  0  0  0  0
   11.0456   -2.9774   18.2694 N   0  0  0  0  0  0  0  0  0  0  0  0
   10.4788   -3.0457   21.8593 C   0  0  0  0  0  0  0  0  0  0  0  0
    8.8693   -5.8099   18.4657 N   0  0  0  0  0  0  0  0  0  0  0  0
    8.9892   -0.7926   25.4573 C   0  0  0  0  0  0  0  0  0  0  0  0
   10.5677   -3.4462   20.5323 C   0  0  0  0  0  0  0  0  0  0  0  0
  1  8  1  0
  1 12  4  0
  1 14  4  0
  2  3  4  0
  2 18  4  0
  3 20  4  0
  3 22  4  0
  4 11  4  0
  4 21  4  0
  5  9  4  0
  5 16  4  0
  6 15  4  0
  6 16  4  0
  7 22  4  0
  7 26  4  0
  8 10  4  0
  8 25  4  0
  9 15  4  0
  9 17  1  0
 10 21  4  0
 11 25  4  0
 12 23  4  0
 13 20  4  0
 13 26  4  0
 14 19  4  0
 17 18  4  0
 17 24  4  0
 19 23  4  0
 20 24  4  0
 23 26  1  0
M  END
$$$$

 Created by Python create_sdf_string function

 26 30  0  0  0  0  0  0  0  0999 V2000
   10.0084   -1.8019   23.4945 C   0  0  0  0  0  0  0  0  0  0  0  0
   10.0005   -4.2520   16.5631 C   0  0  0  0  0  0  0  0  0  0  0  0
   10.2759   -4.0036   17.8845 C   0  0  0  0  0  0  0  0  0  0  0  0
    8.5652    1.5478   25.3778 N   0  0  0  0  0  0  0  0  0  0  0  0
    6.8048   -7.5457   17.8752 C   0  0  0  0  0  0  0  0  0  0  0  0
    6.1721   -8.2186   15.9886 N   0  0  0  0  0  0  0  0  0  0  0  0
   11.1764   -2.6600   19.5604 C   0  0  0  0  0  0  0  0  0  0  0  0
    9.5491   -0.6380   24.1912 C   0  0  0  0  0  0  0  0  0  0  0  0
    7.5337   -6.9256   16.9519 C   0  0  0  0  0  0  0  0  0  0  0  0
    9.6782    0.5671   23.5143 C   0  0  0  0  0  0  0  0  0  0  0  0
    8.4532    0.3482   26.0821 C   0  0  0  0  0  0  0  0  0  0  0  0
   10.4239   -1.7677   22.2230 N   0  0  0  0  0  0  0  0  0  0  0  0
    9.9468   -4.5953   20.1709 C   0  0  0  0  0  0  0  0  0  0  0  0
   10.0366   -3.0590   23.9864 N   0  0  0  0  0  0  0  0  0  0  0  0
    7.1191   -7.3636   15.7739 C   0  0  0  0  0  0  0  0  0  0  0  0
    5.9612   -8.3203   17.2732 N   0  0  0  0  0  0  0  0  0  0  0  0
    8.5296   -5.9814   17.1841 C   0  0  0  0  0  0  0  0  0  0  0  0
    9.1527   -5.2118   16.2116 C   0  0  0  0  0  0  0  0  0  0  0  0
   10.3364   -3.8368   22.9255 O   0  0  0  0  0  0  0  0  0  0  0  0
    9.6947   -4.8407   18.8534 C   0  0  0  0  0  0  0  0  0  0  0  0
    9.1596    1.7042   24.1381 C   0  0  0  0  0  0  0  0  0  0  0  0
   11.0456   -2.9774   18.2694 N   0  0  0  0  0  0  0  0  0  0  0  0
   10.4788   -3.0457   21.8593 C   0  0  0  0  0  0  0  0  0  0  0  0
    8.8693   -5.8099   18.4657 N   0  0  0  0  0  0  0  0  0  0  0  0
    8.9892   -0.7926   25.4573 C   0  0  0  0  0  0  0  0  0  0  0  0
   10.5677   -3.4462   20.5323 C   0  0  0  0  0  0  0  0  0  0  0  0
  1  8  1  0
  1 12  4  0
  1 14  4  0
  2  3  4  0
  2 18  4  0
  3 20  4  0
  3 22  4  0
  4 11  4  0
  4 21  4  0
  5  9  4  0
  5 16  4  0
  6 15  4  0
  6 16  4  0
  7 22  4  0
  7 26  4  0
  8 10  4  0
  8 25  4  0
  9 15  4  0
  9 17  1  0
 10 21  4  0
 11 25  4  0
 12 23  4  0
 13 20  4  0
 13 26  4  0
 14 19  4  0
 17 18  4  0
 17 24  4  0
 19 23  4  0
 20 24  4  0
 23 26  1  0
M  END
$$$$

 Created by Python create_sdf_string function

 26 30  0  0  0  0  0  0  0  0999 V2000
   10.0084   -1.8019   23.4945 C   0  0  0  0  0  0  0  0  0  0  0  0
   10.0005   -4.2520   16.5631 C   0  0  0  0  0  0  0  0  0  0  0  0
   10.2759   -4.0036   17.8845 C   0  0  0  0  0  0  0  0  0  0  0  0
    8.5652    1.5478   25.3778 N   0  0  0  0  0  0  0  0  0  0  0  0
    6.8048   -7.5457   17.8752 C   0  0  0  0  0  0  0  0  0  0  0  0
    6.1721   -8.2186   15.9886 N   0  0  0  0  0  0  0  0  0  0  0  0
   11.1764   -2.6600   19.5604 C   0  0  0  0  0  0  0  0  0  0  0  0
    9.5491   -0.6380   24.1912 C   0  0  0  0  0  0  0  0  0  0  0  0
    7.5337   -6.9256   16.9519 C   0  0  0  0  0  0  0  0  0  0  0  0
    9.6782    0.5671   23.5143 C   0  0  0  0  0  0  0  0  0  0  0  0
    8.4532    0.3482   26.0821 C   0  0  0  0  0  0  0  0  0  0  0  0
   10.4239   -1.7677   22.2230 N   0  0  0  0  0  0  0  0  0  0  0  0
    9.9468   -4.5953   20.1709 C   0  0  0  0  0  0  0  0  0  0  0  0
   10.0366   -3.0590   23.9864 N   0  0  0  0  0  0  0  0  0  0  0  0
    7.1191   -7.3636   15.7739 C   0  0  0  0  0  0  0  0  0  0  0  0
    5.9612   -8.3203   17.2732 N   0  0  0  0  0  0  0  0  0  0  0  0
    8.5296   -5.9814   17.1841 C   0  0  0  0  0  0  0  0  0  0  0  0
    9.1527   -5.2118   16.2116 C   0  0  0  0  0  0  0  0  0  0  0  0
   10.3364   -3.8368   22.9255 O   0  0  0  0  0  0  0  0  0  0  0  0
    9.6947   -4.8407   18.8534 C   0  0  0  0  0  0  0  0  0  0  0  0
    9.1596    1.7042   24.1381 C   0  0  0  0  0  0  0  0  0  0  0  0
   11.0456   -2.9774   18.2694 N   0  0  0  0  0  0  0  0  0  0  0  0
   10.4788   -3.0457   21.8593 C   0  0  0  0  0  0  0  0  0  0  0  0
    8.8693   -5.8099   18.4657 N   0  0  0  0  0  0  0  0  0  0  0  0
    8.9892   -0.7926   25.4573 C   0  0  0  0  0  0  0  0  0  0  0  0
   10.5677   -3.4462   20.5323 C   0  0  0  0  0  0  0  0  0  0  0  0
  1  8  1  0
  1 12  4  0
  1 14  4  0
  2  3  4  0
  2 18  4  0
  3 20  4  0
  3 22  4  0
  4 11  4  0
  4 21  4  0
  5  9  4  0
  5 16  4  0
  6 15  4  0
  6 16  4  0
  7 22  4  0
  7 26  4  0
  8 10  4  0
  8 25  4  0
  9 15  4  0
  9 17  1  0
 10 21  4  0
 11 25  4  0
 12 23  4  0
 13 20  4  0
 13 26  4  0
 14 19  4  0
 17 18  4  0
 17 24  4  0
 19 23  4  0
 20 24  4  0
 23 26  1  0
M  END
$$$$

 Created by Python create_sdf_string function

 26 30  0  0  0  0  0  0  0  0999 V2000
   10.0084   -1.8019   23.4945 C   0  0  0  0  0  0  0  0  0  0  0  0
   10.0005   -4.2520   16.5631 C   0  0  0  0  0  0  0  0  0  0  0  0
   10.2759   -4.0036   17.8845 C   0  0  0  0  0  0  0  0  0  0  0  0
    8.5652    1.5478   25.3778 N   0  0  0  0  0  0  0  0  0  0  0  0
    6.8048   -7.5457   17.8752 C   0  0  0  0  0  0  0  0  0  0  0  0
    6.1721   -8.2186   15.9886 N   0  0  0  0  0  0  0  0  0  0  0  0
   11.1764   -2.6600   19.5604 C   0  0  0  0  0  0  0  0  0  0  0  0
    9.5491   -0.6380   24.1912 C   0  0  0  0  0  0  0  0  0  0  0  0
    7.5337   -6.9256   16.9519 C   0  0  0  0  0  0  0  0  0  0  0  0
    9.6782    0.5671   23.5143 C   0  0  0  0  0  0  0  0  0  0  0  0
    8.4532    0.3482   26.0821 C   0  0  0  0  0  0  0  0  0  0  0  0
   10.4239   -1.7677   22.2230 N   0  0  0  0  0  0  0  0  0  0  0  0
    9.9468   -4.5953   20.1709 C   0  0  0  0  0  0  0  0  0  0  0  0
   10.0366   -3.0590   23.9864 N   0  0  0  0  0  0  0  0  0  0  0  0
    7.1191   -7.3636   15.7739 C   0  0  0  0  0  0  0  0  0  0  0  0
    5.9612   -8.3203   17.2732 N   0  0  0  0  0  0  0  0  0  0  0  0
    8.5296   -5.9814   17.1841 C   0  0  0  0  0  0  0  0  0  0  0  0
    9.1527   -5.2118   16.2116 C   0  0  0  0  0  0  0  0  0  0  0  0
   10.3364   -3.8368   22.9255 O   0  0  0  0  0  0  0  0  0  0  0  0
    9.6947   -4.8407   18.8534 C   0  0  0  0  0  0  0  0  0  0  0  0
    9.1596    1.7042   24.1381 C   0  0  0  0  0  0  0  0  0  0  0  0
   11.0456   -2.9774   18.2694 N   0  0  0  0  0  0  0  0  0  0  0  0
   10.4788   -3.0457   21.8593 C   0  0  0  0  0  0  0  0  0  0  0  0
    8.8693   -5.8099   18.4657 N   0  0  0  0  0  0  0  0  0  0  0  0
    8.9892   -0.7926   25.4573 C   0  0  0  0  0  0  0  0  0  0  0  0
   10.5677   -3.4462   20.5323 C   0  0  0  0  0  0  0  0  0  0  0  0
  1  8  1  0
  1 12  4  0
  1 14  4  0
  2  3  4  0
  2 18  4  0
  3 20  4  0
  3 22  4  0
  4 11  4  0
  4 21  4  0
  5  9  4  0
  5 16  4  0
  6 15  4  0
  6 16  4  0
  7 22  4  0
  7 26  4  0
  8 10  4  0
  8 25  4  0
  9 15  4  0
  9 17  1  0
 10 21  4  0
 11 25  4  0
 12 23  4  0
 13 20  4  0
 13 26  4  0
 14 19  4  0
 17 18  4  0
 17 24  4  0
 19 23  4  0
 20 24  4  0
 23 26  1  0
M  END
$$$$

 Created by Python create_sdf_string function

 26 30  0  0  0  0  0  0  0  0999 V2000
   10.0084   -1.8019   23.4945 C   0  0  0  0  0  0  0  0  0  0  0  0
   10.0005   -4.2520   16.5631 C   0  0  0  0  0  0  0  0  0  0  0  0
   10.2759   -4.0036   17.8845 C   0  0  0  0  0  0  0  0  0  0  0  0
    8.5652    1.5478   25.3778 N   0  0  0  0  0  0  0  0  0  0  0  0
    6.8048   -7.5457   17.8752 C   0  0  0  0  0  0  0  0  0  0  0  0
    6.1721   -8.2186   15.9886 N   0  0  0  0  0  0  0  0  0  0  0  0
   11.1764   -2.6600   19.5604 C   0  0  0  0  0  0  0  0  0  0  0  0
    9.5491   -0.6380   24.1912 C   0  0  0  0  0  0  0  0  0  0  0  0
    7.5337   -6.9256   16.9519 C   0  0  0  0  0  0  0  0  0  0  0  0
    9.6782    0.5671   23.5143 C   0  0  0  0  0  0  0  0  0  0  0  0
    8.4532    0.3482   26.0821 C   0  0  0  0  0  0  0  0  0  0  0  0
   10.4239   -1.7677   22.2230 N   0  0  0  0  0  0  0  0  0  0  0  0
    9.9468   -4.5953   20.1709 C   0  0  0  0  0  0  0  0  0  0  0  0
   10.0366   -3.0590   23.9864 N   0  0  0  0  0  0  0  0  0  0  0  0
    7.1191   -7.3636   15.7739 C   0  0  0  0  0  0  0  0  0  0  0  0
    5.9612   -8.3203   17.2732 N   0  0  0  0  0  0  0  0  0  0  0  0
    8.5296   -5.9814   17.1841 C   0  0  0  0  0  0  0  0  0  0  0  0
    9.1527   -5.2118   16.2116 C   0  0  0  0  0  0  0  0  0  0  0  0
   10.3364   -3.8368   22.9255 O   0  0  0  0  0  0  0  0  0  0  0  0
    9.6947   -4.8407   18.8534 C   0  0  0  0  0  0  0  0  0  0  0  0
    9.1596    1.7042   24.1381 C   0  0  0  0  0  0  0  0  0  0  0  0
   11.0456   -2.9774   18.2694 N   0  0  0  0  0  0  0  0  0  0  0  0
   10.4788   -3.0457   21.8593 C   0  0  0  0  0  0  0  0  0  0  0  0
    8.8693   -5.8099   18.4657 N   0  0  0  0  0  0  0  0  0  0  0  0
    8.9892   -0.7926   25.4573 C   0  0  0  0  0  0  0  0  0  0  0  0
   10.5677   -3.4462   20.5323 C   0  0  0  0  0  0  0  0  0  0  0  0
  1  8  1  0
  1 12  4  0
  1 14  4  0
  2  3  4  0
  2 18  4  0
  3 20  4  0
  3 22  4  0
  4 11  4  0
  4 21  4  0
  5  9  4  0
  5 16  4  0
  6 15  4  0
  6 16  4  0
  7 22  4  0
  7 26  4  0
  8 10  4  0
  8 25  4  0
  9 15  4  0
  9 17  1  0
 10 21  4  0
 11 25  4  0
 12 23  4  0
 13 20  4  0
 13 26  4  0
 14 19  4  0
 17 18  4  0
 17 24  4  0
 19 23  4  0
 20 24  4  0
 23 26  1  0
M  END
$$$$

 Created by Python create_sdf_string function

 26 30  0  0  0  0  0  0  0  0999 V2000
   10.0084   -1.8019   23.4945 C   0  0  0  0  0  0  0  0  0  0  0  0
   10.0005   -4.2520   16.5631 C   0  0  0  0  0  0  0  0  0  0  0  0
   10.2759   -4.0036   17.8845 C   0  0  0  0  0  0  0  0  0  0  0  0
    8.5652    1.5478   25.3778 N   0  0  0  0  0  0  0  0  0  0  0  0
    6.8048   -7.5457   17.8752 C   0  0  0  0  0  0  0  0  0  0  0  0
    6.1721   -8.2186   15.9886 N   0  0  0  0  0  0  0  0  0  0  0  0
   11.1764   -2.6600   19.5604 C   0  0  0  0  0  0  0  0  0  0  0  0
    9.5491   -0.6380   24.1912 C   0  0  0  0  0  0  0  0  0  0  0  0
    7.5337   -6.9256   16.9519 C   0  0  0  0  0  0  0  0  0  0  0  0
    9.6782    0.5671   23.5143 C   0  0  0  0  0  0  0  0  0  0  0  0
    8.4532    0.3482   26.0821 C   0  0  0  0  0  0  0  0  0  0  0  0
   10.4239   -1.7677   22.2230 N   0  0  0  0  0  0  0  0  0  0  0  0
    9.9468   -4.5953   20.1709 C   0  0  0  0  0  0  0  0  0  0  0  0
   10.0366   -3.0590   23.9864 N   0  0  0  0  0  0  0  0  0  0  0  0
    7.1191   -7.3636   15.7739 C   0  0  0  0  0  0  0  0  0  0  0  0
    5.9612   -8.3203   17.2732 N   0  0  0  0  0  0  0  0  0  0  0  0
    8.5296   -5.9814   17.1841 C   0  0  0  0  0  0  0  0  0  0  0  0
    9.1527   -5.2118   16.2116 C   0  0  0  0  0  0  0  0  0  0  0  0
   10.3364   -3.8368   22.9255 O   0  0  0  0  0  0  0  0  0  0  0  0
    9.6947   -4.8407   18.8534 C   0  0  0  0  0  0  0  0  0  0  0  0
    9.1596    1.7042   24.1381 C   0  0  0  0  0  0  0  0  0  0  0  0
   11.0456   -2.9774   18.2694 N   0  0  0  0  0  0  0  0  0  0  0  0
   10.4788   -3.0457   21.8593 C   0  0  0  0  0  0  0  0  0  0  0  0
    8.8693   -5.8099   18.4657 N   0  0  0  0  0  0  0  0  0  0  0  0
    8.9892   -0.7926   25.4573 C   0  0  0  0  0  0  0  0  0  0  0  0
   10.5677   -3.4462   20.5323 C   0  0  0  0  0  0  0  0  0  0  0  0
  1  8  1  0
  1 12  4  0
  1 14  4  0
  2  3  4  0
  2 18  4  0
  3 20  4  0
  3 22  4  0
  4 11  4  0
  4 21  4  0
  5  9  4  0
  5 16  4  0
  6 15  4  0
  6 16  4  0
  7 22  4  0
  7 26  4  0
  8 10  4  0
  8 25  4  0
  9 15  4  0
  9 17  1  0
 10 21  4  0
 11 25  4  0
 12 23  4  0
 13 20  4  0
 13 26  4  0
 14 19  4  0
 17 18  4  0
 17 24  4  0
 19 23  4  0
 20 24  4  0
 23 26  1  0
M  END
$$$$

 Created by Python create_sdf_string function

 26 30  0  0  0  0  0  0  0  0999 V2000
   10.0084   -1.8019   23.4945 C   0  0  0  0  0  0  0  0  0  0  0  0
   10.0005   -4.2520   16.5631 C   0  0  0  0  0  0  0  0  0  0  0  0
   10.2759   -4.0036   17.8845 C   0  0  0  0  0  0  0  0  0  0  0  0
    8.5652    1.5478   25.3778 N   0  0  0  0  0  0  0  0  0  0  0  0
    6.8048   -7.5457   17.8752 C   0  0  0  0  0  0  0  0  0  0  0  0
    6.1721   -8.2186   15.9886 N   0  0  0  0  0  0  0  0  0  0  0  0
   11.1764   -2.6600   19.5604 C   0  0  0  0  0  0  0  0  0  0  0  0
    9.5491   -0.6380   24.1912 C   0  0  0  0  0  0  0  0  0  0  0  0
    7.5337   -6.9256   16.9519 C   0  0  0  0  0  0  0  0  0  0  0  0
    9.6782    0.5671   23.5143 C   0  0  0  0  0  0  0  0  0  0  0  0
    8.4532    0.3482   26.0821 C   0  0  0  0  0  0  0  0  0  0  0  0
   10.4239   -1.7677   22.2230 N   0  0  0  0  0  0  0  0  0  0  0  0
    9.9468   -4.5953   20.1709 C   0  0  0  0  0  0  0  0  0  0  0  0
   10.0366   -3.0590   23.9864 N   0  0  0  0  0  0  0  0  0  0  0  0
    7.1191   -7.3636   15.7739 C   0  0  0  0  0  0  0  0  0  0  0  0
    5.9612   -8.3203   17.2732 N   0  0  0  0  0  0  0  0  0  0  0  0
    8.5296   -5.9814   17.1841 C   0  0  0  0  0  0  0  0  0  0  0  0
    9.1527   -5.2118   16.2116 C   0  0  0  0  0  0  0  0  0  0  0  0
   10.3364   -3.8368   22.9255 O   0  0  0  0  0  0  0  0  0  0  0  0
    9.6947   -4.8407   18.8534 C   0  0  0  0  0  0  0  0  0  0  0  0
    9.1596    1.7042   24.1381 C   0  0  0  0  0  0  0  0  0  0  0  0
   11.0456   -2.9774   18.2694 N   0  0  0  0  0  0  0  0  0  0  0  0
   10.4788   -3.0457   21.8593 C   0  0  0  0  0  0  0  0  0  0  0  0
    8.8693   -5.8099   18.4657 N   0  0  0  0  0  0  0  0  0  0  0  0
    8.9892   -0.7926   25.4573 C   0  0  0  0  0  0  0  0  0  0  0  0
   10.5677   -3.4462   20.5323 C   0  0  0  0  0  0  0  0  0  0  0  0
  1  8  1  0
  1 12  4  0
  1 14  4  0
  2  3  4  0
  2 18  4  0
  3 20  4  0
  3 22  4  0
  4 11  4  0
  4 21  4  0
  5  9  4  0
  5 16  4  0
  6 15  4  0
  6 16  4  0
  7 22  4  0
  7 26  4  0
  8 10  4  0
  8 25  4  0
  9 15  4  0
  9 17  1  0
 10 21  4  0
 11 25  4  0
 12 23  4  0
 13 20  4  0
 13 26  4  0
 14 19  4  0
 17 18  4  0
 17 24  4  0
 19 23  4  0
 20 24  4  0
 23 26  1  0
M  END
$$$$

 Created by Python create_sdf_string function

 26 30  0  0  0  0  0  0  0  0999 V2000
   10.0084   -1.8019   23.4945 C   0  0  0  0  0  0  0  0  0  0  0  0
   10.0005   -4.2520   16.5631 C   0  0  0  0  0  0  0  0  0  0  0  0
   10.2759   -4.0036   17.8845 C   0  0  0  0  0  0  0  0  0  0  0  0
    8.5652    1.5478   25.3778 N   0  0  0  0  0  0  0  0  0  0  0  0
    6.8048   -7.5457   17.8752 C   0  0  0  0  0  0  0  0  0  0  0  0
    6.1721   -8.2186   15.9886 N   0  0  0  0  0  0  0  0  0  0  0  0
   11.1764   -2.6600   19.5604 C   0  0  0  0  0  0  0  0  0  0  0  0
    9.5491   -0.6380   24.1912 C   0  0  0  0  0  0  0  0  0  0  0  0
    7.5337   -6.9256   16.9519 C   0  0  0  0  0  0  0  0  0  0  0  0
    9.6782    0.5671   23.5143 C   0  0  0  0  0  0  0  0  0  0  0  0
    8.4532    0.3482   26.0821 C   0  0  0  0  0  0  0  0  0  0  0  0
   10.4239   -1.7677   22.2230 N   0  0  0  0  0  0  0  0  0  0  0  0
    9.9468   -4.5953   20.1709 C   0  0  0  0  0  0  0  0  0  0  0  0
   10.0366   -3.0590   23.9864 N   0  0  0  0  0  0  0  0  0  0  0  0
    7.1191   -7.3636   15.7739 C   0  0  0  0  0  0  0  0  0  0  0  0
    5.9612   -8.3203   17.2732 N   0  0  0  0  0  0  0  0  0  0  0  0
    8.5296   -5.9814   17.1841 C   0  0  0  0  0  0  0  0  0  0  0  0
    9.1527   -5.2118   16.2116 C   0  0  0  0  0  0  0  0  0  0  0  0
   10.3364   -3.8368   22.9255 O   0  0  0  0  0  0  0  0  0  0  0  0
    9.6947   -4.8407   18.8534 C   0  0  0  0  0  0  0  0  0  0  0  0
    9.1596    1.7042   24.1381 C   0  0  0  0  0  0  0  0  0  0  0  0
   11.0456   -2.9774   18.2694 N   0  0  0  0  0  0  0  0  0  0  0  0
   10.4788   -3.0457   21.8593 C   0  0  0  0  0  0  0  0  0  0  0  0
    8.8693   -5.8099   18.4657 N   0  0  0  0  0  0  0  0  0  0  0  0
    8.9892   -0.7926   25.4573 C   0  0  0  0  0  0  0  0  0  0  0  0
   10.5677   -3.4462   20.5323 C   0  0  0  0  0  0  0  0  0  0  0  0
  1  8  1  0
  1 12  4  0
  1 14  4  0
  2  3  4  0
  2 18  4  0
  3 20  4  0
  3 22  4  0
  4 11  4  0
  4 21  4  0
  5  9  4  0
  5 16  4  0
  6 15  4  0
  6 16  4  0
  7 22  4  0
  7 26  4  0
  8 10  4  0
  8 25  4  0
  9 15  4  0
  9 17  1  0
 10 21  4  0
 11 25  4  0
 12 23  4  0
 13 20  4  0
 13 26  4  0
 14 19  4  0
 17 18  4  0
 17 24  4  0
 19 23  4  0
 20 24  4  0
 23 26  1  0
M  END
$$$$

 Created by Python create_sdf_string function

 26 30  0  0  0  0  0  0  0  0999 V2000
   10.0084   -1.8019   23.4945 C   0  0  0  0  0  0  0  0  0  0  0  0
   10.0005   -4.2520   16.5631 C   0  0  0  0  0  0  0  0  0  0  0  0
   10.2759   -4.0036   17.8845 C   0  0  0  0  0  0  0  0  0  0  0  0
    8.5652    1.5478   25.3778 N   0  0  0  0  0  0  0  0  0  0  0  0
    6.8048   -7.5457   17.8752 C   0  0  0  0  0  0  0  0  0  0  0  0
    6.1721   -8.2186   15.9886 N   0  0  0  0  0  0  0  0  0  0  0  0
   11.1764   -2.6600   19.5604 C   0  0  0  0  0  0  0  0  0  0  0  0
    9.5491   -0.6380   24.1912 C   0  0  0  0  0  0  0  0  0  0  0  0
    7.5337   -6.9256   16.9519 C   0  0  0  0  0  0  0  0  0  0  0  0
    9.6782    0.5671   23.5143 C   0  0  0  0  0  0  0  0  0  0  0  0
    8.4532    0.3482   26.0821 C   0  0  0  0  0  0  0  0  0  0  0  0
   10.4239   -1.7677   22.2230 N   0  0  0  0  0  0  0  0  0  0  0  0
    9.9468   -4.5953   20.1709 C   0  0  0  0  0  0  0  0  0  0  0  0
   10.0366   -3.0590   23.9864 N   0  0  0  0  0  0  0  0  0  0  0  0
    7.1191   -7.3636   15.7739 C   0  0  0  0  0  0  0  0  0  0  0  0
    5.9612   -8.3203   17.2732 N   0  0  0  0  0  0  0  0  0  0  0  0
    8.5296   -5.9814   17.1841 C   0  0  0  0  0  0  0  0  0  0  0  0
    9.1527   -5.2118   16.2116 C   0  0  0  0  0  0  0  0  0  0  0  0
   10.3364   -3.8368   22.9255 O   0  0  0  0  0  0  0  0  0  0  0  0
    9.6947   -4.8407   18.8534 C   0  0  0  0  0  0  0  0  0  0  0  0
    9.1596    1.7042   24.1381 C   0  0  0  0  0  0  0  0  0  0  0  0
   11.0456   -2.9774   18.2694 N   0  0  0  0  0  0  0  0  0  0  0  0
   10.4788   -3.0457   21.8593 C   0  0  0  0  0  0  0  0  0  0  0  0
    8.8693   -5.8099   18.4657 N   0  0  0  0  0  0  0  0  0  0  0  0
    8.9892   -0.7926   25.4573 C   0  0  0  0  0  0  0  0  0  0  0  0
   10.5677   -3.4462   20.5323 C   0  0  0  0  0  0  0  0  0  0  0  0
  1  8  1  0
  1 12  4  0
  1 14  4  0
  2  3  4  0
  2 18  4  0
  3 20  4  0
  3 22  4  0
  4 11  4  0
  4 21  4  0
  5  9  4  0
  5 16  4  0
  6 15  4  0
  6 16  4  0
  7 22  4  0
  7 26  4  0
  8 10  4  0
  8 25  4  0
  9 15  4  0
  9 17  1  0
 10 21  4  0
 11 25  4  0
 12 23  4  0
 13 20  4  0
 13 26  4  0
 14 19  4  0
 17 18  4  0
 17 24  4  0
 19 23  4  0
 20 24  4  0
 23 26  1  0
M  END
$$$$

 Created by Python create_sdf_string function

 26 30  0  0  0  0  0  0  0  0999 V2000
   10.0084   -1.8019   23.4945 C   0  0  0  0  0  0  0  0  0  0  0  0
   10.0005   -4.2520   16.5631 C   0  0  0  0  0  0  0  0  0  0  0  0
   10.2759   -4.0036   17.8845 C   0  0  0  0  0  0  0  0  0  0  0  0
    8.5652    1.5478   25.3778 N   0  0  0  0  0  0  0  0  0  0  0  0
    6.8048   -7.5457   17.8752 C   0  0  0  0  0  0  0  0  0  0  0  0
    6.1721   -8.2186   15.9886 N   0  0  0  0  0  0  0  0  0  0  0  0
   11.1764   -2.6600   19.5604 C   0  0  0  0  0  0  0  0  0  0  0  0
    9.5491   -0.6380   24.1912 C   0  0  0  0  0  0  0  0  0  0  0  0
    7.5337   -6.9256   16.9519 C   0  0  0  0  0  0  0  0  0  0  0  0
    9.6782    0.5671   23.5143 C   0  0  0  0  0  0  0  0  0  0  0  0
    8.4532    0.3482   26.0821 C   0  0  0  0  0  0  0  0  0  0  0  0
   10.4239   -1.7677   22.2230 N   0  0  0  0  0  0  0  0  0  0  0  0
    9.9468   -4.5953   20.1709 C   0  0  0  0  0  0  0  0  0  0  0  0
   10.0366   -3.0590   23.9864 N   0  0  0  0  0  0  0  0  0  0  0  0
    7.1191   -7.3636   15.7739 C   0  0  0  0  0  0  0  0  0  0  0  0
    5.9612   -8.3203   17.2732 N   0  0  0  0  0  0  0  0  0  0  0  0
    8.5296   -5.9814   17.1841 C   0  0  0  0  0  0  0  0  0  0  0  0
    9.1527   -5.2118   16.2116 C   0  0  0  0  0  0  0  0  0  0  0  0
   10.3364   -3.8368   22.9255 O   0  0  0  0  0  0  0  0  0  0  0  0
    9.6947   -4.8407   18.8534 C   0  0  0  0  0  0  0  0  0  0  0  0
    9.1596    1.7042   24.1381 C   0  0  0  0  0  0  0  0  0  0  0  0
   11.0456   -2.9774   18.2694 N   0  0  0  0  0  0  0  0  0  0  0  0
   10.4788   -3.0457   21.8593 C   0  0  0  0  0  0  0  0  0  0  0  0
    8.8693   -5.8099   18.4657 N   0  0  0  0  0  0  0  0  0  0  0  0
    8.9892   -0.7926   25.4573 C   0  0  0  0  0  0  0  0  0  0  0  0
   10.5677   -3.4462   20.5323 C   0  0  0  0  0  0  0  0  0  0  0  0
  1  8  1  0
  1 12  4  0
  1 14  4  0
  2  3  4  0
  2 18  4  0
  3 20  4  0
  3 22  4  0
  4 11  4  0
  4 21  4  0
  5  9  4  0
  5 16  4  0
  6 15  4  0
  6 16  4  0
  7 22  4  0
  7 26  4  0
  8 10  4  0
  8 25  4  0
  9 15  4  0
  9 17  1  0
 10 21  4  0
 11 25  4  0
 12 23  4  0
 13 20  4  0
 13 26  4  0
 14 19  4  0
 17 18  4  0
 17 24  4  0
 19 23  4  0
 20 24  4  0
 23 26  1  0
M  END
$$$$

 Created by Python create_sdf_string function

 26 30  0  0  0  0  0  0  0  0999 V2000
   10.0084   -1.8019   23.4945 C   0  0  0  0  0  0  0  0  0  0  0  0
   10.0005   -4.2520   16.5631 C   0  0  0  0  0  0  0  0  0  0  0  0
   10.2759   -4.0036   17.8845 C   0  0  0  0  0  0  0  0  0  0  0  0
    8.5652    1.5478   25.3778 N   0  0  0  0  0  0  0  0  0  0  0  0
    6.8048   -7.5457   17.8752 C   0  0  0  0  0  0  0  0  0  0  0  0
    6.1721   -8.2186   15.9886 N   0  0  0  0  0  0  0  0  0  0  0  0
   11.1764   -2.6600   19.5604 C   0  0  0  0  0  0  0  0  0  0  0  0
    9.5491   -0.6380   24.1912 C   0  0  0  0  0  0  0  0  0  0  0  0
    7.5337   -6.9256   16.9519 C   0  0  0  0  0  0  0  0  0  0  0  0
    9.6782    0.5671   23.5143 C   0  0  0  0  0  0  0  0  0  0  0  0
    8.4532    0.3482   26.0821 C   0  0  0  0  0  0  0  0  0  0  0  0
   10.4239   -1.7677   22.2230 N   0  0  0  0  0  0  0  0  0  0  0  0
    9.9468   -4.5953   20.1709 C   0  0  0  0  0  0  0  0  0  0  0  0
   10.0366   -3.0590   23.9864 N   0  0  0  0  0  0  0  0  0  0  0  0
    7.1191   -7.3636   15.7739 C   0  0  0  0  0  0  0  0  0  0  0  0
    5.9612   -8.3203   17.2732 N   0  0  0  0  0  0  0  0  0  0  0  0
    8.5296   -5.9814   17.1841 C   0  0  0  0  0  0  0  0  0  0  0  0
    9.1527   -5.2118   16.2116 C   0  0  0  0  0  0  0  0  0  0  0  0
   10.3364   -3.8368   22.9255 O   0  0  0  0  0  0  0  0  0  0  0  0
    9.6947   -4.8407   18.8534 C   0  0  0  0  0  0  0  0  0  0  0  0
    9.1596    1.7042   24.1381 C   0  0  0  0  0  0  0  0  0  0  0  0
   11.0456   -2.9774   18.2694 N   0  0  0  0  0  0  0  0  0  0  0  0
   10.4788   -3.0457   21.8593 C   0  0  0  0  0  0  0  0  0  0  0  0
    8.8693   -5.8099   18.4657 N   0  0  0  0  0  0  0  0  0  0  0  0
    8.9892   -0.7926   25.4573 C   0  0  0  0  0  0  0  0  0  0  0  0
   10.5677   -3.4462   20.5323 C   0  0  0  0  0  0  0  0  0  0  0  0
  1  8  1  0
  1 12  4  0
  1 14  4  0
  2  3  4  0
  2 18  4  0
  3 20  4  0
  3 22  4  0
  4 11  4  0
  4 21  4  0
  5  9  4  0
  5 16  4  0
  6 15  4  0
  6 16  4  0
  7 22  4  0
  7 26  4  0
  8 10  4  0
  8 25  4  0
  9 15  4  0
  9 17  1  0
 10 21  4  0
 11 25  4  0
 12 23  4  0
 13 20  4  0
 13 26  4  0
 14 19  4  0
 17 18  4  0
 17 24  4  0
 19 23  4  0
 20 24  4  0
 23 26  1  0
M  END
$$$$

 Created by Python create_sdf_string function

 26 30  0  0  0  0  0  0  0  0999 V2000
   10.0084   -1.8019   23.4945 C   0  0  0  0  0  0  0  0  0  0  0  0
   10.0005   -4.2520   16.5631 C   0  0  0  0  0  0  0  0  0  0  0  0
   10.2759   -4.0036   17.8845 C   0  0  0  0  0  0  0  0  0  0  0  0
    8.5652    1.5478   25.3778 N   0  0  0  0  0  0  0  0  0  0  0  0
    6.8048   -7.5457   17.8752 C   0  0  0  0  0  0  0  0  0  0  0  0
    6.1721   -8.2186   15.9886 N   0  0  0  0  0  0  0  0  0  0  0  0
   11.1764   -2.6600   19.5604 C   0  0  0  0  0  0  0  0  0  0  0  0
    9.5491   -0.6380   24.1912 C   0  0  0  0  0  0  0  0  0  0  0  0
    7.5337   -6.9256   16.9519 C   0  0  0  0  0  0  0  0  0  0  0  0
    9.6782    0.5671   23.5143 C   0  0  0  0  0  0  0  0  0  0  0  0
    8.4532    0.3482   26.0821 C   0  0  0  0  0  0  0  0  0  0  0  0
   10.4239   -1.7677   22.2230 N   0  0  0  0  0  0  0  0  0  0  0  0
    9.9468   -4.5953   20.1709 C   0  0  0  0  0  0  0  0  0  0  0  0
   10.0366   -3.0590   23.9864 N   0  0  0  0  0  0  0  0  0  0  0  0
    7.1191   -7.3636   15.7739 C   0  0  0  0  0  0  0  0  0  0  0  0
    5.9612   -8.3203   17.2732 N   0  0  0  0  0  0  0  0  0  0  0  0
    8.5296   -5.9814   17.1841 C   0  0  0  0  0  0  0  0  0  0  0  0
    9.1527   -5.2118   16.2116 C   0  0  0  0  0  0  0  0  0  0  0  0
   10.3364   -3.8368   22.9255 O   0  0  0  0  0  0  0  0  0  0  0  0
    9.6947   -4.8407   18.8534 C   0  0  0  0  0  0  0  0  0  0  0  0
    9.1596    1.7042   24.1381 C   0  0  0  0  0  0  0  0  0  0  0  0
   11.0456   -2.9774   18.2694 N   0  0  0  0  0  0  0  0  0  0  0  0
   10.4788   -3.0457   21.8593 C   0  0  0  0  0  0  0  0  0  0  0  0
    8.8693   -5.8099   18.4657 N   0  0  0  0  0  0  0  0  0  0  0  0
    8.9892   -0.7926   25.4573 C   0  0  0  0  0  0  0  0  0  0  0  0
   10.5677   -3.4462   20.5323 C   0  0  0  0  0  0  0  0  0  0  0  0
  1  8  1  0
  1 12  4  0
  1 14  4  0
  2  3  4  0
  2 18  4  0
  3 20  4  0
  3 22  4  0
  4 11  4  0
  4 21  4  0
  5  9  4  0
  5 16  4  0
  6 15  4  0
  6 16  4  0
  7 22  4  0
  7 26  4  0
  8 10  4  0
  8 25  4  0
  9 15  4  0
  9 17  1  0
 10 21  4  0
 11 25  4  0
 12 23  4  0
 13 20  4  0
 13 26  4  0
 14 19  4  0
 17 18  4  0
 17 24  4  0
 19 23  4  0
 20 24  4  0
 23 26  1  0
M  END
$$$$

 Created by Python create_sdf_string function

 26 30  0  0  0  0  0  0  0  0999 V2000
   10.0084   -1.8019   23.4945 C   0  0  0  0  0  0  0  0  0  0  0  0
   10.0005   -4.2520   16.5631 C   0  0  0  0  0  0  0  0  0  0  0  0
   10.2759   -4.0036   17.8845 C   0  0  0  0  0  0  0  0  0  0  0  0
    8.5652    1.5478   25.3778 N   0  0  0  0  0  0  0  0  0  0  0  0
    6.8048   -7.5457   17.8752 C   0  0  0  0  0  0  0  0  0  0  0  0
    6.1721   -8.2186   15.9886 N   0  0  0  0  0  0  0  0  0  0  0  0
   11.1764   -2.6600   19.5604 C   0  0  0  0  0  0  0  0  0  0  0  0
    9.5491   -0.6380   24.1912 C   0  0  0  0  0  0  0  0  0  0  0  0
    7.5337   -6.9256   16.9519 C   0  0  0  0  0  0  0  0  0  0  0  0
    9.6782    0.5671   23.5143 C   0  0  0  0  0  0  0  0  0  0  0  0
    8.4532    0.3482   26.0821 C   0  0  0  0  0  0  0  0  0  0  0  0
   10.4239   -1.7677   22.2230 N   0  0  0  0  0  0  0  0  0  0  0  0
    9.9468   -4.5953   20.1709 C   0  0  0  0  0  0  0  0  0  0  0  0
   10.0366   -3.0590   23.9864 N   0  0  0  0  0  0  0  0  0  0  0  0
    7.1191   -7.3636   15.7739 C   0  0  0  0  0  0  0  0  0  0  0  0
    5.9612   -8.3203   17.2732 N   0  0  0  0  0  0  0  0  0  0  0  0
    8.5296   -5.9814   17.1841 C   0  0  0  0  0  0  0  0  0  0  0  0
    9.1527   -5.2118   16.2116 C   0  0  0  0  0  0  0  0  0  0  0  0
   10.3364   -3.8368   22.9255 O   0  0  0  0  0  0  0  0  0  0  0  0
    9.6947   -4.8407   18.8534 C   0  0  0  0  0  0  0  0  0  0  0  0
    9.1596    1.7042   24.1381 C   0  0  0  0  0  0  0  0  0  0  0  0
   11.0456   -2.9774   18.2694 N   0  0  0  0  0  0  0  0  0  0  0  0
   10.4788   -3.0457   21.8593 C   0  0  0  0  0  0  0  0  0  0  0  0
    8.8693   -5.8099   18.4657 N   0  0  0  0  0  0  0  0  0  0  0  0
    8.9892   -0.7926   25.4573 C   0  0  0  0  0  0  0  0  0  0  0  0
   10.5677   -3.4462   20.5323 C   0  0  0  0  0  0  0  0  0  0  0  0
  1  8  1  0
  1 12  4  0
  1 14  4  0
  2  3  4  0
  2 18  4  0
  3 20  4  0
  3 22  4  0
  4 11  4  0
  4 21  4  0
  5  9  4  0
  5 16  4  0
  6 15  4  0
  6 16  4  0
  7 22  4  0
  7 26  4  0
  8 10  4  0
  8 25  4  0
  9 15  4  0
  9 17  1  0
 10 21  4  0
 11 25  4  0
 12 23  4  0
 13 20  4  0
 13 26  4  0
 14 19  4  0
 17 18  4  0
 17 24  4  0
 19 23  4  0
 20 24  4  0
 23 26  1  0
M  END
$$$$

 Created by Python create_sdf_string function

 26 30  0  0  0  0  0  0  0  0999 V2000
   10.0084   -1.8019   23.4945 C   0  0  0  0  0  0  0  0  0  0  0  0
   10.0005   -4.2520   16.5631 C   0  0  0  0  0  0  0  0  0  0  0  0
   10.2759   -4.0036   17.8845 C   0  0  0  0  0  0  0  0  0  0  0  0
    8.5652    1.5478   25.3778 N   0  0  0  0  0  0  0  0  0  0  0  0
    6.8048   -7.5457   17.8752 C   0  0  0  0  0  0  0  0  0  0  0  0
    6.1721   -8.2186   15.9886 N   0  0  0  0  0  0  0  0  0  0  0  0
   11.1764   -2.6600   19.5604 C   0  0  0  0  0  0  0  0  0  0  0  0
    9.5491   -0.6380   24.1912 C   0  0  0  0  0  0  0  0  0  0  0  0
    7.5337   -6.9256   16.9519 C   0  0  0  0  0  0  0  0  0  0  0  0
    9.6782    0.5671   23.5143 C   0  0  0  0  0  0  0  0  0  0  0  0
    8.4532    0.3482   26.0821 C   0  0  0  0  0  0  0  0  0  0  0  0
   10.4239   -1.7677   22.2230 N   0  0  0  0  0  0  0  0  0  0  0  0
    9.9468   -4.5953   20.1709 C   0  0  0  0  0  0  0  0  0  0  0  0
   10.0366   -3.0590   23.9864 N   0  0  0  0  0  0  0  0  0  0  0  0
    7.1191   -7.3636   15.7739 C   0  0  0  0  0  0  0  0  0  0  0  0
    5.9612   -8.3203   17.2732 N   0  0  0  0  0  0  0  0  0  0  0  0
    8.5296   -5.9814   17.1841 C   0  0  0  0  0  0  0  0  0  0  0  0
    9.1527   -5.2118   16.2116 C   0  0  0  0  0  0  0  0  0  0  0  0
   10.3364   -3.8368   22.9255 O   0  0  0  0  0  0  0  0  0  0  0  0
    9.6947   -4.8407   18.8534 C   0  0  0  0  0  0  0  0  0  0  0  0
    9.1596    1.7042   24.1381 C   0  0  0  0  0  0  0  0  0  0  0  0
   11.0456   -2.9774   18.2694 N   0  0  0  0  0  0  0  0  0  0  0  0
   10.4788   -3.0457   21.8593 C   0  0  0  0  0  0  0  0  0  0  0  0
    8.8693   -5.8099   18.4657 N   0  0  0  0  0  0  0  0  0  0  0  0
    8.9892   -0.7926   25.4573 C   0  0  0  0  0  0  0  0  0  0  0  0
   10.5677   -3.4462   20.5323 C   0  0  0  0  0  0  0  0  0  0  0  0
  1  8  1  0
  1 12  4  0
  1 14  4  0
  2  3  4  0
  2 18  4  0
  3 20  4  0
  3 22  4  0
  4 11  4  0
  4 21  4  0
  5  9  4  0
  5 16  4  0
  6 15  4  0
  6 16  4  0
  7 22  4  0
  7 26  4  0
  8 10  4  0
  8 25  4  0
  9 15  4  0
  9 17  1  0
 10 21  4  0
 11 25  4  0
 12 23  4  0
 13 20  4  0
 13 26  4  0
 14 19  4  0
 17 18  4  0
 17 24  4  0
 19 23  4  0
 20 24  4  0
 23 26  1  0
M  END
$$$$

 Created by Python create_sdf_string function

 26 30  0  0  0  0  0  0  0  0999 V2000
   10.0084   -1.8019   23.4945 C   0  0  0  0  0  0  0  0  0  0  0  0
   10.0005   -4.2520   16.5631 C   0  0  0  0  0  0  0  0  0  0  0  0
   10.2759   -4.0036   17.8845 C   0  0  0  0  0  0  0  0  0  0  0  0
    8.5652    1.5478   25.3778 N   0  0  0  0  0  0  0  0  0  0  0  0
    6.8048   -7.5457   17.8752 C   0  0  0  0  0  0  0  0  0  0  0  0
    6.1721   -8.2186   15.9886 N   0  0  0  0  0  0  0  0  0  0  0  0
   11.1764   -2.6600   19.5604 C   0  0  0  0  0  0  0  0  0  0  0  0
    9.5491   -0.6380   24.1912 C   0  0  0  0  0  0  0  0  0  0  0  0
    7.5337   -6.9256   16.9519 C   0  0  0  0  0  0  0  0  0  0  0  0
    9.6782    0.5671   23.5143 C   0  0  0  0  0  0  0  0  0  0  0  0
    8.4532    0.3482   26.0821 C   0  0  0  0  0  0  0  0  0  0  0  0
   10.4239   -1.7677   22.2230 N   0  0  0  0  0  0  0  0  0  0  0  0
    9.9468   -4.5953   20.1709 C   0  0  0  0  0  0  0  0  0  0  0  0
   10.0366   -3.0590   23.9864 N   0  0  0  0  0  0  0  0  0  0  0  0
    7.1191   -7.3636   15.7739 C   0  0  0  0  0  0  0  0  0  0  0  0
    5.9612   -8.3203   17.2732 N   0  0  0  0  0  0  0  0  0  0  0  0
    8.5296   -5.9814   17.1841 C   0  0  0  0  0  0  0  0  0  0  0  0
    9.1527   -5.2118   16.2116 C   0  0  0  0  0  0  0  0  0  0  0  0
   10.3364   -3.8368   22.9255 O   0  0  0  0  0  0  0  0  0  0  0  0
    9.6947   -4.8407   18.8534 C   0  0  0  0  0  0  0  0  0  0  0  0
    9.1596    1.7042   24.1381 C   0  0  0  0  0  0  0  0  0  0  0  0
   11.0456   -2.9774   18.2694 N   0  0  0  0  0  0  0  0  0  0  0  0
   10.4788   -3.0457   21.8593 C   0  0  0  0  0  0  0  0  0  0  0  0
    8.8693   -5.8099   18.4657 N   0  0  0  0  0  0  0  0  0  0  0  0
    8.9892   -0.7926   25.4573 C   0  0  0  0  0  0  0  0  0  0  0  0
   10.5677   -3.4462   20.5323 C   0  0  0  0  0  0  0  0  0  0  0  0
  1  8  1  0
  1 12  4  0
  1 14  4  0
  2  3  4  0
  2 18  4  0
  3 20  4  0
  3 22  4  0
  4 11  4  0
  4 21  4  0
  5  9  4  0
  5 16  4  0
  6 15  4  0
  6 16  4  0
  7 22  4  0
  7 26  4  0
  8 10  4  0
  8 25  4  0
  9 15  4  0
  9 17  1  0
 10 21  4  0
 11 25  4  0
 12 23  4  0
 13 20  4  0
 13 26  4  0
 14 19  4  0
 17 18  4  0
 17 24  4  0
 19 23  4  0
 20 24  4  0
 23 26  1  0
M  END
$$$$

 Created by Python create_sdf_string function

 26 30  0  0  0  0  0  0  0  0999 V2000
   10.0084   -1.8019   23.4945 C   0  0  0  0  0  0  0  0  0  0  0  0
   10.0005   -4.2520   16.5631 C   0  0  0  0  0  0  0  0  0  0  0  0
   10.2759   -4.0036   17.8845 C   0  0  0  0  0  0  0  0  0  0  0  0
    8.5652    1.5478   25.3778 N   0  0  0  0  0  0  0  0  0  0  0  0
    6.8048   -7.5457   17.8752 C   0  0  0  0  0  0  0  0  0  0  0  0
    6.1721   -8.2186   15.9886 N   0  0  0  0  0  0  0  0  0  0  0  0
   11.1764   -2.6600   19.5604 C   0  0  0  0  0  0  0  0  0  0  0  0
    9.5491   -0.6380   24.1912 C   0  0  0  0  0  0  0  0  0  0  0  0
    7.5337   -6.9256   16.9519 C   0  0  0  0  0  0  0  0  0  0  0  0
    9.6782    0.5671   23.5143 C   0  0  0  0  0  0  0  0  0  0  0  0
    8.4532    0.3482   26.0821 C   0  0  0  0  0  0  0  0  0  0  0  0
   10.4239   -1.7677   22.2230 N   0  0  0  0  0  0  0  0  0  0  0  0
    9.9468   -4.5953   20.1709 C   0  0  0  0  0  0  0  0  0  0  0  0
   10.0366   -3.0590   23.9864 N   0  0  0  0  0  0  0  0  0  0  0  0
    7.1191   -7.3636   15.7739 C   0  0  0  0  0  0  0  0  0  0  0  0
    5.9612   -8.3203   17.2732 N   0  0  0  0  0  0  0  0  0  0  0  0
    8.5296   -5.9814   17.1841 C   0  0  0  0  0  0  0  0  0  0  0  0
    9.1527   -5.2118   16.2116 C   0  0  0  0  0  0  0  0  0  0  0  0
   10.3364   -3.8368   22.9255 O   0  0  0  0  0  0  0  0  0  0  0  0
    9.6947   -4.8407   18.8534 C   0  0  0  0  0  0  0  0  0  0  0  0
    9.1596    1.7042   24.1381 C   0  0  0  0  0  0  0  0  0  0  0  0
   11.0456   -2.9774   18.2694 N   0  0  0  0  0  0  0  0  0  0  0  0
   10.4788   -3.0457   21.8593 C   0  0  0  0  0  0  0  0  0  0  0  0
    8.8693   -5.8099   18.4657 N   0  0  0  0  0  0  0  0  0  0  0  0
    8.9892   -0.7926   25.4573 C   0  0  0  0  0  0  0  0  0  0  0  0
   10.5677   -3.4462   20.5323 C   0  0  0  0  0  0  0  0  0  0  0  0
  1  8  1  0
  1 12  4  0
  1 14  4  0
  2  3  4  0
  2 18  4  0
  3 20  4  0
  3 22  4  0
  4 11  4  0
  4 21  4  0
  5  9  4  0
  5 16  4  0
  6 15  4  0
  6 16  4  0
  7 22  4  0
  7 26  4  0
  8 10  4  0
  8 25  4  0
  9 15  4  0
  9 17  1  0
 10 21  4  0
 11 25  4  0
 12 23  4  0
 13 20  4  0
 13 26  4  0
 14 19  4  0
 17 18  4  0
 17 24  4  0
 19 23  4  0
 20 24  4  0
 23 26  1  0
M  END
$$$$

 Created by Python create_sdf_string function

 26 30  0  0  0  0  0  0  0  0999 V2000
   10.0084   -1.8019   23.4945 C   0  0  0  0  0  0  0  0  0  0  0  0
   10.0005   -4.2520   16.5631 C   0  0  0  0  0  0  0  0  0  0  0  0
   10.2759   -4.0036   17.8845 C   0  0  0  0  0  0  0  0  0  0  0  0
    8.5652    1.5478   25.3778 N   0  0  0  0  0  0  0  0  0  0  0  0
    6.8048   -7.5457   17.8752 C   0  0  0  0  0  0  0  0  0  0  0  0
    6.1721   -8.2186   15.9886 N   0  0  0  0  0  0  0  0  0  0  0  0
   11.1764   -2.6600   19.5604 C   0  0  0  0  0  0  0  0  0  0  0  0
    9.5491   -0.6380   24.1912 C   0  0  0  0  0  0  0  0  0  0  0  0
    7.5337   -6.9256   16.9519 C   0  0  0  0  0  0  0  0  0  0  0  0
    9.6782    0.5671   23.5143 C   0  0  0  0  0  0  0  0  0  0  0  0
    8.4532    0.3482   26.0821 C   0  0  0  0  0  0  0  0  0  0  0  0
   10.4239   -1.7677   22.2230 N   0  0  0  0  0  0  0  0  0  0  0  0
    9.9468   -4.5953   20.1709 C   0  0  0  0  0  0  0  0  0  0  0  0
   10.0366   -3.0590   23.9864 N   0  0  0  0  0  0  0  0  0  0  0  0
    7.1191   -7.3636   15.7739 C   0  0  0  0  0  0  0  0  0  0  0  0
    5.9612   -8.3203   17.2732 N   0  0  0  0  0  0  0  0  0  0  0  0
    8.5296   -5.9814   17.1841 C   0  0  0  0  0  0  0  0  0  0  0  0
    9.1527   -5.2118   16.2116 C   0  0  0  0  0  0  0  0  0  0  0  0
   10.3364   -3.8368   22.9255 O   0  0  0  0  0  0  0  0  0  0  0  0
    9.6947   -4.8407   18.8534 C   0  0  0  0  0  0  0  0  0  0  0  0
    9.1596    1.7042   24.1381 C   0  0  0  0  0  0  0  0  0  0  0  0
   11.0456   -2.9774   18.2694 N   0  0  0  0  0  0  0  0  0  0  0  0
   10.4788   -3.0457   21.8593 C   0  0  0  0  0  0  0  0  0  0  0  0
    8.8693   -5.8099   18.4657 N   0  0  0  0  0  0  0  0  0  0  0  0
    8.9892   -0.7926   25.4573 C   0  0  0  0  0  0  0  0  0  0  0  0
   10.5677   -3.4462   20.5323 C   0  0  0  0  0  0  0  0  0  0  0  0
  1  8  1  0
  1 12  4  0
  1 14  4  0
  2  3  4  0
  2 18  4  0
  3 20  4  0
  3 22  4  0
  4 11  4  0
  4 21  4  0
  5  9  4  0
  5 16  4  0
  6 15  4  0
  6 16  4  0
  7 22  4  0
  7 26  4  0
  8 10  4  0
  8 25  4  0
  9 15  4  0
  9 17  1  0
 10 21  4  0
 11 25  4  0
 12 23  4  0
 13 20  4  0
 13 26  4  0
 14 19  4  0
 17 18  4  0
 17 24  4  0
 19 23  4  0
 20 24  4  0
 23 26  1  0
M  END
$$$$

 Created by Python create_sdf_string function

 26 30  0  0  0  0  0  0  0  0999 V2000
   10.0084   -1.8019   23.4945 C   0  0  0  0  0  0  0  0  0  0  0  0
   10.0005   -4.2520   16.5631 C   0  0  0  0  0  0  0  0  0  0  0  0
   10.2759   -4.0036   17.8845 C   0  0  0  0  0  0  0  0  0  0  0  0
    8.5652    1.5478   25.3778 N   0  0  0  0  0  0  0  0  0  0  0  0
    6.8048   -7.5457   17.8752 C   0  0  0  0  0  0  0  0  0  0  0  0
    6.1721   -8.2186   15.9886 N   0  0  0  0  0  0  0  0  0  0  0  0
   11.1764   -2.6600   19.5604 C   0  0  0  0  0  0  0  0  0  0  0  0
    9.5491   -0.6380   24.1912 C   0  0  0  0  0  0  0  0  0  0  0  0
    7.5337   -6.9256   16.9519 C   0  0  0  0  0  0  0  0  0  0  0  0
    9.6782    0.5671   23.5143 C   0  0  0  0  0  0  0  0  0  0  0  0
    8.4532    0.3482   26.0821 C   0  0  0  0  0  0  0  0  0  0  0  0
   10.4239   -1.7677   22.2230 N   0  0  0  0  0  0  0  0  0  0  0  0
    9.9468   -4.5953   20.1709 C   0  0  0  0  0  0  0  0  0  0  0  0
   10.0366   -3.0590   23.9864 N   0  0  0  0  0  0  0  0  0  0  0  0
    7.1191   -7.3636   15.7739 C   0  0  0  0  0  0  0  0  0  0  0  0
    5.9612   -8.3203   17.2732 N   0  0  0  0  0  0  0  0  0  0  0  0
    8.5296   -5.9814   17.1841 C   0  0  0  0  0  0  0  0  0  0  0  0
    9.1527   -5.2118   16.2116 C   0  0  0  0  0  0  0  0  0  0  0  0
   10.3364   -3.8368   22.9255 O   0  0  0  0  0  0  0  0  0  0  0  0
    9.6947   -4.8407   18.8534 C   0  0  0  0  0  0  0  0  0  0  0  0
    9.1596    1.7042   24.1381 C   0  0  0  0  0  0  0  0  0  0  0  0
   11.0456   -2.9774   18.2694 N   0  0  0  0  0  0  0  0  0  0  0  0
   10.4788   -3.0457   21.8593 C   0  0  0  0  0  0  0  0  0  0  0  0
    8.8693   -5.8099   18.4657 N   0  0  0  0  0  0  0  0  0  0  0  0
    8.9892   -0.7926   25.4573 C   0  0  0  0  0  0  0  0  0  0  0  0
   10.5677   -3.4462   20.5323 C   0  0  0  0  0  0  0  0  0  0  0  0
  1  8  1  0
  1 12  4  0
  1 14  4  0
  2  3  4  0
  2 18  4  0
  3 20  4  0
  3 22  4  0
  4 11  4  0
  4 21  4  0
  5  9  4  0
  5 16  4  0
  6 15  4  0
  6 16  4  0
  7 22  4  0
  7 26  4  0
  8 10  4  0
  8 25  4  0
  9 15  4  0
  9 17  1  0
 10 21  4  0
 11 25  4  0
 12 23  4  0
 13 20  4  0
 13 26  4  0
 14 19  4  0
 17 18  4  0
 17 24  4  0
 19 23  4  0
 20 24  4  0
 23 26  1  0
M  END
$$$$

 Created by Python create_sdf_string function

 26 30  0  0  0  0  0  0  0  0999 V2000
   10.0084   -1.8019   23.4945 C   0  0  0  0  0  0  0  0  0  0  0  0
   10.0005   -4.2520   16.5631 C   0  0  0  0  0  0  0  0  0  0  0  0
   10.2759   -4.0036   17.8845 C   0  0  0  0  0  0  0  0  0  0  0  0
    8.5652    1.5478   25.3778 N   0  0  0  0  0  0  0  0  0  0  0  0
    6.8048   -7.5457   17.8752 C   0  0  0  0  0  0  0  0  0  0  0  0
    6.1721   -8.2186   15.9886 N   0  0  0  0  0  0  0  0  0  0  0  0
   11.1764   -2.6600   19.5604 C   0  0  0  0  0  0  0  0  0  0  0  0
    9.5491   -0.6380   24.1912 C   0  0  0  0  0  0  0  0  0  0  0  0
    7.5337   -6.9256   16.9519 C   0  0  0  0  0  0  0  0  0  0  0  0
    9.6782    0.5671   23.5143 C   0  0  0  0  0  0  0  0  0  0  0  0
    8.4532    0.3482   26.0821 C   0  0  0  0  0  0  0  0  0  0  0  0
   10.4239   -1.7677   22.2230 N   0  0  0  0  0  0  0  0  0  0  0  0
    9.9468   -4.5953   20.1709 C   0  0  0  0  0  0  0  0  0  0  0  0
   10.0366   -3.0590   23.9864 N   0  0  0  0  0  0  0  0  0  0  0  0
    7.1191   -7.3636   15.7739 C   0  0  0  0  0  0  0  0  0  0  0  0
    5.9612   -8.3203   17.2732 N   0  0  0  0  0  0  0  0  0  0  0  0
    8.5296   -5.9814   17.1841 C   0  0  0  0  0  0  0  0  0  0  0  0
    9.1527   -5.2118   16.2116 C   0  0  0  0  0  0  0  0  0  0  0  0
   10.3364   -3.8368   22.9255 O   0  0  0  0  0  0  0  0  0  0  0  0
    9.6947   -4.8407   18.8534 C   0  0  0  0  0  0  0  0  0  0  0  0
    9.1596    1.7042   24.1381 C   0  0  0  0  0  0  0  0  0  0  0  0
   11.0456   -2.9774   18.2694 N   0  0  0  0  0  0  0  0  0  0  0  0
   10.4788   -3.0457   21.8593 C   0  0  0  0  0  0  0  0  0  0  0  0
    8.8693   -5.8099   18.4657 N   0  0  0  0  0  0  0  0  0  0  0  0
    8.9892   -0.7926   25.4573 C   0  0  0  0  0  0  0  0  0  0  0  0
   10.5677   -3.4462   20.5323 C   0  0  0  0  0  0  0  0  0  0  0  0
  1  8  1  0
  1 12  4  0
  1 14  4  0
  2  3  4  0
  2 18  4  0
  3 20  4  0
  3 22  4  0
  4 11  4  0
  4 21  4  0
  5  9  4  0
  5 16  4  0
  6 15  4  0
  6 16  4  0
  7 22  4  0
  7 26  4  0
  8 10  4  0
  8 25  4  0
  9 15  4  0
  9 17  1  0
 10 21  4  0
 11 25  4  0
 12 23  4  0
 13 20  4  0
 13 26  4  0
 14 19  4  0
 17 18  4  0
 17 24  4  0
 19 23  4  0
 20 24  4  0
 23 26  1  0
M  END
$$$$

 Created by Python create_sdf_string function

 26 30  0  0  0  0  0  0  0  0999 V2000
   10.0084   -1.8019   23.4945 C   0  0  0  0  0  0  0  0  0  0  0  0
   10.0005   -4.2520   16.5631 C   0  0  0  0  0  0  0  0  0  0  0  0
   10.2759   -4.0036   17.8845 C   0  0  0  0  0  0  0  0  0  0  0  0
    8.5652    1.5478   25.3778 N   0  0  0  0  0  0  0  0  0  0  0  0
    6.8048   -7.5457   17.8752 C   0  0  0  0  0  0  0  0  0  0  0  0
    6.1721   -8.2186   15.9886 N   0  0  0  0  0  0  0  0  0  0  0  0
   11.1764   -2.6600   19.5604 C   0  0  0  0  0  0  0  0  0  0  0  0
    9.5491   -0.6380   24.1912 C   0  0  0  0  0  0  0  0  0  0  0  0
    7.5337   -6.9256   16.9519 C   0  0  0  0  0  0  0  0  0  0  0  0
    9.6782    0.5671   23.5143 C   0  0  0  0  0  0  0  0  0  0  0  0
    8.4532    0.3482   26.0821 C   0  0  0  0  0  0  0  0  0  0  0  0
   10.4239   -1.7677   22.2230 N   0  0  0  0  0  0  0  0  0  0  0  0
    9.9468   -4.5953   20.1709 C   0  0  0  0  0  0  0  0  0  0  0  0
   10.0366   -3.0590   23.9864 N   0  0  0  0  0  0  0  0  0  0  0  0
    7.1191   -7.3636   15.7739 C   0  0  0  0  0  0  0  0  0  0  0  0
    5.9612   -8.3203   17.2732 N   0  0  0  0  0  0  0  0  0  0  0  0
    8.5296   -5.9814   17.1841 C   0  0  0  0  0  0  0  0  0  0  0  0
    9.1527   -5.2118   16.2116 C   0  0  0  0  0  0  0  0  0  0  0  0
   10.3364   -3.8368   22.9255 O   0  0  0  0  0  0  0  0  0  0  0  0
    9.6947   -4.8407   18.8534 C   0  0  0  0  0  0  0  0  0  0  0  0
    9.1596    1.7042   24.1381 C   0  0  0  0  0  0  0  0  0  0  0  0
   11.0456   -2.9774   18.2694 N   0  0  0  0  0  0  0  0  0  0  0  0
   10.4788   -3.0457   21.8593 C   0  0  0  0  0  0  0  0  0  0  0  0
    8.8693   -5.8099   18.4657 N   0  0  0  0  0  0  0  0  0  0  0  0
    8.9892   -0.7926   25.4573 C   0  0  0  0  0  0  0  0  0  0  0  0
   10.5677   -3.4462   20.5323 C   0  0  0  0  0  0  0  0  0  0  0  0
  1  8  1  0
  1 12  4  0
  1 14  4  0
  2  3  4  0
  2 18  4  0
  3 20  4  0
  3 22  4  0
  4 11  4  0
  4 21  4  0
  5  9  4  0
  5 16  4  0
  6 15  4  0
  6 16  4  0
  7 22  4  0
  7 26  4  0
  8 10  4  0
  8 25  4  0
  9 15  4  0
  9 17  1  0
 10 21  4  0
 11 25  4  0
 12 23  4  0
 13 20  4  0
 13 26  4  0
 14 19  4  0
 17 18  4  0
 17 24  4  0
 19 23  4  0
 20 24  4  0
 23 26  1  0
M  END
$$$$

 Created by Python create_sdf_string function

 26 30  0  0  0  0  0  0  0  0999 V2000
   10.0084   -1.8019   23.4945 C   0  0  0  0  0  0  0  0  0  0  0  0
   10.0005   -4.2520   16.5631 C   0  0  0  0  0  0  0  0  0  0  0  0
   10.2759   -4.0036   17.8845 C   0  0  0  0  0  0  0  0  0  0  0  0
    8.5652    1.5478   25.3778 N   0  0  0  0  0  0  0  0  0  0  0  0
    6.8048   -7.5457   17.8752 C   0  0  0  0  0  0  0  0  0  0  0  0
    6.1721   -8.2186   15.9886 N   0  0  0  0  0  0  0  0  0  0  0  0
   11.1764   -2.6600   19.5604 C   0  0  0  0  0  0  0  0  0  0  0  0
    9.5491   -0.6380   24.1912 C   0  0  0  0  0  0  0  0  0  0  0  0
    7.5337   -6.9256   16.9519 C   0  0  0  0  0  0  0  0  0  0  0  0
    9.6782    0.5671   23.5143 C   0  0  0  0  0  0  0  0  0  0  0  0
    8.4532    0.3482   26.0821 C   0  0  0  0  0  0  0  0  0  0  0  0
   10.4239   -1.7677   22.2230 N   0  0  0  0  0  0  0  0  0  0  0  0
    9.9468   -4.5953   20.1709 C   0  0  0  0  0  0  0  0  0  0  0  0
   10.0366   -3.0590   23.9864 N   0  0  0  0  0  0  0  0  0  0  0  0
    7.1191   -7.3636   15.7739 C   0  0  0  0  0  0  0  0  0  0  0  0
    5.9612   -8.3203   17.2732 N   0  0  0  0  0  0  0  0  0  0  0  0
    8.5296   -5.9814   17.1841 C   0  0  0  0  0  0  0  0  0  0  0  0
    9.1527   -5.2118   16.2116 C   0  0  0  0  0  0  0  0  0  0  0  0
   10.3364   -3.8368   22.9255 O   0  0  0  0  0  0  0  0  0  0  0  0
    9.6947   -4.8407   18.8534 C   0  0  0  0  0  0  0  0  0  0  0  0
    9.1596    1.7042   24.1381 C   0  0  0  0  0  0  0  0  0  0  0  0
   11.0456   -2.9774   18.2694 N   0  0  0  0  0  0  0  0  0  0  0  0
   10.4788   -3.0457   21.8593 C   0  0  0  0  0  0  0  0  0  0  0  0
    8.8693   -5.8099   18.4657 N   0  0  0  0  0  0  0  0  0  0  0  0
    8.9892   -0.7926   25.4573 C   0  0  0  0  0  0  0  0  0  0  0  0
   10.5677   -3.4462   20.5323 C   0  0  0  0  0  0  0  0  0  0  0  0
  1  8  1  0
  1 12  4  0
  1 14  4  0
  2  3  4  0
  2 18  4  0
  3 20  4  0
  3 22  4  0
  4 11  4  0
  4 21  4  0
  5  9  4  0
  5 16  4  0
  6 15  4  0
  6 16  4  0
  7 22  4  0
  7 26  4  0
  8 10  4  0
  8 25  4  0
  9 15  4  0
  9 17  1  0
 10 21  4  0
 11 25  4  0
 12 23  4  0
 13 20  4  0
 13 26  4  0
 14 19  4  0
 17 18  4  0
 17 24  4  0
 19 23  4  0
 20 24  4  0
 23 26  1  0
M  END
$$$$

 Created by Python create_sdf_string function

 26 30  0  0  0  0  0  0  0  0999 V2000
   10.0084   -1.8019   23.4945 C   0  0  0  0  0  0  0  0  0  0  0  0
   10.0005   -4.2520   16.5631 C   0  0  0  0  0  0  0  0  0  0  0  0
   10.2759   -4.0036   17.8845 C   0  0  0  0  0  0  0  0  0  0  0  0
    8.5652    1.5478   25.3778 N   0  0  0  0  0  0  0  0  0  0  0  0
    6.8048   -7.5457   17.8752 C   0  0  0  0  0  0  0  0  0  0  0  0
    6.1721   -8.2186   15.9886 N   0  0  0  0  0  0  0  0  0  0  0  0
   11.1764   -2.6600   19.5604 C   0  0  0  0  0  0  0  0  0  0  0  0
    9.5491   -0.6380   24.1912 C   0  0  0  0  0  0  0  0  0  0  0  0
    7.5337   -6.9256   16.9519 C   0  0  0  0  0  0  0  0  0  0  0  0
    9.6782    0.5671   23.5143 C   0  0  0  0  0  0  0  0  0  0  0  0
    8.4532    0.3482   26.0821 C   0  0  0  0  0  0  0  0  0  0  0  0
   10.4239   -1.7677   22.2230 N   0  0  0  0  0  0  0  0  0  0  0  0
    9.9468   -4.5953   20.1709 C   0  0  0  0  0  0  0  0  0  0  0  0
   10.0366   -3.0590   23.9864 N   0  0  0  0  0  0  0  0  0  0  0  0
    7.1191   -7.3636   15.7739 C   0  0  0  0  0  0  0  0  0  0  0  0
    5.9612   -8.3203   17.2732 N   0  0  0  0  0  0  0  0  0  0  0  0
    8.5296   -5.9814   17.1841 C   0  0  0  0  0  0  0  0  0  0  0  0
    9.1527   -5.2118   16.2116 C   0  0  0  0  0  0  0  0  0  0  0  0
   10.3364   -3.8368   22.9255 O   0  0  0  0  0  0  0  0  0  0  0  0
    9.6947   -4.8407   18.8534 C   0  0  0  0  0  0  0  0  0  0  0  0
    9.1596    1.7042   24.1381 C   0  0  0  0  0  0  0  0  0  0  0  0
   11.0456   -2.9774   18.2694 N   0  0  0  0  0  0  0  0  0  0  0  0
   10.4788   -3.0457   21.8593 C   0  0  0  0  0  0  0  0  0  0  0  0
    8.8693   -5.8099   18.4657 N   0  0  0  0  0  0  0  0  0  0  0  0
    8.9892   -0.7926   25.4573 C   0  0  0  0  0  0  0  0  0  0  0  0
   10.5677   -3.4462   20.5323 C   0  0  0  0  0  0  0  0  0  0  0  0
  1  8  1  0
  1 12  4  0
  1 14  4  0
  2  3  4  0
  2 18  4  0
  3 20  4  0
  3 22  4  0
  4 11  4  0
  4 21  4  0
  5  9  4  0
  5 16  4  0
  6 15  4  0
  6 16  4  0
  7 22  4  0
  7 26  4  0
  8 10  4  0
  8 25  4  0
  9 15  4  0
  9 17  1  0
 10 21  4  0
 11 25  4  0
 12 23  4  0
 13 20  4  0
 13 26  4  0
 14 19  4  0
 17 18  4  0
 17 24  4  0
 19 23  4  0
 20 24  4  0
 23 26  1  0
M  END
$$$$

 Created by Python create_sdf_string function

 26 30  0  0  0  0  0  0  0  0999 V2000
   10.0084   -1.8019   23.4945 C   0  0  0  0  0  0  0  0  0  0  0  0
   10.0005   -4.2520   16.5631 C   0  0  0  0  0  0  0  0  0  0  0  0
   10.2759   -4.0036   17.8845 C   0  0  0  0  0  0  0  0  0  0  0  0
    8.5652    1.5478   25.3778 N   0  0  0  0  0  0  0  0  0  0  0  0
    6.8048   -7.5457   17.8752 C   0  0  0  0  0  0  0  0  0  0  0  0
    6.1721   -8.2186   15.9886 N   0  0  0  0  0  0  0  0  0  0  0  0
   11.1764   -2.6600   19.5604 C   0  0  0  0  0  0  0  0  0  0  0  0
    9.5491   -0.6380   24.1912 C   0  0  0  0  0  0  0  0  0  0  0  0
    7.5337   -6.9256   16.9519 C   0  0  0  0  0  0  0  0  0  0  0  0
    9.6782    0.5671   23.5143 C   0  0  0  0  0  0  0  0  0  0  0  0
    8.4532    0.3482   26.0821 C   0  0  0  0  0  0  0  0  0  0  0  0
   10.4239   -1.7677   22.2230 N   0  0  0  0  0  0  0  0  0  0  0  0
    9.9468   -4.5953   20.1709 C   0  0  0  0  0  0  0  0  0  0  0  0
   10.0366   -3.0590   23.9864 N   0  0  0  0  0  0  0  0  0  0  0  0
    7.1191   -7.3636   15.7739 C   0  0  0  0  0  0  0  0  0  0  0  0
    5.9612   -8.3203   17.2732 N   0  0  0  0  0  0  0  0  0  0  0  0
    8.5296   -5.9814   17.1841 C   0  0  0  0  0  0  0  0  0  0  0  0
    9.1527   -5.2118   16.2116 C   0  0  0  0  0  0  0  0  0  0  0  0
   10.3364   -3.8368   22.9255 O   0  0  0  0  0  0  0  0  0  0  0  0
    9.6947   -4.8407   18.8534 C   0  0  0  0  0  0  0  0  0  0  0  0
    9.1596    1.7042   24.1381 C   0  0  0  0  0  0  0  0  0  0  0  0
   11.0456   -2.9774   18.2694 N   0  0  0  0  0  0  0  0  0  0  0  0
   10.4788   -3.0457   21.8593 C   0  0  0  0  0  0  0  0  0  0  0  0
    8.8693   -5.8099   18.4657 N   0  0  0  0  0  0  0  0  0  0  0  0
    8.9892   -0.7926   25.4573 C   0  0  0  0  0  0  0  0  0  0  0  0
   10.5677   -3.4462   20.5323 C   0  0  0  0  0  0  0  0  0  0  0  0
  1  8  1  0
  1 12  4  0
  1 14  4  0
  2  3  4  0
  2 18  4  0
  3 20  4  0
  3 22  4  0
  4 11  4  0
  4 21  4  0
  5  9  4  0
  5 16  4  0
  6 15  4  0
  6 16  4  0
  7 22  4  0
  7 26  4  0
  8 10  4  0
  8 25  4  0
  9 15  4  0
  9 17  1  0
 10 21  4  0
 11 25  4  0
 12 23  4  0
 13 20  4  0
 13 26  4  0
 14 19  4  0
 17 18  4  0
 17 24  4  0
 19 23  4  0
 20 24  4  0
 23 26  1  0
M  END
$$$$

 Created by Python create_sdf_string function

 26 30  0  0  0  0  0  0  0  0999 V2000
   10.0084   -1.8019   23.4945 C   0  0  0  0  0  0  0  0  0  0  0  0
   10.0005   -4.2520   16.5631 C   0  0  0  0  0  0  0  0  0  0  0  0
   10.2759   -4.0036   17.8845 C   0  0  0  0  0  0  0  0  0  0  0  0
    8.5652    1.5478   25.3778 N   0  0  0  0  0  0  0  0  0  0  0  0
    6.8048   -7.5457   17.8752 C   0  0  0  0  0  0  0  0  0  0  0  0
    6.1721   -8.2186   15.9886 N   0  0  0  0  0  0  0  0  0  0  0  0
   11.1764   -2.6600   19.5604 C   0  0  0  0  0  0  0  0  0  0  0  0
    9.5491   -0.6380   24.1912 C   0  0  0  0  0  0  0  0  0  0  0  0
    7.5337   -6.9256   16.9519 C   0  0  0  0  0  0  0  0  0  0  0  0
    9.6782    0.5671   23.5143 C   0  0  0  0  0  0  0  0  0  0  0  0
    8.4532    0.3482   26.0821 C   0  0  0  0  0  0  0  0  0  0  0  0
   10.4239   -1.7677   22.2230 N   0  0  0  0  0  0  0  0  0  0  0  0
    9.9468   -4.5953   20.1709 C   0  0  0  0  0  0  0  0  0  0  0  0
   10.0366   -3.0590   23.9864 N   0  0  0  0  0  0  0  0  0  0  0  0
    7.1191   -7.3636   15.7739 C   0  0  0  0  0  0  0  0  0  0  0  0
    5.9612   -8.3203   17.2732 N   0  0  0  0  0  0  0  0  0  0  0  0
    8.5296   -5.9814   17.1841 C   0  0  0  0  0  0  0  0  0  0  0  0
    9.1527   -5.2118   16.2116 C   0  0  0  0  0  0  0  0  0  0  0  0
   10.3364   -3.8368   22.9255 O   0  0  0  0  0  0  0  0  0  0  0  0
    9.6947   -4.8407   18.8534 C   0  0  0  0  0  0  0  0  0  0  0  0
    9.1596    1.7042   24.1381 C   0  0  0  0  0  0  0  0  0  0  0  0
   11.0456   -2.9774   18.2694 N   0  0  0  0  0  0  0  0  0  0  0  0
   10.4788   -3.0457   21.8593 C   0  0  0  0  0  0  0  0  0  0  0  0
    8.8693   -5.8099   18.4657 N   0  0  0  0  0  0  0  0  0  0  0  0
    8.9892   -0.7926   25.4573 C   0  0  0  0  0  0  0  0  0  0  0  0
   10.5677   -3.4462   20.5323 C   0  0  0  0  0  0  0  0  0  0  0  0
  1  8  1  0
  1 12  4  0
  1 14  4  0
  2  3  4  0
  2 18  4  0
  3 20  4  0
  3 22  4  0
  4 11  4  0
  4 21  4  0
  5  9  4  0
  5 16  4  0
  6 15  4  0
  6 16  4  0
  7 22  4  0
  7 26  4  0
  8 10  4  0
  8 25  4  0
  9 15  4  0
  9 17  1  0
 10 21  4  0
 11 25  4  0
 12 23  4  0
 13 20  4  0
 13 26  4  0
 14 19  4  0
 17 18  4  0
 17 24  4  0
 19 23  4  0
 20 24  4  0
 23 26  1  0
M  END
$$$$

 Created by Python create_sdf_string function

 26 30  0  0  0  0  0  0  0  0999 V2000
   10.0084   -1.8019   23.4945 C   0  0  0  0  0  0  0  0  0  0  0  0
   10.0005   -4.2520   16.5631 C   0  0  0  0  0  0  0  0  0  0  0  0
   10.2759   -4.0036   17.8845 C   0  0  0  0  0  0  0  0  0  0  0  0
    8.5652    1.5478   25.3778 N   0  0  0  0  0  0  0  0  0  0  0  0
    6.8048   -7.5457   17.8752 C   0  0  0  0  0  0  0  0  0  0  0  0
    6.1721   -8.2186   15.9886 N   0  0  0  0  0  0  0  0  0  0  0  0
   11.1764   -2.6600   19.5604 C   0  0  0  0  0  0  0  0  0  0  0  0
    9.5491   -0.6380   24.1912 C   0  0  0  0  0  0  0  0  0  0  0  0
    7.5337   -6.9256   16.9519 C   0  0  0  0  0  0  0  0  0  0  0  0
    9.6782    0.5671   23.5143 C   0  0  0  0  0  0  0  0  0  0  0  0
    8.4532    0.3482   26.0821 C   0  0  0  0  0  0  0  0  0  0  0  0
   10.4239   -1.7677   22.2230 N   0  0  0  0  0  0  0  0  0  0  0  0
    9.9468   -4.5953   20.1709 C   0  0  0  0  0  0  0  0  0  0  0  0
   10.0366   -3.0590   23.9864 N   0  0  0  0  0  0  0  0  0  0  0  0
    7.1191   -7.3636   15.7739 C   0  0  0  0  0  0  0  0  0  0  0  0
    5.9612   -8.3203   17.2732 N   0  0  0  0  0  0  0  0  0  0  0  0
    8.5296   -5.9814   17.1841 C   0  0  0  0  0  0  0  0  0  0  0  0
    9.1527   -5.2118   16.2116 C   0  0  0  0  0  0  0  0  0  0  0  0
   10.3364   -3.8368   22.9255 O   0  0  0  0  0  0  0  0  0  0  0  0
    9.6947   -4.8407   18.8534 C   0  0  0  0  0  0  0  0  0  0  0  0
    9.1596    1.7042   24.1381 C   0  0  0  0  0  0  0  0  0  0  0  0
   11.0456   -2.9774   18.2694 N   0  0  0  0  0  0  0  0  0  0  0  0
   10.4788   -3.0457   21.8593 C   0  0  0  0  0  0  0  0  0  0  0  0
    8.8693   -5.8099   18.4657 N   0  0  0  0  0  0  0  0  0  0  0  0
    8.9892   -0.7926   25.4573 C   0  0  0  0  0  0  0  0  0  0  0  0
   10.5677   -3.4462   20.5323 C   0  0  0  0  0  0  0  0  0  0  0  0
  1  8  1  0
  1 12  4  0
  1 14  4  0
  2  3  4  0
  2 18  4  0
  3 20  4  0
  3 22  4  0
  4 11  4  0
  4 21  4  0
  5  9  4  0
  5 16  4  0
  6 15  4  0
  6 16  4  0
  7 22  4  0
  7 26  4  0
  8 10  4  0
  8 25  4  0
  9 15  4  0
  9 17  1  0
 10 21  4  0
 11 25  4  0
 12 23  4  0
 13 20  4  0
 13 26  4  0
 14 19  4  0
 17 18  4  0
 17 24  4  0
 19 23  4  0
 20 24  4  0
 23 26  1  0
M  END
$$$$

 Created by Python create_sdf_string function

 26 30  0  0  0  0  0  0  0  0999 V2000
   10.0084   -1.8019   23.4945 C   0  0  0  0  0  0  0  0  0  0  0  0
   10.0005   -4.2520   16.5631 C   0  0  0  0  0  0  0  0  0  0  0  0
   10.2759   -4.0036   17.8845 C   0  0  0  0  0  0  0  0  0  0  0  0
    8.5652    1.5478   25.3778 N   0  0  0  0  0  0  0  0  0  0  0  0
    6.8048   -7.5457   17.8752 C   0  0  0  0  0  0  0  0  0  0  0  0
    6.1721   -8.2186   15.9886 N   0  0  0  0  0  0  0  0  0  0  0  0
   11.1764   -2.6600   19.5604 C   0  0  0  0  0  0  0  0  0  0  0  0
    9.5491   -0.6380   24.1912 C   0  0  0  0  0  0  0  0  0  0  0  0
    7.5337   -6.9256   16.9519 C   0  0  0  0  0  0  0  0  0  0  0  0
    9.6782    0.5671   23.5143 C   0  0  0  0  0  0  0  0  0  0  0  0
    8.4532    0.3482   26.0821 C   0  0  0  0  0  0  0  0  0  0  0  0
   10.4239   -1.7677   22.2230 N   0  0  0  0  0  0  0  0  0  0  0  0
    9.9468   -4.5953   20.1709 C   0  0  0  0  0  0  0  0  0  0  0  0
   10.0366   -3.0590   23.9864 N   0  0  0  0  0  0  0  0  0  0  0  0
    7.1191   -7.3636   15.7739 C   0  0  0  0  0  0  0  0  0  0  0  0
    5.9612   -8.3203   17.2732 N   0  0  0  0  0  0  0  0  0  0  0  0
    8.5296   -5.9814   17.1841 C   0  0  0  0  0  0  0  0  0  0  0  0
    9.1527   -5.2118   16.2116 C   0  0  0  0  0  0  0  0  0  0  0  0
   10.3364   -3.8368   22.9255 O   0  0  0  0  0  0  0  0  0  0  0  0
    9.6947   -4.8407   18.8534 C   0  0  0  0  0  0  0  0  0  0  0  0
    9.1596    1.7042   24.1381 C   0  0  0  0  0  0  0  0  0  0  0  0
   11.0456   -2.9774   18.2694 N   0  0  0  0  0  0  0  0  0  0  0  0
   10.4788   -3.0457   21.8593 C   0  0  0  0  0  0  0  0  0  0  0  0
    8.8693   -5.8099   18.4657 N   0  0  0  0  0  0  0  0  0  0  0  0
    8.9892   -0.7926   25.4573 C   0  0  0  0  0  0  0  0  0  0  0  0
   10.5677   -3.4462   20.5323 C   0  0  0  0  0  0  0  0  0  0  0  0
  1  8  1  0
  1 12  4  0
  1 14  4  0
  2  3  4  0
  2 18  4  0
  3 20  4  0
  3 22  4  0
  4 11  4  0
  4 21  4  0
  5  9  4  0
  5 16  4  0
  6 15  4  0
  6 16  4  0
  7 22  4  0
  7 26  4  0
  8 10  4  0
  8 25  4  0
  9 15  4  0
  9 17  1  0
 10 21  4  0
 11 25  4  0
 12 23  4  0
 13 20  4  0
 13 26  4  0
 14 19  4  0
 17 18  4  0
 17 24  4  0
 19 23  4  0
 20 24  4  0
 23 26  1  0
M  END
$$$$

 Created by Python create_sdf_string function

 26 30  0  0  0  0  0  0  0  0999 V2000
   10.0084   -1.8019   23.4945 C   0  0  0  0  0  0  0  0  0  0  0  0
   10.0005   -4.2520   16.5631 C   0  0  0  0  0  0  0  0  0  0  0  0
   10.2759   -4.0036   17.8845 C   0  0  0  0  0  0  0  0  0  0  0  0
    8.5652    1.5478   25.3778 N   0  0  0  0  0  0  0  0  0  0  0  0
    6.8048   -7.5457   17.8752 C   0  0  0  0  0  0  0  0  0  0  0  0
    6.1721   -8.2186   15.9886 N   0  0  0  0  0  0  0  0  0  0  0  0
   11.1764   -2.6600   19.5604 C   0  0  0  0  0  0  0  0  0  0  0  0
    9.5491   -0.6380   24.1912 C   0  0  0  0  0  0  0  0  0  0  0  0
    7.5337   -6.9256   16.9519 C   0  0  0  0  0  0  0  0  0  0  0  0
    9.6782    0.5671   23.5143 C   0  0  0  0  0  0  0  0  0  0  0  0
    8.4532    0.3482   26.0821 C   0  0  0  0  0  0  0  0  0  0  0  0
   10.4239   -1.7677   22.2230 N   0  0  0  0  0  0  0  0  0  0  0  0
    9.9468   -4.5953   20.1709 C   0  0  0  0  0  0  0  0  0  0  0  0
   10.0366   -3.0590   23.9864 N   0  0  0  0  0  0  0  0  0  0  0  0
    7.1191   -7.3636   15.7739 C   0  0  0  0  0  0  0  0  0  0  0  0
    5.9612   -8.3203   17.2732 N   0  0  0  0  0  0  0  0  0  0  0  0
    8.5296   -5.9814   17.1841 C   0  0  0  0  0  0  0  0  0  0  0  0
    9.1527   -5.2118   16.2116 C   0  0  0  0  0  0  0  0  0  0  0  0
   10.3364   -3.8368   22.9255 O   0  0  0  0  0  0  0  0  0  0  0  0
    9.6947   -4.8407   18.8534 C   0  0  0  0  0  0  0  0  0  0  0  0
    9.1596    1.7042   24.1381 C   0  0  0  0  0  0  0  0  0  0  0  0
   11.0456   -2.9774   18.2694 N   0  0  0  0  0  0  0  0  0  0  0  0
   10.4788   -3.0457   21.8593 C   0  0  0  0  0  0  0  0  0  0  0  0
    8.8693   -5.8099   18.4657 N   0  0  0  0  0  0  0  0  0  0  0  0
    8.9892   -0.7926   25.4573 C   0  0  0  0  0  0  0  0  0  0  0  0
   10.5677   -3.4462   20.5323 C   0  0  0  0  0  0  0  0  0  0  0  0
  1  8  1  0
  1 12  4  0
  1 14  4  0
  2  3  4  0
  2 18  4  0
  3 20  4  0
  3 22  4  0
  4 11  4  0
  4 21  4  0
  5  9  4  0
  5 16  4  0
  6 15  4  0
  6 16  4  0
  7 22  4  0
  7 26  4  0
  8 10  4  0
  8 25  4  0
  9 15  4  0
  9 17  1  0
 10 21  4  0
 11 25  4  0
 12 23  4  0
 13 20  4  0
 13 26  4  0
 14 19  4  0
 17 18  4  0
 17 24  4  0
 19 23  4  0
 20 24  4  0
 23 26  1  0
M  END
$$$$

 Created by Python create_sdf_string function

 26 30  0  0  0  0  0  0  0  0999 V2000
   10.0084   -1.8019   23.4945 C   0  0  0  0  0  0  0  0  0  0  0  0
   10.0005   -4.2520   16.5631 C   0  0  0  0  0  0  0  0  0  0  0  0
   10.2759   -4.0036   17.8845 C   0  0  0  0  0  0  0  0  0  0  0  0
    8.5652    1.5478   25.3778 N   0  0  0  0  0  0  0  0  0  0  0  0
    6.8048   -7.5457   17.8752 C   0  0  0  0  0  0  0  0  0  0  0  0
    6.1721   -8.2186   15.9886 N   0  0  0  0  0  0  0  0  0  0  0  0
   11.1764   -2.6600   19.5604 C   0  0  0  0  0  0  0  0  0  0  0  0
    9.5491   -0.6380   24.1912 C   0  0  0  0  0  0  0  0  0  0  0  0
    7.5337   -6.9256   16.9519 C   0  0  0  0  0  0  0  0  0  0  0  0
    9.6782    0.5671   23.5143 C   0  0  0  0  0  0  0  0  0  0  0  0
    8.4532    0.3482   26.0821 C   0  0  0  0  0  0  0  0  0  0  0  0
   10.4239   -1.7677   22.2230 N   0  0  0  0  0  0  0  0  0  0  0  0
    9.9468   -4.5953   20.1709 C   0  0  0  0  0  0  0  0  0  0  0  0
   10.0366   -3.0590   23.9864 N   0  0  0  0  0  0  0  0  0  0  0  0
    7.1191   -7.3636   15.7739 C   0  0  0  0  0  0  0  0  0  0  0  0
    5.9612   -8.3203   17.2732 N   0  0  0  0  0  0  0  0  0  0  0  0
    8.5296   -5.9814   17.1841 C   0  0  0  0  0  0  0  0  0  0  0  0
    9.1527   -5.2118   16.2116 C   0  0  0  0  0  0  0  0  0  0  0  0
   10.3364   -3.8368   22.9255 O   0  0  0  0  0  0  0  0  0  0  0  0
    9.6947   -4.8407   18.8534 C   0  0  0  0  0  0  0  0  0  0  0  0
    9.1596    1.7042   24.1381 C   0  0  0  0  0  0  0  0  0  0  0  0
   11.0456   -2.9774   18.2694 N   0  0  0  0  0  0  0  0  0  0  0  0
   10.4788   -3.0457   21.8593 C   0  0  0  0  0  0  0  0  0  0  0  0
    8.8693   -5.8099   18.4657 N   0  0  0  0  0  0  0  0  0  0  0  0
    8.9892   -0.7926   25.4573 C   0  0  0  0  0  0  0  0  0  0  0  0
   10.5677   -3.4462   20.5323 C   0  0  0  0  0  0  0  0  0  0  0  0
  1  8  1  0
  1 12  4  0
  1 14  4  0
  2  3  4  0
  2 18  4  0
  3 20  4  0
  3 22  4  0
  4 11  4  0
  4 21  4  0
  5  9  4  0
  5 16  4  0
  6 15  4  0
  6 16  4  0
  7 22  4  0
  7 26  4  0
  8 10  4  0
  8 25  4  0
  9 15  4  0
  9 17  1  0
 10 21  4  0
 11 25  4  0
 12 23  4  0
 13 20  4  0
 13 26  4  0
 14 19  4  0
 17 18  4  0
 17 24  4  0
 19 23  4  0
 20 24  4  0
 23 26  1  0
M  END
$$$$

 Created by Python create_sdf_string function

 26 30  0  0  0  0  0  0  0  0999 V2000
   10.0084   -1.8019   23.4945 C   0  0  0  0  0  0  0  0  0  0  0  0
   10.0005   -4.2520   16.5631 C   0  0  0  0  0  0  0  0  0  0  0  0
   10.2759   -4.0036   17.8845 C   0  0  0  0  0  0  0  0  0  0  0  0
    8.5652    1.5478   25.3778 N   0  0  0  0  0  0  0  0  0  0  0  0
    6.8048   -7.5457   17.8752 C   0  0  0  0  0  0  0  0  0  0  0  0
    6.1721   -8.2186   15.9886 N   0  0  0  0  0  0  0  0  0  0  0  0
   11.1764   -2.6600   19.5604 C   0  0  0  0  0  0  0  0  0  0  0  0
    9.5491   -0.6380   24.1912 C   0  0  0  0  0  0  0  0  0  0  0  0
    7.5337   -6.9256   16.9519 C   0  0  0  0  0  0  0  0  0  0  0  0
    9.6782    0.5671   23.5143 C   0  0  0  0  0  0  0  0  0  0  0  0
    8.4532    0.3482   26.0821 C   0  0  0  0  0  0  0  0  0  0  0  0
   10.4239   -1.7677   22.2230 N   0  0  0  0  0  0  0  0  0  0  0  0
    9.9468   -4.5953   20.1709 C   0  0  0  0  0  0  0  0  0  0  0  0
   10.0366   -3.0590   23.9864 N   0  0  0  0  0  0  0  0  0  0  0  0
    7.1191   -7.3636   15.7739 C   0  0  0  0  0  0  0  0  0  0  0  0
    5.9612   -8.3203   17.2732 N   0  0  0  0  0  0  0  0  0  0  0  0
    8.5296   -5.9814   17.1841 C   0  0  0  0  0  0  0  0  0  0  0  0
    9.1527   -5.2118   16.2116 C   0  0  0  0  0  0  0  0  0  0  0  0
   10.3364   -3.8368   22.9255 O   0  0  0  0  0  0  0  0  0  0  0  0
    9.6947   -4.8407   18.8534 C   0  0  0  0  0  0  0  0  0  0  0  0
    9.1596    1.7042   24.1381 C   0  0  0  0  0  0  0  0  0  0  0  0
   11.0456   -2.9774   18.2694 N   0  0  0  0  0  0  0  0  0  0  0  0
   10.4788   -3.0457   21.8593 C   0  0  0  0  0  0  0  0  0  0  0  0
    8.8693   -5.8099   18.4657 N   0  0  0  0  0  0  0  0  0  0  0  0
    8.9892   -0.7926   25.4573 C   0  0  0  0  0  0  0  0  0  0  0  0
   10.5677   -3.4462   20.5323 C   0  0  0  0  0  0  0  0  0  0  0  0
  1  8  1  0
  1 12  4  0
  1 14  4  0
  2  3  4  0
  2 18  4  0
  3 20  4  0
  3 22  4  0
  4 11  4  0
  4 21  4  0
  5  9  4  0
  5 16  4  0
  6 15  4  0
  6 16  4  0
  7 22  4  0
  7 26  4  0
  8 10  4  0
  8 25  4  0
  9 15  4  0
  9 17  1  0
 10 21  4  0
 11 25  4  0
 12 23  4  0
 13 20  4  0
 13 26  4  0
 14 19  4  0
 17 18  4  0
 17 24  4  0
 19 23  4  0
 20 24  4  0
 23 26  1  0
M  END
$$$$

 Created by Python create_sdf_string function

 26 30  0  0  0  0  0  0  0  0999 V2000
   10.0084   -1.8019   23.4945 C   0  0  0  0  0  0  0  0  0  0  0  0
   10.0005   -4.2520   16.5631 C   0  0  0  0  0  0  0  0  0  0  0  0
   10.2759   -4.0036   17.8845 C   0  0  0  0  0  0  0  0  0  0  0  0
    8.5652    1.5478   25.3778 N   0  0  0  0  0  0  0  0  0  0  0  0
    6.8048   -7.5457   17.8752 C   0  0  0  0  0  0  0  0  0  0  0  0
    6.1721   -8.2186   15.9886 N   0  0  0  0  0  0  0  0  0  0  0  0
   11.1764   -2.6600   19.5604 C   0  0  0  0  0  0  0  0  0  0  0  0
    9.5491   -0.6380   24.1912 C   0  0  0  0  0  0  0  0  0  0  0  0
    7.5337   -6.9256   16.9519 C   0  0  0  0  0  0  0  0  0  0  0  0
    9.6782    0.5671   23.5143 C   0  0  0  0  0  0  0  0  0  0  0  0
    8.4532    0.3482   26.0821 C   0  0  0  0  0  0  0  0  0  0  0  0
   10.4239   -1.7677   22.2230 N   0  0  0  0  0  0  0  0  0  0  0  0
    9.9468   -4.5953   20.1709 C   0  0  0  0  0  0  0  0  0  0  0  0
   10.0366   -3.0590   23.9864 N   0  0  0  0  0  0  0  0  0  0  0  0
    7.1191   -7.3636   15.7739 C   0  0  0  0  0  0  0  0  0  0  0  0
    5.9612   -8.3203   17.2732 N   0  0  0  0  0  0  0  0  0  0  0  0
    8.5296   -5.9814   17.1841 C   0  0  0  0  0  0  0  0  0  0  0  0
    9.1527   -5.2118   16.2116 C   0  0  0  0  0  0  0  0  0  0  0  0
   10.3364   -3.8368   22.9255 O   0  0  0  0  0  0  0  0  0  0  0  0
    9.6947   -4.8407   18.8534 C   0  0  0  0  0  0  0  0  0  0  0  0
    9.1596    1.7042   24.1381 C   0  0  0  0  0  0  0  0  0  0  0  0
   11.0456   -2.9774   18.2694 N   0  0  0  0  0  0  0  0  0  0  0  0
   10.4788   -3.0457   21.8593 C   0  0  0  0  0  0  0  0  0  0  0  0
    8.8693   -5.8099   18.4657 N   0  0  0  0  0  0  0  0  0  0  0  0
    8.9892   -0.7926   25.4573 C   0  0  0  0  0  0  0  0  0  0  0  0
   10.5677   -3.4462   20.5323 C   0  0  0  0  0  0  0  0  0  0  0  0
  1  8  1  0
  1 12  4  0
  1 14  4  0
  2  3  4  0
  2 18  4  0
  3 20  4  0
  3 22  4  0
  4 11  4  0
  4 21  4  0
  5  9  4  0
  5 16  4  0
  6 15  4  0
  6 16  4  0
  7 22  4  0
  7 26  4  0
  8 10  4  0
  8 25  4  0
  9 15  4  0
  9 17  1  0
 10 21  4  0
 11 25  4  0
 12 23  4  0
 13 20  4  0
 13 26  4  0
 14 19  4  0
 17 18  4  0
 17 24  4  0
 19 23  4  0
 20 24  4  0
 23 26  1  0
M  END
$$$$

 Created by Python create_sdf_string function

 26 30  0  0  0  0  0  0  0  0999 V2000
   10.0084   -1.8019   23.4945 C   0  0  0  0  0  0  0  0  0  0  0  0
   10.0005   -4.2520   16.5631 C   0  0  0  0  0  0  0  0  0  0  0  0
   10.2759   -4.0036   17.8845 C   0  0  0  0  0  0  0  0  0  0  0  0
    8.5652    1.5478   25.3778 N   0  0  0  0  0  0  0  0  0  0  0  0
    6.8048   -7.5457   17.8752 C   0  0  0  0  0  0  0  0  0  0  0  0
    6.1721   -8.2186   15.9886 N   0  0  0  0  0  0  0  0  0  0  0  0
   11.1764   -2.6600   19.5604 C   0  0  0  0  0  0  0  0  0  0  0  0
    9.5491   -0.6380   24.1912 C   0  0  0  0  0  0  0  0  0  0  0  0
    7.5337   -6.9256   16.9519 C   0  0  0  0  0  0  0  0  0  0  0  0
    9.6782    0.5671   23.5143 C   0  0  0  0  0  0  0  0  0  0  0  0
    8.4532    0.3482   26.0821 C   0  0  0  0  0  0  0  0  0  0  0  0
   10.4239   -1.7677   22.2230 N   0  0  0  0  0  0  0  0  0  0  0  0
    9.9468   -4.5953   20.1709 C   0  0  0  0  0  0  0  0  0  0  0  0
   10.0366   -3.0590   23.9864 N   0  0  0  0  0  0  0  0  0  0  0  0
    7.1191   -7.3636   15.7739 C   0  0  0  0  0  0  0  0  0  0  0  0
    5.9612   -8.3203   17.2732 N   0  0  0  0  0  0  0  0  0  0  0  0
    8.5296   -5.9814   17.1841 C   0  0  0  0  0  0  0  0  0  0  0  0
    9.1527   -5.2118   16.2116 C   0  0  0  0  0  0  0  0  0  0  0  0
   10.3364   -3.8368   22.9255 O   0  0  0  0  0  0  0  0  0  0  0  0
    9.6947   -4.8407   18.8534 C   0  0  0  0  0  0  0  0  0  0  0  0
    9.1596    1.7042   24.1381 C   0  0  0  0  0  0  0  0  0  0  0  0
   11.0456   -2.9774   18.2694 N   0  0  0  0  0  0  0  0  0  0  0  0
   10.4788   -3.0457   21.8593 C   0  0  0  0  0  0  0  0  0  0  0  0
    8.8693   -5.8099   18.4657 N   0  0  0  0  0  0  0  0  0  0  0  0
    8.9892   -0.7926   25.4573 C   0  0  0  0  0  0  0  0  0  0  0  0
   10.5677   -3.4462   20.5323 C   0  0  0  0  0  0  0  0  0  0  0  0
  1  8  1  0
  1 12  4  0
  1 14  4  0
  2  3  4  0
  2 18  4  0
  3 20  4  0
  3 22  4  0
  4 11  4  0
  4 21  4  0
  5  9  4  0
  5 16  4  0
  6 15  4  0
  6 16  4  0
  7 22  4  0
  7 26  4  0
  8 10  4  0
  8 25  4  0
  9 15  4  0
  9 17  1  0
 10 21  4  0
 11 25  4  0
 12 23  4  0
 13 20  4  0
 13 26  4  0
 14 19  4  0
 17 18  4  0
 17 24  4  0
 19 23  4  0
 20 24  4  0
 23 26  1  0
M  END
$$$$

 Created by Python create_sdf_string function

 26 30  0  0  0  0  0  0  0  0999 V2000
   10.0084   -1.8019   23.4945 C   0  0  0  0  0  0  0  0  0  0  0  0
   10.0005   -4.2520   16.5631 C   0  0  0  0  0  0  0  0  0  0  0  0
   10.2759   -4.0036   17.8845 C   0  0  0  0  0  0  0  0  0  0  0  0
    8.5652    1.5478   25.3778 N   0  0  0  0  0  0  0  0  0  0  0  0
    6.8048   -7.5457   17.8752 C   0  0  0  0  0  0  0  0  0  0  0  0
    6.1721   -8.2186   15.9886 N   0  0  0  0  0  0  0  0  0  0  0  0
   11.1764   -2.6600   19.5604 C   0  0  0  0  0  0  0  0  0  0  0  0
    9.5491   -0.6380   24.1912 C   0  0  0  0  0  0  0  0  0  0  0  0
    7.5337   -6.9256   16.9519 C   0  0  0  0  0  0  0  0  0  0  0  0
    9.6782    0.5671   23.5143 C   0  0  0  0  0  0  0  0  0  0  0  0
    8.4532    0.3482   26.0821 C   0  0  0  0  0  0  0  0  0  0  0  0
   10.4239   -1.7677   22.2230 N   0  0  0  0  0  0  0  0  0  0  0  0
    9.9468   -4.5953   20.1709 C   0  0  0  0  0  0  0  0  0  0  0  0
   10.0366   -3.0590   23.9864 N   0  0  0  0  0  0  0  0  0  0  0  0
    7.1191   -7.3636   15.7739 C   0  0  0  0  0  0  0  0  0  0  0  0
    5.9612   -8.3203   17.2732 N   0  0  0  0  0  0  0  0  0  0  0  0
    8.5296   -5.9814   17.1841 C   0  0  0  0  0  0  0  0  0  0  0  0
    9.1527   -5.2118   16.2116 C   0  0  0  0  0  0  0  0  0  0  0  0
   10.3364   -3.8368   22.9255 O   0  0  0  0  0  0  0  0  0  0  0  0
    9.6947   -4.8407   18.8534 C   0  0  0  0  0  0  0  0  0  0  0  0
    9.1596    1.7042   24.1381 C   0  0  0  0  0  0  0  0  0  0  0  0
   11.0456   -2.9774   18.2694 N   0  0  0  0  0  0  0  0  0  0  0  0
   10.4788   -3.0457   21.8593 C   0  0  0  0  0  0  0  0  0  0  0  0
    8.8693   -5.8099   18.4657 N   0  0  0  0  0  0  0  0  0  0  0  0
    8.9892   -0.7926   25.4573 C   0  0  0  0  0  0  0  0  0  0  0  0
   10.5677   -3.4462   20.5323 C   0  0  0  0  0  0  0  0  0  0  0  0
  1  8  1  0
  1 12  4  0
  1 14  4  0
  2  3  4  0
  2 18  4  0
  3 20  4  0
  3 22  4  0
  4 11  4  0
  4 21  4  0
  5  9  4  0
  5 16  4  0
  6 15  4  0
  6 16  4  0
  7 22  4  0
  7 26  4  0
  8 10  4  0
  8 25  4  0
  9 15  4  0
  9 17  1  0
 10 21  4  0
 11 25  4  0
 12 23  4  0
 13 20  4  0
 13 26  4  0
 14 19  4  0
 17 18  4  0
 17 24  4  0
 19 23  4  0
 20 24  4  0
 23 26  1  0
M  END
$$$$

 Created by Python create_sdf_string function

 26 30  0  0  0  0  0  0  0  0999 V2000
   10.0084   -1.8019   23.4945 C   0  0  0  0  0  0  0  0  0  0  0  0
   10.0005   -4.2520   16.5631 C   0  0  0  0  0  0  0  0  0  0  0  0
   10.2759   -4.0036   17.8845 C   0  0  0  0  0  0  0  0  0  0  0  0
    8.5652    1.5478   25.3778 N   0  0  0  0  0  0  0  0  0  0  0  0
    6.8048   -7.5457   17.8752 C   0  0  0  0  0  0  0  0  0  0  0  0
    6.1721   -8.2186   15.9886 N   0  0  0  0  0  0  0  0  0  0  0  0
   11.1764   -2.6600   19.5604 C   0  0  0  0  0  0  0  0  0  0  0  0
    9.5491   -0.6380   24.1912 C   0  0  0  0  0  0  0  0  0  0  0  0
    7.5337   -6.9256   16.9519 C   0  0  0  0  0  0  0  0  0  0  0  0
    9.6782    0.5671   23.5143 C   0  0  0  0  0  0  0  0  0  0  0  0
    8.4532    0.3482   26.0821 C   0  0  0  0  0  0  0  0  0  0  0  0
   10.4239   -1.7677   22.2230 N   0  0  0  0  0  0  0  0  0  0  0  0
    9.9468   -4.5953   20.1709 C   0  0  0  0  0  0  0  0  0  0  0  0
   10.0366   -3.0590   23.9864 N   0  0  0  0  0  0  0  0  0  0  0  0
    7.1191   -7.3636   15.7739 C   0  0  0  0  0  0  0  0  0  0  0  0
    5.9612   -8.3203   17.2732 N   0  0  0  0  0  0  0  0  0  0  0  0
    8.5296   -5.9814   17.1841 C   0  0  0  0  0  0  0  0  0  0  0  0
    9.1527   -5.2118   16.2116 C   0  0  0  0  0  0  0  0  0  0  0  0
   10.3364   -3.8368   22.9255 O   0  0  0  0  0  0  0  0  0  0  0  0
    9.6947   -4.8407   18.8534 C   0  0  0  0  0  0  0  0  0  0  0  0
    9.1596    1.7042   24.1381 C   0  0  0  0  0  0  0  0  0  0  0  0
   11.0456   -2.9774   18.2694 N   0  0  0  0  0  0  0  0  0  0  0  0
   10.4788   -3.0457   21.8593 C   0  0  0  0  0  0  0  0  0  0  0  0
    8.8693   -5.8099   18.4657 N   0  0  0  0  0  0  0  0  0  0  0  0
    8.9892   -0.7926   25.4573 C   0  0  0  0  0  0  0  0  0  0  0  0
   10.5677   -3.4462   20.5323 C   0  0  0  0  0  0  0  0  0  0  0  0
  1  8  1  0
  1 12  4  0
  1 14  4  0
  2  3  4  0
  2 18  4  0
  3 20  4  0
  3 22  4  0
  4 11  4  0
  4 21  4  0
  5  9  4  0
  5 16  4  0
  6 15  4  0
  6 16  4  0
  7 22  4  0
  7 26  4  0
  8 10  4  0
  8 25  4  0
  9 15  4  0
  9 17  1  0
 10 21  4  0
 11 25  4  0
 12 23  4  0
 13 20  4  0
 13 26  4  0
 14 19  4  0
 17 18  4  0
 17 24  4  0
 19 23  4  0
 20 24  4  0
 23 26  1  0
M  END
$$$$

 Created by Python create_sdf_string function

 26 30  0  0  0  0  0  0  0  0999 V2000
   10.0084   -1.8019   23.4945 C   0  0  0  0  0  0  0  0  0  0  0  0
   10.0005   -4.2520   16.5631 C   0  0  0  0  0  0  0  0  0  0  0  0
   10.2759   -4.0036   17.8845 C   0  0  0  0  0  0  0  0  0  0  0  0
    8.5652    1.5478   25.3778 N   0  0  0  0  0  0  0  0  0  0  0  0
    6.8048   -7.5457   17.8752 C   0  0  0  0  0  0  0  0  0  0  0  0
    6.1721   -8.2186   15.9886 N   0  0  0  0  0  0  0  0  0  0  0  0
   11.1764   -2.6600   19.5604 C   0  0  0  0  0  0  0  0  0  0  0  0
    9.5491   -0.6380   24.1912 C   0  0  0  0  0  0  0  0  0  0  0  0
    7.5337   -6.9256   16.9519 C   0  0  0  0  0  0  0  0  0  0  0  0
    9.6782    0.5671   23.5143 C   0  0  0  0  0  0  0  0  0  0  0  0
    8.4532    0.3482   26.0821 C   0  0  0  0  0  0  0  0  0  0  0  0
   10.4239   -1.7677   22.2230 N   0  0  0  0  0  0  0  0  0  0  0  0
    9.9468   -4.5953   20.1709 C   0  0  0  0  0  0  0  0  0  0  0  0
   10.0366   -3.0590   23.9864 N   0  0  0  0  0  0  0  0  0  0  0  0
    7.1191   -7.3636   15.7739 C   0  0  0  0  0  0  0  0  0  0  0  0
    5.9612   -8.3203   17.2732 N   0  0  0  0  0  0  0  0  0  0  0  0
    8.5296   -5.9814   17.1841 C   0  0  0  0  0  0  0  0  0  0  0  0
    9.1527   -5.2118   16.2116 C   0  0  0  0  0  0  0  0  0  0  0  0
   10.3364   -3.8368   22.9255 O   0  0  0  0  0  0  0  0  0  0  0  0
    9.6947   -4.8407   18.8534 C   0  0  0  0  0  0  0  0  0  0  0  0
    9.1596    1.7042   24.1381 C   0  0  0  0  0  0  0  0  0  0  0  0
   11.0456   -2.9774   18.2694 N   0  0  0  0  0  0  0  0  0  0  0  0
   10.4788   -3.0457   21.8593 C   0  0  0  0  0  0  0  0  0  0  0  0
    8.8693   -5.8099   18.4657 N   0  0  0  0  0  0  0  0  0  0  0  0
    8.9892   -0.7926   25.4573 C   0  0  0  0  0  0  0  0  0  0  0  0
   10.5677   -3.4462   20.5323 C   0  0  0  0  0  0  0  0  0  0  0  0
  1  8  1  0
  1 12  4  0
  1 14  4  0
  2  3  4  0
  2 18  4  0
  3 20  4  0
  3 22  4  0
  4 11  4  0
  4 21  4  0
  5  9  4  0
  5 16  4  0
  6 15  4  0
  6 16  4  0
  7 22  4  0
  7 26  4  0
  8 10  4  0
  8 25  4  0
  9 15  4  0
  9 17  1  0
 10 21  4  0
 11 25  4  0
 12 23  4  0
 13 20  4  0
 13 26  4  0
 14 19  4  0
 17 18  4  0
 17 24  4  0
 19 23  4  0
 20 24  4  0
 23 26  1  0
M  END
$$$$

 Created by Python create_sdf_string function

 26 30  0  0  0  0  0  0  0  0999 V2000
   10.0084   -1.8019   23.4945 C   0  0  0  0  0  0  0  0  0  0  0  0
   10.0005   -4.2520   16.5631 C   0  0  0  0  0  0  0  0  0  0  0  0
   10.2759   -4.0036   17.8845 C   0  0  0  0  0  0  0  0  0  0  0  0
    8.5652    1.5478   25.3778 N   0  0  0  0  0  0  0  0  0  0  0  0
    6.8048   -7.5457   17.8752 C   0  0  0  0  0  0  0  0  0  0  0  0
    6.1721   -8.2186   15.9886 N   0  0  0  0  0  0  0  0  0  0  0  0
   11.1764   -2.6600   19.5604 C   0  0  0  0  0  0  0  0  0  0  0  0
    9.5491   -0.6380   24.1912 C   0  0  0  0  0  0  0  0  0  0  0  0
    7.5337   -6.9256   16.9519 C   0  0  0  0  0  0  0  0  0  0  0  0
    9.6782    0.5671   23.5143 C   0  0  0  0  0  0  0  0  0  0  0  0
    8.4532    0.3482   26.0821 C   0  0  0  0  0  0  0  0  0  0  0  0
   10.4239   -1.7677   22.2230 N   0  0  0  0  0  0  0  0  0  0  0  0
    9.9468   -4.5953   20.1709 C   0  0  0  0  0  0  0  0  0  0  0  0
   10.0366   -3.0590   23.9864 N   0  0  0  0  0  0  0  0  0  0  0  0
    7.1191   -7.3636   15.7739 C   0  0  0  0  0  0  0  0  0  0  0  0
    5.9612   -8.3203   17.2732 N   0  0  0  0  0  0  0  0  0  0  0  0
    8.5296   -5.9814   17.1841 C   0  0  0  0  0  0  0  0  0  0  0  0
    9.1527   -5.2118   16.2116 C   0  0  0  0  0  0  0  0  0  0  0  0
   10.3364   -3.8368   22.9255 O   0  0  0  0  0  0  0  0  0  0  0  0
    9.6947   -4.8407   18.8534 C   0  0  0  0  0  0  0  0  0  0  0  0
    9.1596    1.7042   24.1381 C   0  0  0  0  0  0  0  0  0  0  0  0
   11.0456   -2.9774   18.2694 N   0  0  0  0  0  0  0  0  0  0  0  0
   10.4788   -3.0457   21.8593 C   0  0  0  0  0  0  0  0  0  0  0  0
    8.8693   -5.8099   18.4657 N   0  0  0  0  0  0  0  0  0  0  0  0
    8.9892   -0.7926   25.4573 C   0  0  0  0  0  0  0  0  0  0  0  0
   10.5677   -3.4462   20.5323 C   0  0  0  0  0  0  0  0  0  0  0  0
  1  8  1  0
  1 12  4  0
  1 14  4  0
  2  3  4  0
  2 18  4  0
  3 20  4  0
  3 22  4  0
  4 11  4  0
  4 21  4  0
  5  9  4  0
  5 16  4  0
  6 15  4  0
  6 16  4  0
  7 22  4  0
  7 26  4  0
  8 10  4  0
  8 25  4  0
  9 15  4  0
  9 17  1  0
 10 21  4  0
 11 25  4  0
 12 23  4  0
 13 20  4  0
 13 26  4  0
 14 19  4  0
 17 18  4  0
 17 24  4  0
 19 23  4  0
 20 24  4  0
 23 26  1  0
M  END
$$$$

 Created by Python create_sdf_string function

 26 30  0  0  0  0  0  0  0  0999 V2000
   10.0084   -1.8019   23.4945 C   0  0  0  0  0  0  0  0  0  0  0  0
   10.0005   -4.2520   16.5631 C   0  0  0  0  0  0  0  0  0  0  0  0
   10.2759   -4.0036   17.8845 C   0  0  0  0  0  0  0  0  0  0  0  0
    8.5652    1.5478   25.3778 N   0  0  0  0  0  0  0  0  0  0  0  0
    6.8048   -7.5457   17.8752 C   0  0  0  0  0  0  0  0  0  0  0  0
    6.1721   -8.2186   15.9886 N   0  0  0  0  0  0  0  0  0  0  0  0
   11.1764   -2.6600   19.5604 C   0  0  0  0  0  0  0  0  0  0  0  0
    9.5491   -0.6380   24.1912 C   0  0  0  0  0  0  0  0  0  0  0  0
    7.5337   -6.9256   16.9519 C   0  0  0  0  0  0  0  0  0  0  0  0
    9.6782    0.5671   23.5143 C   0  0  0  0  0  0  0  0  0  0  0  0
    8.4532    0.3482   26.0821 C   0  0  0  0  0  0  0  0  0  0  0  0
   10.4239   -1.7677   22.2230 N   0  0  0  0  0  0  0  0  0  0  0  0
    9.9468   -4.5953   20.1709 C   0  0  0  0  0  0  0  0  0  0  0  0
   10.0366   -3.0590   23.9864 N   0  0  0  0  0  0  0  0  0  0  0  0
    7.1191   -7.3636   15.7739 C   0  0  0  0  0  0  0  0  0  0  0  0
    5.9612   -8.3203   17.2732 N   0  0  0  0  0  0  0  0  0  0  0  0
    8.5296   -5.9814   17.1841 C   0  0  0  0  0  0  0  0  0  0  0  0
    9.1527   -5.2118   16.2116 C   0  0  0  0  0  0  0  0  0  0  0  0
   10.3364   -3.8368   22.9255 O   0  0  0  0  0  0  0  0  0  0  0  0
    9.6947   -4.8407   18.8534 C   0  0  0  0  0  0  0  0  0  0  0  0
    9.1596    1.7042   24.1381 C   0  0  0  0  0  0  0  0  0  0  0  0
   11.0456   -2.9774   18.2694 N   0  0  0  0  0  0  0  0  0  0  0  0
   10.4788   -3.0457   21.8593 C   0  0  0  0  0  0  0  0  0  0  0  0
    8.8693   -5.8099   18.4657 N   0  0  0  0  0  0  0  0  0  0  0  0
    8.9892   -0.7926   25.4573 C   0  0  0  0  0  0  0  0  0  0  0  0
   10.5677   -3.4462   20.5323 C   0  0  0  0  0  0  0  0  0  0  0  0
  1  8  1  0
  1 12  4  0
  1 14  4  0
  2  3  4  0
  2 18  4  0
  3 20  4  0
  3 22  4  0
  4 11  4  0
  4 21  4  0
  5  9  4  0
  5 16  4  0
  6 15  4  0
  6 16  4  0
  7 22  4  0
  7 26  4  0
  8 10  4  0
  8 25  4  0
  9 15  4  0
  9 17  1  0
 10 21  4  0
 11 25  4  0
 12 23  4  0
 13 20  4  0
 13 26  4  0
 14 19  4  0
 17 18  4  0
 17 24  4  0
 19 23  4  0
 20 24  4  0
 23 26  1  0
M  END
$$$$

 Created by Python create_sdf_string function

 26 30  0  0  0  0  0  0  0  0999 V2000
   10.0084   -1.8019   23.4945 C   0  0  0  0  0  0  0  0  0  0  0  0
   10.0005   -4.2520   16.5631 C   0  0  0  0  0  0  0  0  0  0  0  0
   10.2759   -4.0036   17.8845 C   0  0  0  0  0  0  0  0  0  0  0  0
    8.5652    1.5478   25.3778 N   0  0  0  0  0  0  0  0  0  0  0  0
    6.8048   -7.5457   17.8752 C   0  0  0  0  0  0  0  0  0  0  0  0
    6.1721   -8.2186   15.9886 N   0  0  0  0  0  0  0  0  0  0  0  0
   11.1764   -2.6600   19.5604 C   0  0  0  0  0  0  0  0  0  0  0  0
    9.5491   -0.6380   24.1912 C   0  0  0  0  0  0  0  0  0  0  0  0
    7.5337   -6.9256   16.9519 C   0  0  0  0  0  0  0  0  0  0  0  0
    9.6782    0.5671   23.5143 C   0  0  0  0  0  0  0  0  0  0  0  0
    8.4532    0.3482   26.0821 C   0  0  0  0  0  0  0  0  0  0  0  0
   10.4239   -1.7677   22.2230 N   0  0  0  0  0  0  0  0  0  0  0  0
    9.9468   -4.5953   20.1709 C   0  0  0  0  0  0  0  0  0  0  0  0
   10.0366   -3.0590   23.9864 N   0  0  0  0  0  0  0  0  0  0  0  0
    7.1191   -7.3636   15.7739 C   0  0  0  0  0  0  0  0  0  0  0  0
    5.9612   -8.3203   17.2732 N   0  0  0  0  0  0  0  0  0  0  0  0
    8.5296   -5.9814   17.1841 C   0  0  0  0  0  0  0  0  0  0  0  0
    9.1527   -5.2118   16.2116 C   0  0  0  0  0  0  0  0  0  0  0  0
   10.3364   -3.8368   22.9255 O   0  0  0  0  0  0  0  0  0  0  0  0
    9.6947   -4.8407   18.8534 C   0  0  0  0  0  0  0  0  0  0  0  0
    9.1596    1.7042   24.1381 C   0  0  0  0  0  0  0  0  0  0  0  0
   11.0456   -2.9774   18.2694 N   0  0  0  0  0  0  0  0  0  0  0  0
   10.4788   -3.0457   21.8593 C   0  0  0  0  0  0  0  0  0  0  0  0
    8.8693   -5.8099   18.4657 N   0  0  0  0  0  0  0  0  0  0  0  0
    8.9892   -0.7926   25.4573 C   0  0  0  0  0  0  0  0  0  0  0  0
   10.5677   -3.4462   20.5323 C   0  0  0  0  0  0  0  0  0  0  0  0
  1  8  1  0
  1 12  4  0
  1 14  4  0
  2  3  4  0
  2 18  4  0
  3 20  4  0
  3 22  4  0
  4 11  4  0
  4 21  4  0
  5  9  4  0
  5 16  4  0
  6 15  4  0
  6 16  4  0
  7 22  4  0
  7 26  4  0
  8 10  4  0
  8 25  4  0
  9 15  4  0
  9 17  1  0
 10 21  4  0
 11 25  4  0
 12 23  4  0
 13 20  4  0
 13 26  4  0
 14 19  4  0
 17 18  4  0
 17 24  4  0
 19 23  4  0
 20 24  4  0
 23 26  1  0
M  END
$$$$

 Created by Python create_sdf_string function

 26 30  0  0  0  0  0  0  0  0999 V2000
   10.0084   -1.8019   23.4945 C   0  0  0  0  0  0  0  0  0  0  0  0
   10.0005   -4.2520   16.5631 C   0  0  0  0  0  0  0  0  0  0  0  0
   10.2759   -4.0036   17.8845 C   0  0  0  0  0  0  0  0  0  0  0  0
    8.5652    1.5478   25.3778 N   0  0  0  0  0  0  0  0  0  0  0  0
    6.8048   -7.5457   17.8752 C   0  0  0  0  0  0  0  0  0  0  0  0
    6.1721   -8.2186   15.9886 N   0  0  0  0  0  0  0  0  0  0  0  0
   11.1764   -2.6600   19.5604 C   0  0  0  0  0  0  0  0  0  0  0  0
    9.5491   -0.6380   24.1912 C   0  0  0  0  0  0  0  0  0  0  0  0
    7.5337   -6.9256   16.9519 C   0  0  0  0  0  0  0  0  0  0  0  0
    9.6782    0.5671   23.5143 C   0  0  0  0  0  0  0  0  0  0  0  0
    8.4532    0.3482   26.0821 C   0  0  0  0  0  0  0  0  0  0  0  0
   10.4239   -1.7677   22.2230 N   0  0  0  0  0  0  0  0  0  0  0  0
    9.9468   -4.5953   20.1709 C   0  0  0  0  0  0  0  0  0  0  0  0
   10.0366   -3.0590   23.9864 N   0  0  0  0  0  0  0  0  0  0  0  0
    7.1191   -7.3636   15.7739 C   0  0  0  0  0  0  0  0  0  0  0  0
    5.9612   -8.3203   17.2732 N   0  0  0  0  0  0  0  0  0  0  0  0
    8.5296   -5.9814   17.1841 C   0  0  0  0  0  0  0  0  0  0  0  0
    9.1527   -5.2118   16.2116 C   0  0  0  0  0  0  0  0  0  0  0  0
   10.3364   -3.8368   22.9255 O   0  0  0  0  0  0  0  0  0  0  0  0
    9.6947   -4.8407   18.8534 C   0  0  0  0  0  0  0  0  0  0  0  0
    9.1596    1.7042   24.1381 C   0  0  0  0  0  0  0  0  0  0  0  0
   11.0456   -2.9774   18.2694 N   0  0  0  0  0  0  0  0  0  0  0  0
   10.4788   -3.0457   21.8593 C   0  0  0  0  0  0  0  0  0  0  0  0
    8.8693   -5.8099   18.4657 N   0  0  0  0  0  0  0  0  0  0  0  0
    8.9892   -0.7926   25.4573 C   0  0  0  0  0  0  0  0  0  0  0  0
   10.5677   -3.4462   20.5323 C   0  0  0  0  0  0  0  0  0  0  0  0
  1  8  1  0
  1 12  4  0
  1 14  4  0
  2  3  4  0
  2 18  4  0
  3 20  4  0
  3 22  4  0
  4 11  4  0
  4 21  4  0
  5  9  4  0
  5 16  4  0
  6 15  4  0
  6 16  4  0
  7 22  4  0
  7 26  4  0
  8 10  4  0
  8 25  4  0
  9 15  4  0
  9 17  1  0
 10 21  4  0
 11 25  4  0
 12 23  4  0
 13 20  4  0
 13 26  4  0
 14 19  4  0
 17 18  4  0
 17 24  4  0
 19 23  4  0
 20 24  4  0
 23 26  1  0
M  END
$$$$

 Created by Python create_sdf_string function

 26 30  0  0  0  0  0  0  0  0999 V2000
   10.0084   -1.8019   23.4945 C   0  0  0  0  0  0  0  0  0  0  0  0
   10.0005   -4.2520   16.5631 C   0  0  0  0  0  0  0  0  0  0  0  0
   10.2759   -4.0036   17.8845 C   0  0  0  0  0  0  0  0  0  0  0  0
    8.5652    1.5478   25.3778 N   0  0  0  0  0  0  0  0  0  0  0  0
    6.8048   -7.5457   17.8752 C   0  0  0  0  0  0  0  0  0  0  0  0
    6.1721   -8.2186   15.9886 N   0  0  0  0  0  0  0  0  0  0  0  0
   11.1764   -2.6600   19.5604 C   0  0  0  0  0  0  0  0  0  0  0  0
    9.5491   -0.6380   24.1912 C   0  0  0  0  0  0  0  0  0  0  0  0
    7.5337   -6.9256   16.9519 C   0  0  0  0  0  0  0  0  0  0  0  0
    9.6782    0.5671   23.5143 C   0  0  0  0  0  0  0  0  0  0  0  0
    8.4532    0.3482   26.0821 C   0  0  0  0  0  0  0  0  0  0  0  0
   10.4239   -1.7677   22.2230 N   0  0  0  0  0  0  0  0  0  0  0  0
    9.9468   -4.5953   20.1709 C   0  0  0  0  0  0  0  0  0  0  0  0
   10.0366   -3.0590   23.9864 N   0  0  0  0  0  0  0  0  0  0  0  0
    7.1191   -7.3636   15.7739 C   0  0  0  0  0  0  0  0  0  0  0  0
    5.9612   -8.3203   17.2732 N   0  0  0  0  0  0  0  0  0  0  0  0
    8.5296   -5.9814   17.1841 C   0  0  0  0  0  0  0  0  0  0  0  0
    9.1527   -5.2118   16.2116 C   0  0  0  0  0  0  0  0  0  0  0  0
   10.3364   -3.8368   22.9255 O   0  0  0  0  0  0  0  0  0  0  0  0
    9.6947   -4.8407   18.8534 C   0  0  0  0  0  0  0  0  0  0  0  0
    9.1596    1.7042   24.1381 C   0  0  0  0  0  0  0  0  0  0  0  0
   11.0456   -2.9774   18.2694 N   0  0  0  0  0  0  0  0  0  0  0  0
   10.4788   -3.0457   21.8593 C   0  0  0  0  0  0  0  0  0  0  0  0
    8.8693   -5.8099   18.4657 N   0  0  0  0  0  0  0  0  0  0  0  0
    8.9892   -0.7926   25.4573 C   0  0  0  0  0  0  0  0  0  0  0  0
   10.5677   -3.4462   20.5323 C   0  0  0  0  0  0  0  0  0  0  0  0
  1  8  1  0
  1 12  4  0
  1 14  4  0
  2  3  4  0
  2 18  4  0
  3 20  4  0
  3 22  4  0
  4 11  4  0
  4 21  4  0
  5  9  4  0
  5 16  4  0
  6 15  4  0
  6 16  4  0
  7 22  4  0
  7 26  4  0
  8 10  4  0
  8 25  4  0
  9 15  4  0
  9 17  1  0
 10 21  4  0
 11 25  4  0
 12 23  4  0
 13 20  4  0
 13 26  4  0
 14 19  4  0
 17 18  4  0
 17 24  4  0
 19 23  4  0
 20 24  4  0
 23 26  1  0
M  END
$$$$

 Created by Python create_sdf_string function

 26 30  0  0  0  0  0  0  0  0999 V2000
   10.0084   -1.8019   23.4945 C   0  0  0  0  0  0  0  0  0  0  0  0
   10.0005   -4.2520   16.5631 C   0  0  0  0  0  0  0  0  0  0  0  0
   10.2759   -4.0036   17.8845 C   0  0  0  0  0  0  0  0  0  0  0  0
    8.5652    1.5478   25.3778 N   0  0  0  0  0  0  0  0  0  0  0  0
    6.8048   -7.5457   17.8752 C   0  0  0  0  0  0  0  0  0  0  0  0
    6.1721   -8.2186   15.9886 N   0  0  0  0  0  0  0  0  0  0  0  0
   11.1764   -2.6600   19.5604 C   0  0  0  0  0  0  0  0  0  0  0  0
    9.5491   -0.6380   24.1912 C   0  0  0  0  0  0  0  0  0  0  0  0
    7.5337   -6.9256   16.9519 C   0  0  0  0  0  0  0  0  0  0  0  0
    9.6782    0.5671   23.5143 C   0  0  0  0  0  0  0  0  0  0  0  0
    8.4532    0.3482   26.0821 C   0  0  0  0  0  0  0  0  0  0  0  0
   10.4239   -1.7677   22.2230 N   0  0  0  0  0  0  0  0  0  0  0  0
    9.9468   -4.5953   20.1709 C   0  0  0  0  0  0  0  0  0  0  0  0
   10.0366   -3.0590   23.9864 N   0  0  0  0  0  0  0  0  0  0  0  0
    7.1191   -7.3636   15.7739 C   0  0  0  0  0  0  0  0  0  0  0  0
    5.9612   -8.3203   17.2732 N   0  0  0  0  0  0  0  0  0  0  0  0
    8.5296   -5.9814   17.1841 C   0  0  0  0  0  0  0  0  0  0  0  0
    9.1527   -5.2118   16.2116 C   0  0  0  0  0  0  0  0  0  0  0  0
   10.3364   -3.8368   22.9255 O   0  0  0  0  0  0  0  0  0  0  0  0
    9.6947   -4.8407   18.8534 C   0  0  0  0  0  0  0  0  0  0  0  0
    9.1596    1.7042   24.1381 C   0  0  0  0  0  0  0  0  0  0  0  0
   11.0456   -2.9774   18.2694 N   0  0  0  0  0  0  0  0  0  0  0  0
   10.4788   -3.0457   21.8593 C   0  0  0  0  0  0  0  0  0  0  0  0
    8.8693   -5.8099   18.4657 N   0  0  0  0  0  0  0  0  0  0  0  0
    8.9892   -0.7926   25.4573 C   0  0  0  0  0  0  0  0  0  0  0  0
   10.5677   -3.4462   20.5323 C   0  0  0  0  0  0  0  0  0  0  0  0
  1  8  1  0
  1 12  4  0
  1 14  4  0
  2  3  4  0
  2 18  4  0
  3 20  4  0
  3 22  4  0
  4 11  4  0
  4 21  4  0
  5  9  4  0
  5 16  4  0
  6 15  4  0
  6 16  4  0
  7 22  4  0
  7 26  4  0
  8 10  4  0
  8 25  4  0
  9 15  4  0
  9 17  1  0
 10 21  4  0
 11 25  4  0
 12 23  4  0
 13 20  4  0
 13 26  4  0
 14 19  4  0
 17 18  4  0
 17 24  4  0
 19 23  4  0
 20 24  4  0
 23 26  1  0
M  END
$$$$

 Created by Python create_sdf_string function

 26 30  0  0  0  0  0  0  0  0999 V2000
   10.0084   -1.8019   23.4945 C   0  0  0  0  0  0  0  0  0  0  0  0
   10.0005   -4.2520   16.5631 C   0  0  0  0  0  0  0  0  0  0  0  0
   10.2759   -4.0036   17.8845 C   0  0  0  0  0  0  0  0  0  0  0  0
    8.5652    1.5478   25.3778 N   0  0  0  0  0  0  0  0  0  0  0  0
    6.8048   -7.5457   17.8752 C   0  0  0  0  0  0  0  0  0  0  0  0
    6.1721   -8.2186   15.9886 N   0  0  0  0  0  0  0  0  0  0  0  0
   11.1764   -2.6600   19.5604 C   0  0  0  0  0  0  0  0  0  0  0  0
    9.5491   -0.6380   24.1912 C   0  0  0  0  0  0  0  0  0  0  0  0
    7.5337   -6.9256   16.9519 C   0  0  0  0  0  0  0  0  0  0  0  0
    9.6782    0.5671   23.5143 C   0  0  0  0  0  0  0  0  0  0  0  0
    8.4532    0.3482   26.0821 C   0  0  0  0  0  0  0  0  0  0  0  0
   10.4239   -1.7677   22.2230 N   0  0  0  0  0  0  0  0  0  0  0  0
    9.9468   -4.5953   20.1709 C   0  0  0  0  0  0  0  0  0  0  0  0
   10.0366   -3.0590   23.9864 N   0  0  0  0  0  0  0  0  0  0  0  0
    7.1191   -7.3636   15.7739 C   0  0  0  0  0  0  0  0  0  0  0  0
    5.9612   -8.3203   17.2732 N   0  0  0  0  0  0  0  0  0  0  0  0
    8.5296   -5.9814   17.1841 C   0  0  0  0  0  0  0  0  0  0  0  0
    9.1527   -5.2118   16.2116 C   0  0  0  0  0  0  0  0  0  0  0  0
   10.3364   -3.8368   22.9255 O   0  0  0  0  0  0  0  0  0  0  0  0
    9.6947   -4.8407   18.8534 C   0  0  0  0  0  0  0  0  0  0  0  0
    9.1596    1.7042   24.1381 C   0  0  0  0  0  0  0  0  0  0  0  0
   11.0456   -2.9774   18.2694 N   0  0  0  0  0  0  0  0  0  0  0  0
   10.4788   -3.0457   21.8593 C   0  0  0  0  0  0  0  0  0  0  0  0
    8.8693   -5.8099   18.4657 N   0  0  0  0  0  0  0  0  0  0  0  0
    8.9892   -0.7926   25.4573 C   0  0  0  0  0  0  0  0  0  0  0  0
   10.5677   -3.4462   20.5323 C   0  0  0  0  0  0  0  0  0  0  0  0
  1  8  1  0
  1 12  4  0
  1 14  4  0
  2  3  4  0
  2 18  4  0
  3 20  4  0
  3 22  4  0
  4 11  4  0
  4 21  4  0
  5  9  4  0
  5 16  4  0
  6 15  4  0
  6 16  4  0
  7 22  4  0
  7 26  4  0
  8 10  4  0
  8 25  4  0
  9 15  4  0
  9 17  1  0
 10 21  4  0
 11 25  4  0
 12 23  4  0
 13 20  4  0
 13 26  4  0
 14 19  4  0
 17 18  4  0
 17 24  4  0
 19 23  4  0
 20 24  4  0
 23 26  1  0
M  END
$$$$

 Created by Python create_sdf_string function

 26 30  0  0  0  0  0  0  0  0999 V2000
   10.0084   -1.8019   23.4945 C   0  0  0  0  0  0  0  0  0  0  0  0
   10.0005   -4.2520   16.5631 C   0  0  0  0  0  0  0  0  0  0  0  0
   10.2759   -4.0036   17.8845 C   0  0  0  0  0  0  0  0  0  0  0  0
    8.5652    1.5478   25.3778 N   0  0  0  0  0  0  0  0  0  0  0  0
    6.8048   -7.5457   17.8752 C   0  0  0  0  0  0  0  0  0  0  0  0
    6.1721   -8.2186   15.9886 N   0  0  0  0  0  0  0  0  0  0  0  0
   11.1764   -2.6600   19.5604 C   0  0  0  0  0  0  0  0  0  0  0  0
    9.5491   -0.6380   24.1912 C   0  0  0  0  0  0  0  0  0  0  0  0
    7.5337   -6.9256   16.9519 C   0  0  0  0  0  0  0  0  0  0  0  0
    9.6782    0.5671   23.5143 C   0  0  0  0  0  0  0  0  0  0  0  0
    8.4532    0.3482   26.0821 C   0  0  0  0  0  0  0  0  0  0  0  0
   10.4239   -1.7677   22.2230 N   0  0  0  0  0  0  0  0  0  0  0  0
    9.9468   -4.5953   20.1709 C   0  0  0  0  0  0  0  0  0  0  0  0
   10.0366   -3.0590   23.9864 N   0  0  0  0  0  0  0  0  0  0  0  0
    7.1191   -7.3636   15.7739 C   0  0  0  0  0  0  0  0  0  0  0  0
    5.9612   -8.3203   17.2732 N   0  0  0  0  0  0  0  0  0  0  0  0
    8.5296   -5.9814   17.1841 C   0  0  0  0  0  0  0  0  0  0  0  0
    9.1527   -5.2118   16.2116 C   0  0  0  0  0  0  0  0  0  0  0  0
   10.3364   -3.8368   22.9255 O   0  0  0  0  0  0  0  0  0  0  0  0
    9.6947   -4.8407   18.8534 C   0  0  0  0  0  0  0  0  0  0  0  0
    9.1596    1.7042   24.1381 C   0  0  0  0  0  0  0  0  0  0  0  0
   11.0456   -2.9774   18.2694 N   0  0  0  0  0  0  0  0  0  0  0  0
   10.4788   -3.0457   21.8593 C   0  0  0  0  0  0  0  0  0  0  0  0
    8.8693   -5.8099   18.4657 N   0  0  0  0  0  0  0  0  0  0  0  0
    8.9892   -0.7926   25.4573 C   0  0  0  0  0  0  0  0  0  0  0  0
   10.5677   -3.4462   20.5323 C   0  0  0  0  0  0  0  0  0  0  0  0
  1  8  1  0
  1 12  4  0
  1 14  4  0
  2  3  4  0
  2 18  4  0
  3 20  4  0
  3 22  4  0
  4 11  4  0
  4 21  4  0
  5  9  4  0
  5 16  4  0
  6 15  4  0
  6 16  4  0
  7 22  4  0
  7 26  4  0
  8 10  4  0
  8 25  4  0
  9 15  4  0
  9 17  1  0
 10 21  4  0
 11 25  4  0
 12 23  4  0
 13 20  4  0
 13 26  4  0
 14 19  4  0
 17 18  4  0
 17 24  4  0
 19 23  4  0
 20 24  4  0
 23 26  1  0
M  END
$$$$

 Created by Python create_sdf_string function

 26 30  0  0  0  0  0  0  0  0999 V2000
   10.0084   -1.8019   23.4945 C   0  0  0  0  0  0  0  0  0  0  0  0
   10.0005   -4.2520   16.5631 C   0  0  0  0  0  0  0  0  0  0  0  0
   10.2759   -4.0036   17.8845 C   0  0  0  0  0  0  0  0  0  0  0  0
    8.5652    1.5478   25.3778 N   0  0  0  0  0  0  0  0  0  0  0  0
    6.8048   -7.5457   17.8752 C   0  0  0  0  0  0  0  0  0  0  0  0
    6.1721   -8.2186   15.9886 N   0  0  0  0  0  0  0  0  0  0  0  0
   11.1764   -2.6600   19.5604 C   0  0  0  0  0  0  0  0  0  0  0  0
    9.5491   -0.6380   24.1912 C   0  0  0  0  0  0  0  0  0  0  0  0
    7.5337   -6.9256   16.9519 C   0  0  0  0  0  0  0  0  0  0  0  0
    9.6782    0.5671   23.5143 C   0  0  0  0  0  0  0  0  0  0  0  0
    8.4532    0.3482   26.0821 C   0  0  0  0  0  0  0  0  0  0  0  0
   10.4239   -1.7677   22.2230 N   0  0  0  0  0  0  0  0  0  0  0  0
    9.9468   -4.5953   20.1709 C   0  0  0  0  0  0  0  0  0  0  0  0
   10.0366   -3.0590   23.9864 N   0  0  0  0  0  0  0  0  0  0  0  0
    7.1191   -7.3636   15.7739 C   0  0  0  0  0  0  0  0  0  0  0  0
    5.9612   -8.3203   17.2732 N   0  0  0  0  0  0  0  0  0  0  0  0
    8.5296   -5.9814   17.1841 C   0  0  0  0  0  0  0  0  0  0  0  0
    9.1527   -5.2118   16.2116 C   0  0  0  0  0  0  0  0  0  0  0  0
   10.3364   -3.8368   22.9255 O   0  0  0  0  0  0  0  0  0  0  0  0
    9.6947   -4.8407   18.8534 C   0  0  0  0  0  0  0  0  0  0  0  0
    9.1596    1.7042   24.1381 C   0  0  0  0  0  0  0  0  0  0  0  0
   11.0456   -2.9774   18.2694 N   0  0  0  0  0  0  0  0  0  0  0  0
   10.4788   -3.0457   21.8593 C   0  0  0  0  0  0  0  0  0  0  0  0
    8.8693   -5.8099   18.4657 N   0  0  0  0  0  0  0  0  0  0  0  0
    8.9892   -0.7926   25.4573 C   0  0  0  0  0  0  0  0  0  0  0  0
   10.5677   -3.4462   20.5323 C   0  0  0  0  0  0  0  0  0  0  0  0
  1  8  1  0
  1 12  4  0
  1 14  4  0
  2  3  4  0
  2 18  4  0
  3 20  4  0
  3 22  4  0
  4 11  4  0
  4 21  4  0
  5  9  4  0
  5 16  4  0
  6 15  4  0
  6 16  4  0
  7 22  4  0
  7 26  4  0
  8 10  4  0
  8 25  4  0
  9 15  4  0
  9 17  1  0
 10 21  4  0
 11 25  4  0
 12 23  4  0
 13 20  4  0
 13 26  4  0
 14 19  4  0
 17 18  4  0
 17 24  4  0
 19 23  4  0
 20 24  4  0
 23 26  1  0
M  END
$$$$

 Created by Python create_sdf_string function

 26 30  0  0  0  0  0  0  0  0999 V2000
   10.0084   -1.8019   23.4945 C   0  0  0  0  0  0  0  0  0  0  0  0
   10.0005   -4.2520   16.5631 C   0  0  0  0  0  0  0  0  0  0  0  0
   10.2759   -4.0036   17.8845 C   0  0  0  0  0  0  0  0  0  0  0  0
    8.5652    1.5478   25.3778 N   0  0  0  0  0  0  0  0  0  0  0  0
    6.8048   -7.5457   17.8752 C   0  0  0  0  0  0  0  0  0  0  0  0
    6.1721   -8.2186   15.9886 N   0  0  0  0  0  0  0  0  0  0  0  0
   11.1764   -2.6600   19.5604 C   0  0  0  0  0  0  0  0  0  0  0  0
    9.5491   -0.6380   24.1912 C   0  0  0  0  0  0  0  0  0  0  0  0
    7.5337   -6.9256   16.9519 C   0  0  0  0  0  0  0  0  0  0  0  0
    9.6782    0.5671   23.5143 C   0  0  0  0  0  0  0  0  0  0  0  0
    8.4532    0.3482   26.0821 C   0  0  0  0  0  0  0  0  0  0  0  0
   10.4239   -1.7677   22.2230 N   0  0  0  0  0  0  0  0  0  0  0  0
    9.9468   -4.5953   20.1709 C   0  0  0  0  0  0  0  0  0  0  0  0
   10.0366   -3.0590   23.9864 N   0  0  0  0  0  0  0  0  0  0  0  0
    7.1191   -7.3636   15.7739 C   0  0  0  0  0  0  0  0  0  0  0  0
    5.9612   -8.3203   17.2732 N   0  0  0  0  0  0  0  0  0  0  0  0
    8.5296   -5.9814   17.1841 C   0  0  0  0  0  0  0  0  0  0  0  0
    9.1527   -5.2118   16.2116 C   0  0  0  0  0  0  0  0  0  0  0  0
   10.3364   -3.8368   22.9255 O   0  0  0  0  0  0  0  0  0  0  0  0
    9.6947   -4.8407   18.8534 C   0  0  0  0  0  0  0  0  0  0  0  0
    9.1596    1.7042   24.1381 C   0  0  0  0  0  0  0  0  0  0  0  0
   11.0456   -2.9774   18.2694 N   0  0  0  0  0  0  0  0  0  0  0  0
   10.4788   -3.0457   21.8593 C   0  0  0  0  0  0  0  0  0  0  0  0
    8.8693   -5.8099   18.4657 N   0  0  0  0  0  0  0  0  0  0  0  0
    8.9892   -0.7926   25.4573 C   0  0  0  0  0  0  0  0  0  0  0  0
   10.5677   -3.4462   20.5323 C   0  0  0  0  0  0  0  0  0  0  0  0
  1  8  1  0
  1 12  4  0
  1 14  4  0
  2  3  4  0
  2 18  4  0
  3 20  4  0
  3 22  4  0
  4 11  4  0
  4 21  4  0
  5  9  4  0
  5 16  4  0
  6 15  4  0
  6 16  4  0
  7 22  4  0
  7 26  4  0
  8 10  4  0
  8 25  4  0
  9 15  4  0
  9 17  1  0
 10 21  4  0
 11 25  4  0
 12 23  4  0
 13 20  4  0
 13 26  4  0
 14 19  4  0
 17 18  4  0
 17 24  4  0
 19 23  4  0
 20 24  4  0
 23 26  1  0
M  END
$$$$

 Created by Python create_sdf_string function

 26 30  0  0  0  0  0  0  0  0999 V2000
   10.0084   -1.8019   23.4945 C   0  0  0  0  0  0  0  0  0  0  0  0
   10.0005   -4.2520   16.5631 C   0  0  0  0  0  0  0  0  0  0  0  0
   10.2759   -4.0036   17.8845 C   0  0  0  0  0  0  0  0  0  0  0  0
    8.5652    1.5478   25.3778 N   0  0  0  0  0  0  0  0  0  0  0  0
    6.8048   -7.5457   17.8752 C   0  0  0  0  0  0  0  0  0  0  0  0
    6.1721   -8.2186   15.9886 N   0  0  0  0  0  0  0  0  0  0  0  0
   11.1764   -2.6600   19.5604 C   0  0  0  0  0  0  0  0  0  0  0  0
    9.5491   -0.6380   24.1912 C   0  0  0  0  0  0  0  0  0  0  0  0
    7.5337   -6.9256   16.9519 C   0  0  0  0  0  0  0  0  0  0  0  0
    9.6782    0.5671   23.5143 C   0  0  0  0  0  0  0  0  0  0  0  0
    8.4532    0.3482   26.0821 C   0  0  0  0  0  0  0  0  0  0  0  0
   10.4239   -1.7677   22.2230 N   0  0  0  0  0  0  0  0  0  0  0  0
    9.9468   -4.5953   20.1709 C   0  0  0  0  0  0  0  0  0  0  0  0
   10.0366   -3.0590   23.9864 N   0  0  0  0  0  0  0  0  0  0  0  0
    7.1191   -7.3636   15.7739 C   0  0  0  0  0  0  0  0  0  0  0  0
    5.9612   -8.3203   17.2732 N   0  0  0  0  0  0  0  0  0  0  0  0
    8.5296   -5.9814   17.1841 C   0  0  0  0  0  0  0  0  0  0  0  0
    9.1527   -5.2118   16.2116 C   0  0  0  0  0  0  0  0  0  0  0  0
   10.3364   -3.8368   22.9255 O   0  0  0  0  0  0  0  0  0  0  0  0
    9.6947   -4.8407   18.8534 C   0  0  0  0  0  0  0  0  0  0  0  0
    9.1596    1.7042   24.1381 C   0  0  0  0  0  0  0  0  0  0  0  0
   11.0456   -2.9774   18.2694 N   0  0  0  0  0  0  0  0  0  0  0  0
   10.4788   -3.0457   21.8593 C   0  0  0  0  0  0  0  0  0  0  0  0
    8.8693   -5.8099   18.4657 N   0  0  0  0  0  0  0  0  0  0  0  0
    8.9892   -0.7926   25.4573 C   0  0  0  0  0  0  0  0  0  0  0  0
   10.5677   -3.4462   20.5323 C   0  0  0  0  0  0  0  0  0  0  0  0
  1  8  1  0
  1 12  4  0
  1 14  4  0
  2  3  4  0
  2 18  4  0
  3 20  4  0
  3 22  4  0
  4 11  4  0
  4 21  4  0
  5  9  4  0
  5 16  4  0
  6 15  4  0
  6 16  4  0
  7 22  4  0
  7 26  4  0
  8 10  4  0
  8 25  4  0
  9 15  4  0
  9 17  1  0
 10 21  4  0
 11 25  4  0
 12 23  4  0
 13 20  4  0
 13 26  4  0
 14 19  4  0
 17 18  4  0
 17 24  4  0
 19 23  4  0
 20 24  4  0
 23 26  1  0
M  END
$$$$

 Created by Python create_sdf_string function

 26 30  0  0  0  0  0  0  0  0999 V2000
   10.0084   -1.8019   23.4945 C   0  0  0  0  0  0  0  0  0  0  0  0
   10.0005   -4.2520   16.5631 C   0  0  0  0  0  0  0  0  0  0  0  0
   10.2759   -4.0036   17.8845 C   0  0  0  0  0  0  0  0  0  0  0  0
    8.5652    1.5478   25.3778 N   0  0  0  0  0  0  0  0  0  0  0  0
    6.8048   -7.5457   17.8752 C   0  0  0  0  0  0  0  0  0  0  0  0
    6.1721   -8.2186   15.9886 N   0  0  0  0  0  0  0  0  0  0  0  0
   11.1764   -2.6600   19.5604 C   0  0  0  0  0  0  0  0  0  0  0  0
    9.5491   -0.6380   24.1912 C   0  0  0  0  0  0  0  0  0  0  0  0
    7.5337   -6.9256   16.9519 C   0  0  0  0  0  0  0  0  0  0  0  0
    9.6782    0.5671   23.5143 C   0  0  0  0  0  0  0  0  0  0  0  0
    8.4532    0.3482   26.0821 C   0  0  0  0  0  0  0  0  0  0  0  0
   10.4239   -1.7677   22.2230 N   0  0  0  0  0  0  0  0  0  0  0  0
    9.9468   -4.5953   20.1709 C   0  0  0  0  0  0  0  0  0  0  0  0
   10.0366   -3.0590   23.9864 N   0  0  0  0  0  0  0  0  0  0  0  0
    7.1191   -7.3636   15.7739 C   0  0  0  0  0  0  0  0  0  0  0  0
    5.9612   -8.3203   17.2732 N   0  0  0  0  0  0  0  0  0  0  0  0
    8.5296   -5.9814   17.1841 C   0  0  0  0  0  0  0  0  0  0  0  0
    9.1527   -5.2118   16.2116 C   0  0  0  0  0  0  0  0  0  0  0  0
   10.3364   -3.8368   22.9255 O   0  0  0  0  0  0  0  0  0  0  0  0
    9.6947   -4.8407   18.8534 C   0  0  0  0  0  0  0  0  0  0  0  0
    9.1596    1.7042   24.1381 C   0  0  0  0  0  0  0  0  0  0  0  0
   11.0456   -2.9774   18.2694 N   0  0  0  0  0  0  0  0  0  0  0  0
   10.4788   -3.0457   21.8593 C   0  0  0  0  0  0  0  0  0  0  0  0
    8.8693   -5.8099   18.4657 N   0  0  0  0  0  0  0  0  0  0  0  0
    8.9892   -0.7926   25.4573 C   0  0  0  0  0  0  0  0  0  0  0  0
   10.5677   -3.4462   20.5323 C   0  0  0  0  0  0  0  0  0  0  0  0
  1  8  1  0
  1 12  4  0
  1 14  4  0
  2  3  4  0
  2 18  4  0
  3 20  4  0
  3 22  4  0
  4 11  4  0
  4 21  4  0
  5  9  4  0
  5 16  4  0
  6 15  4  0
  6 16  4  0
  7 22  4  0
  7 26  4  0
  8 10  4  0
  8 25  4  0
  9 15  4  0
  9 17  1  0
 10 21  4  0
 11 25  4  0
 12 23  4  0
 13 20  4  0
 13 26  4  0
 14 19  4  0
 17 18  4  0
 17 24  4  0
 19 23  4  0
 20 24  4  0
 23 26  1  0
M  END
$$$$

 Created by Python create_sdf_string function

 26 30  0  0  0  0  0  0  0  0999 V2000
   10.0084   -1.8019   23.4945 C   0  0  0  0  0  0  0  0  0  0  0  0
   10.0005   -4.2520   16.5631 C   0  0  0  0  0  0  0  0  0  0  0  0
   10.2759   -4.0036   17.8845 C   0  0  0  0  0  0  0  0  0  0  0  0
    8.5652    1.5478   25.3778 N   0  0  0  0  0  0  0  0  0  0  0  0
    6.8048   -7.5457   17.8752 C   0  0  0  0  0  0  0  0  0  0  0  0
    6.1721   -8.2186   15.9886 N   0  0  0  0  0  0  0  0  0  0  0  0
   11.1764   -2.6600   19.5604 C   0  0  0  0  0  0  0  0  0  0  0  0
    9.5491   -0.6380   24.1912 C   0  0  0  0  0  0  0  0  0  0  0  0
    7.5337   -6.9256   16.9519 C   0  0  0  0  0  0  0  0  0  0  0  0
    9.6782    0.5671   23.5143 C   0  0  0  0  0  0  0  0  0  0  0  0
    8.4532    0.3482   26.0821 C   0  0  0  0  0  0  0  0  0  0  0  0
   10.4239   -1.7677   22.2230 N   0  0  0  0  0  0  0  0  0  0  0  0
    9.9468   -4.5953   20.1709 C   0  0  0  0  0  0  0  0  0  0  0  0
   10.0366   -3.0590   23.9864 N   0  0  0  0  0  0  0  0  0  0  0  0
    7.1191   -7.3636   15.7739 C   0  0  0  0  0  0  0  0  0  0  0  0
    5.9612   -8.3203   17.2732 N   0  0  0  0  0  0  0  0  0  0  0  0
    8.5296   -5.9814   17.1841 C   0  0  0  0  0  0  0  0  0  0  0  0
    9.1527   -5.2118   16.2116 C   0  0  0  0  0  0  0  0  0  0  0  0
   10.3364   -3.8368   22.9255 O   0  0  0  0  0  0  0  0  0  0  0  0
    9.6947   -4.8407   18.8534 C   0  0  0  0  0  0  0  0  0  0  0  0
    9.1596    1.7042   24.1381 C   0  0  0  0  0  0  0  0  0  0  0  0
   11.0456   -2.9774   18.2694 N   0  0  0  0  0  0  0  0  0  0  0  0
   10.4788   -3.0457   21.8593 C   0  0  0  0  0  0  0  0  0  0  0  0
    8.8693   -5.8099   18.4657 N   0  0  0  0  0  0  0  0  0  0  0  0
    8.9892   -0.7926   25.4573 C   0  0  0  0  0  0  0  0  0  0  0  0
   10.5677   -3.4462   20.5323 C   0  0  0  0  0  0  0  0  0  0  0  0
  1  8  1  0
  1 12  4  0
  1 14  4  0
  2  3  4  0
  2 18  4  0
  3 20  4  0
  3 22  4  0
  4 11  4  0
  4 21  4  0
  5  9  4  0
  5 16  4  0
  6 15  4  0
  6 16  4  0
  7 22  4  0
  7 26  4  0
  8 10  4  0
  8 25  4  0
  9 15  4  0
  9 17  1  0
 10 21  4  0
 11 25  4  0
 12 23  4  0
 13 20  4  0
 13 26  4  0
 14 19  4  0
 17 18  4  0
 17 24  4  0
 19 23  4  0
 20 24  4  0
 23 26  1  0
M  END
$$$$

 Created by Python create_sdf_string function

 26 30  0  0  0  0  0  0  0  0999 V2000
   10.0084   -1.8019   23.4945 C   0  0  0  0  0  0  0  0  0  0  0  0
   10.0005   -4.2520   16.5631 C   0  0  0  0  0  0  0  0  0  0  0  0
   10.2759   -4.0036   17.8845 C   0  0  0  0  0  0  0  0  0  0  0  0
    8.5652    1.5478   25.3778 N   0  0  0  0  0  0  0  0  0  0  0  0
    6.8048   -7.5457   17.8752 C   0  0  0  0  0  0  0  0  0  0  0  0
    6.1721   -8.2186   15.9886 N   0  0  0  0  0  0  0  0  0  0  0  0
   11.1764   -2.6600   19.5604 C   0  0  0  0  0  0  0  0  0  0  0  0
    9.5491   -0.6380   24.1912 C   0  0  0  0  0  0  0  0  0  0  0  0
    7.5337   -6.9256   16.9519 C   0  0  0  0  0  0  0  0  0  0  0  0
    9.6782    0.5671   23.5143 C   0  0  0  0  0  0  0  0  0  0  0  0
    8.4532    0.3482   26.0821 C   0  0  0  0  0  0  0  0  0  0  0  0
   10.4239   -1.7677   22.2230 N   0  0  0  0  0  0  0  0  0  0  0  0
    9.9468   -4.5953   20.1709 C   0  0  0  0  0  0  0  0  0  0  0  0
   10.0366   -3.0590   23.9864 N   0  0  0  0  0  0  0  0  0  0  0  0
    7.1191   -7.3636   15.7739 C   0  0  0  0  0  0  0  0  0  0  0  0
    5.9612   -8.3203   17.2732 N   0  0  0  0  0  0  0  0  0  0  0  0
    8.5296   -5.9814   17.1841 C   0  0  0  0  0  0  0  0  0  0  0  0
    9.1527   -5.2118   16.2116 C   0  0  0  0  0  0  0  0  0  0  0  0
   10.3364   -3.8368   22.9255 O   0  0  0  0  0  0  0  0  0  0  0  0
    9.6947   -4.8407   18.8534 C   0  0  0  0  0  0  0  0  0  0  0  0
    9.1596    1.7042   24.1381 C   0  0  0  0  0  0  0  0  0  0  0  0
   11.0456   -2.9774   18.2694 N   0  0  0  0  0  0  0  0  0  0  0  0
   10.4788   -3.0457   21.8593 C   0  0  0  0  0  0  0  0  0  0  0  0
    8.8693   -5.8099   18.4657 N   0  0  0  0  0  0  0  0  0  0  0  0
    8.9892   -0.7926   25.4573 C   0  0  0  0  0  0  0  0  0  0  0  0
   10.5677   -3.4462   20.5323 C   0  0  0  0  0  0  0  0  0  0  0  0
  1  8  1  0
  1 12  4  0
  1 14  4  0
  2  3  4  0
  2 18  4  0
  3 20  4  0
  3 22  4  0
  4 11  4  0
  4 21  4  0
  5  9  4  0
  5 16  4  0
  6 15  4  0
  6 16  4  0
  7 22  4  0
  7 26  4  0
  8 10  4  0
  8 25  4  0
  9 15  4  0
  9 17  1  0
 10 21  4  0
 11 25  4  0
 12 23  4  0
 13 20  4  0
 13 26  4  0
 14 19  4  0
 17 18  4  0
 17 24  4  0
 19 23  4  0
 20 24  4  0
 23 26  1  0
M  END
$$$$

 Created by Python create_sdf_string function

 26 30  0  0  0  0  0  0  0  0999 V2000
   10.0084   -1.8019   23.4945 C   0  0  0  0  0  0  0  0  0  0  0  0
   10.0005   -4.2520   16.5631 C   0  0  0  0  0  0  0  0  0  0  0  0
   10.2759   -4.0036   17.8845 C   0  0  0  0  0  0  0  0  0  0  0  0
    8.5652    1.5478   25.3778 N   0  0  0  0  0  0  0  0  0  0  0  0
    6.8048   -7.5457   17.8752 C   0  0  0  0  0  0  0  0  0  0  0  0
    6.1721   -8.2186   15.9886 N   0  0  0  0  0  0  0  0  0  0  0  0
   11.1764   -2.6600   19.5604 C   0  0  0  0  0  0  0  0  0  0  0  0
    9.5491   -0.6380   24.1912 C   0  0  0  0  0  0  0  0  0  0  0  0
    7.5337   -6.9256   16.9519 C   0  0  0  0  0  0  0  0  0  0  0  0
    9.6782    0.5671   23.5143 C   0  0  0  0  0  0  0  0  0  0  0  0
    8.4532    0.3482   26.0821 C   0  0  0  0  0  0  0  0  0  0  0  0
   10.4239   -1.7677   22.2230 N   0  0  0  0  0  0  0  0  0  0  0  0
    9.9468   -4.5953   20.1709 C   0  0  0  0  0  0  0  0  0  0  0  0
   10.0366   -3.0590   23.9864 N   0  0  0  0  0  0  0  0  0  0  0  0
    7.1191   -7.3636   15.7739 C   0  0  0  0  0  0  0  0  0  0  0  0
    5.9612   -8.3203   17.2732 N   0  0  0  0  0  0  0  0  0  0  0  0
    8.5296   -5.9814   17.1841 C   0  0  0  0  0  0  0  0  0  0  0  0
    9.1527   -5.2118   16.2116 C   0  0  0  0  0  0  0  0  0  0  0  0
   10.3364   -3.8368   22.9255 O   0  0  0  0  0  0  0  0  0  0  0  0
    9.6947   -4.8407   18.8534 C   0  0  0  0  0  0  0  0  0  0  0  0
    9.1596    1.7042   24.1381 C   0  0  0  0  0  0  0  0  0  0  0  0
   11.0456   -2.9774   18.2694 N   0  0  0  0  0  0  0  0  0  0  0  0
   10.4788   -3.0457   21.8593 C   0  0  0  0  0  0  0  0  0  0  0  0
    8.8693   -5.8099   18.4657 N   0  0  0  0  0  0  0  0  0  0  0  0
    8.9892   -0.7926   25.4573 C   0  0  0  0  0  0  0  0  0  0  0  0
   10.5677   -3.4462   20.5323 C   0  0  0  0  0  0  0  0  0  0  0  0
  1  8  1  0
  1 12  4  0
  1 14  4  0
  2  3  4  0
  2 18  4  0
  3 20  4  0
  3 22  4  0
  4 11  4  0
  4 21  4  0
  5  9  4  0
  5 16  4  0
  6 15  4  0
  6 16  4  0
  7 22  4  0
  7 26  4  0
  8 10  4  0
  8 25  4  0
  9 15  4  0
  9 17  1  0
 10 21  4  0
 11 25  4  0
 12 23  4  0
 13 20  4  0
 13 26  4  0
 14 19  4  0
 17 18  4  0
 17 24  4  0
 19 23  4  0
 20 24  4  0
 23 26  1  0
M  END
$$$$

 Created by Python create_sdf_string function

 26 30  0  0  0  0  0  0  0  0999 V2000
   10.0084   -1.8019   23.4945 C   0  0  0  0  0  0  0  0  0  0  0  0
   10.0005   -4.2520   16.5631 C   0  0  0  0  0  0  0  0  0  0  0  0
   10.2759   -4.0036   17.8845 C   0  0  0  0  0  0  0  0  0  0  0  0
    8.5652    1.5478   25.3778 N   0  0  0  0  0  0  0  0  0  0  0  0
    6.8048   -7.5457   17.8752 C   0  0  0  0  0  0  0  0  0  0  0  0
    6.1721   -8.2186   15.9886 N   0  0  0  0  0  0  0  0  0  0  0  0
   11.1764   -2.6600   19.5604 C   0  0  0  0  0  0  0  0  0  0  0  0
    9.5491   -0.6380   24.1912 C   0  0  0  0  0  0  0  0  0  0  0  0
    7.5337   -6.9256   16.9519 C   0  0  0  0  0  0  0  0  0  0  0  0
    9.6782    0.5671   23.5143 C   0  0  0  0  0  0  0  0  0  0  0  0
    8.4532    0.3482   26.0821 C   0  0  0  0  0  0  0  0  0  0  0  0
   10.4239   -1.7677   22.2230 N   0  0  0  0  0  0  0  0  0  0  0  0
    9.9468   -4.5953   20.1709 C   0  0  0  0  0  0  0  0  0  0  0  0
   10.0366   -3.0590   23.9864 N   0  0  0  0  0  0  0  0  0  0  0  0
    7.1191   -7.3636   15.7739 C   0  0  0  0  0  0  0  0  0  0  0  0
    5.9612   -8.3203   17.2732 N   0  0  0  0  0  0  0  0  0  0  0  0
    8.5296   -5.9814   17.1841 C   0  0  0  0  0  0  0  0  0  0  0  0
    9.1527   -5.2118   16.2116 C   0  0  0  0  0  0  0  0  0  0  0  0
   10.3364   -3.8368   22.9255 O   0  0  0  0  0  0  0  0  0  0  0  0
    9.6947   -4.8407   18.8534 C   0  0  0  0  0  0  0  0  0  0  0  0
    9.1596    1.7042   24.1381 C   0  0  0  0  0  0  0  0  0  0  0  0
   11.0456   -2.9774   18.2694 N   0  0  0  0  0  0  0  0  0  0  0  0
   10.4788   -3.0457   21.8593 C   0  0  0  0  0  0  0  0  0  0  0  0
    8.8693   -5.8099   18.4657 N   0  0  0  0  0  0  0  0  0  0  0  0
    8.9892   -0.7926   25.4573 C   0  0  0  0  0  0  0  0  0  0  0  0
   10.5677   -3.4462   20.5323 C   0  0  0  0  0  0  0  0  0  0  0  0
  1  8  1  0
  1 12  4  0
  1 14  4  0
  2  3  4  0
  2 18  4  0
  3 20  4  0
  3 22  4  0
  4 11  4  0
  4 21  4  0
  5  9  4  0
  5 16  4  0
  6 15  4  0
  6 16  4  0
  7 22  4  0
  7 26  4  0
  8 10  4  0
  8 25  4  0
  9 15  4  0
  9 17  1  0
 10 21  4  0
 11 25  4  0
 12 23  4  0
 13 20  4  0
 13 26  4  0
 14 19  4  0
 17 18  4  0
 17 24  4  0
 19 23  4  0
 20 24  4  0
 23 26  1  0
M  END
$$$$

 Created by Python create_sdf_string function

 26 30  0  0  0  0  0  0  0  0999 V2000
   10.0084   -1.8019   23.4945 C   0  0  0  0  0  0  0  0  0  0  0  0
   10.0005   -4.2520   16.5631 C   0  0  0  0  0  0  0  0  0  0  0  0
   10.2759   -4.0036   17.8845 C   0  0  0  0  0  0  0  0  0  0  0  0
    8.5652    1.5478   25.3778 N   0  0  0  0  0  0  0  0  0  0  0  0
    6.8048   -7.5457   17.8752 C   0  0  0  0  0  0  0  0  0  0  0  0
    6.1721   -8.2186   15.9886 N   0  0  0  0  0  0  0  0  0  0  0  0
   11.1764   -2.6600   19.5604 C   0  0  0  0  0  0  0  0  0  0  0  0
    9.5491   -0.6380   24.1912 C   0  0  0  0  0  0  0  0  0  0  0  0
    7.5337   -6.9256   16.9519 C   0  0  0  0  0  0  0  0  0  0  0  0
    9.6782    0.5671   23.5143 C   0  0  0  0  0  0  0  0  0  0  0  0
    8.4532    0.3482   26.0821 C   0  0  0  0  0  0  0  0  0  0  0  0
   10.4239   -1.7677   22.2230 N   0  0  0  0  0  0  0  0  0  0  0  0
    9.9468   -4.5953   20.1709 C   0  0  0  0  0  0  0  0  0  0  0  0
   10.0366   -3.0590   23.9864 N   0  0  0  0  0  0  0  0  0  0  0  0
    7.1191   -7.3636   15.7739 C   0  0  0  0  0  0  0  0  0  0  0  0
    5.9612   -8.3203   17.2732 N   0  0  0  0  0  0  0  0  0  0  0  0
    8.5296   -5.9814   17.1841 C   0  0  0  0  0  0  0  0  0  0  0  0
    9.1527   -5.2118   16.2116 C   0  0  0  0  0  0  0  0  0  0  0  0
   10.3364   -3.8368   22.9255 O   0  0  0  0  0  0  0  0  0  0  0  0
    9.6947   -4.8407   18.8534 C   0  0  0  0  0  0  0  0  0  0  0  0
    9.1596    1.7042   24.1381 C   0  0  0  0  0  0  0  0  0  0  0  0
   11.0456   -2.9774   18.2694 N   0  0  0  0  0  0  0  0  0  0  0  0
   10.4788   -3.0457   21.8593 C   0  0  0  0  0  0  0  0  0  0  0  0
    8.8693   -5.8099   18.4657 N   0  0  0  0  0  0  0  0  0  0  0  0
    8.9892   -0.7926   25.4573 C   0  0  0  0  0  0  0  0  0  0  0  0
   10.5677   -3.4462   20.5323 C   0  0  0  0  0  0  0  0  0  0  0  0
  1  8  1  0
  1 12  4  0
  1 14  4  0
  2  3  4  0
  2 18  4  0
  3 20  4  0
  3 22  4  0
  4 11  4  0
  4 21  4  0
  5  9  4  0
  5 16  4  0
  6 15  4  0
  6 16  4  0
  7 22  4  0
  7 26  4  0
  8 10  4  0
  8 25  4  0
  9 15  4  0
  9 17  1  0
 10 21  4  0
 11 25  4  0
 12 23  4  0
 13 20  4  0
 13 26  4  0
 14 19  4  0
 17 18  4  0
 17 24  4  0
 19 23  4  0
 20 24  4  0
 23 26  1  0
M  END
$$$$

 Created by Python create_sdf_string function

 26 30  0  0  0  0  0  0  0  0999 V2000
   10.0084   -1.8019   23.4945 C   0  0  0  0  0  0  0  0  0  0  0  0
   10.0005   -4.2520   16.5631 C   0  0  0  0  0  0  0  0  0  0  0  0
   10.2759   -4.0036   17.8845 C   0  0  0  0  0  0  0  0  0  0  0  0
    8.5652    1.5478   25.3778 N   0  0  0  0  0  0  0  0  0  0  0  0
    6.8048   -7.5457   17.8752 C   0  0  0  0  0  0  0  0  0  0  0  0
    6.1721   -8.2186   15.9886 N   0  0  0  0  0  0  0  0  0  0  0  0
   11.1764   -2.6600   19.5604 C   0  0  0  0  0  0  0  0  0  0  0  0
    9.5491   -0.6380   24.1912 C   0  0  0  0  0  0  0  0  0  0  0  0
    7.5337   -6.9256   16.9519 C   0  0  0  0  0  0  0  0  0  0  0  0
    9.6782    0.5671   23.5143 C   0  0  0  0  0  0  0  0  0  0  0  0
    8.4532    0.3482   26.0821 C   0  0  0  0  0  0  0  0  0  0  0  0
   10.4239   -1.7677   22.2230 N   0  0  0  0  0  0  0  0  0  0  0  0
    9.9468   -4.5953   20.1709 C   0  0  0  0  0  0  0  0  0  0  0  0
   10.0366   -3.0590   23.9864 N   0  0  0  0  0  0  0  0  0  0  0  0
    7.1191   -7.3636   15.7739 C   0  0  0  0  0  0  0  0  0  0  0  0
    5.9612   -8.3203   17.2732 N   0  0  0  0  0  0  0  0  0  0  0  0
    8.5296   -5.9814   17.1841 C   0  0  0  0  0  0  0  0  0  0  0  0
    9.1527   -5.2118   16.2116 C   0  0  0  0  0  0  0  0  0  0  0  0
   10.3364   -3.8368   22.9255 O   0  0  0  0  0  0  0  0  0  0  0  0
    9.6947   -4.8407   18.8534 C   0  0  0  0  0  0  0  0  0  0  0  0
    9.1596    1.7042   24.1381 C   0  0  0  0  0  0  0  0  0  0  0  0
   11.0456   -2.9774   18.2694 N   0  0  0  0  0  0  0  0  0  0  0  0
   10.4788   -3.0457   21.8593 C   0  0  0  0  0  0  0  0  0  0  0  0
    8.8693   -5.8099   18.4657 N   0  0  0  0  0  0  0  0  0  0  0  0
    8.9892   -0.7926   25.4573 C   0  0  0  0  0  0  0  0  0  0  0  0
   10.5677   -3.4462   20.5323 C   0  0  0  0  0  0  0  0  0  0  0  0
  1  8  1  0
  1 12  4  0
  1 14  4  0
  2  3  4  0
  2 18  4  0
  3 20  4  0
  3 22  4  0
  4 11  4  0
  4 21  4  0
  5  9  4  0
  5 16  4  0
  6 15  4  0
  6 16  4  0
  7 22  4  0
  7 26  4  0
  8 10  4  0
  8 25  4  0
  9 15  4  0
  9 17  1  0
 10 21  4  0
 11 25  4  0
 12 23  4  0
 13 20  4  0
 13 26  4  0
 14 19  4  0
 17 18  4  0
 17 24  4  0
 19 23  4  0
 20 24  4  0
 23 26  1  0
M  END
$$$$

 Created by Python create_sdf_string function

 26 30  0  0  0  0  0  0  0  0999 V2000
   10.0084   -1.8019   23.4945 C   0  0  0  0  0  0  0  0  0  0  0  0
   10.0005   -4.2520   16.5631 C   0  0  0  0  0  0  0  0  0  0  0  0
   10.2759   -4.0036   17.8845 C   0  0  0  0  0  0  0  0  0  0  0  0
    8.5652    1.5478   25.3778 N   0  0  0  0  0  0  0  0  0  0  0  0
    6.8048   -7.5457   17.8752 C   0  0  0  0  0  0  0  0  0  0  0  0
    6.1721   -8.2186   15.9886 N   0  0  0  0  0  0  0  0  0  0  0  0
   11.1764   -2.6600   19.5604 C   0  0  0  0  0  0  0  0  0  0  0  0
    9.5491   -0.6380   24.1912 C   0  0  0  0  0  0  0  0  0  0  0  0
    7.5337   -6.9256   16.9519 C   0  0  0  0  0  0  0  0  0  0  0  0
    9.6782    0.5671   23.5143 C   0  0  0  0  0  0  0  0  0  0  0  0
    8.4532    0.3482   26.0821 C   0  0  0  0  0  0  0  0  0  0  0  0
   10.4239   -1.7677   22.2230 N   0  0  0  0  0  0  0  0  0  0  0  0
    9.9468   -4.5953   20.1709 C   0  0  0  0  0  0  0  0  0  0  0  0
   10.0366   -3.0590   23.9864 N   0  0  0  0  0  0  0  0  0  0  0  0
    7.1191   -7.3636   15.7739 C   0  0  0  0  0  0  0  0  0  0  0  0
    5.9612   -8.3203   17.2732 N   0  0  0  0  0  0  0  0  0  0  0  0
    8.5296   -5.9814   17.1841 C   0  0  0  0  0  0  0  0  0  0  0  0
    9.1527   -5.2118   16.2116 C   0  0  0  0  0  0  0  0  0  0  0  0
   10.3364   -3.8368   22.9255 O   0  0  0  0  0  0  0  0  0  0  0  0
    9.6947   -4.8407   18.8534 C   0  0  0  0  0  0  0  0  0  0  0  0
    9.1596    1.7042   24.1381 C   0  0  0  0  0  0  0  0  0  0  0  0
   11.0456   -2.9774   18.2694 N   0  0  0  0  0  0  0  0  0  0  0  0
   10.4788   -3.0457   21.8593 C   0  0  0  0  0  0  0  0  0  0  0  0
    8.8693   -5.8099   18.4657 N   0  0  0  0  0  0  0  0  0  0  0  0
    8.9892   -0.7926   25.4573 C   0  0  0  0  0  0  0  0  0  0  0  0
   10.5677   -3.4462   20.5323 C   0  0  0  0  0  0  0  0  0  0  0  0
  1  8  1  0
  1 12  4  0
  1 14  4  0
  2  3  4  0
  2 18  4  0
  3 20  4  0
  3 22  4  0
  4 11  4  0
  4 21  4  0
  5  9  4  0
  5 16  4  0
  6 15  4  0
  6 16  4  0
  7 22  4  0
  7 26  4  0
  8 10  4  0
  8 25  4  0
  9 15  4  0
  9 17  1  0
 10 21  4  0
 11 25  4  0
 12 23  4  0
 13 20  4  0
 13 26  4  0
 14 19  4  0
 17 18  4  0
 17 24  4  0
 19 23  4  0
 20 24  4  0
 23 26  1  0
M  END
$$$$

 Created by Python create_sdf_string function

 26 30  0  0  0  0  0  0  0  0999 V2000
   10.0084   -1.8019   23.4945 C   0  0  0  0  0  0  0  0  0  0  0  0
   10.0005   -4.2520   16.5631 C   0  0  0  0  0  0  0  0  0  0  0  0
   10.2759   -4.0036   17.8845 C   0  0  0  0  0  0  0  0  0  0  0  0
    8.5652    1.5478   25.3778 N   0  0  0  0  0  0  0  0  0  0  0  0
    6.8048   -7.5457   17.8752 C   0  0  0  0  0  0  0  0  0  0  0  0
    6.1721   -8.2186   15.9886 N   0  0  0  0  0  0  0  0  0  0  0  0
   11.1764   -2.6600   19.5604 C   0  0  0  0  0  0  0  0  0  0  0  0
    9.5491   -0.6380   24.1912 C   0  0  0  0  0  0  0  0  0  0  0  0
    7.5337   -6.9256   16.9519 C   0  0  0  0  0  0  0  0  0  0  0  0
    9.6782    0.5671   23.5143 C   0  0  0  0  0  0  0  0  0  0  0  0
    8.4532    0.3482   26.0821 C   0  0  0  0  0  0  0  0  0  0  0  0
   10.4239   -1.7677   22.2230 N   0  0  0  0  0  0  0  0  0  0  0  0
    9.9468   -4.5953   20.1709 C   0  0  0  0  0  0  0  0  0  0  0  0
   10.0366   -3.0590   23.9864 N   0  0  0  0  0  0  0  0  0  0  0  0
    7.1191   -7.3636   15.7739 C   0  0  0  0  0  0  0  0  0  0  0  0
    5.9612   -8.3203   17.2732 N   0  0  0  0  0  0  0  0  0  0  0  0
    8.5296   -5.9814   17.1841 C   0  0  0  0  0  0  0  0  0  0  0  0
    9.1527   -5.2118   16.2116 C   0  0  0  0  0  0  0  0  0  0  0  0
   10.3364   -3.8368   22.9255 O   0  0  0  0  0  0  0  0  0  0  0  0
    9.6947   -4.8407   18.8534 C   0  0  0  0  0  0  0  0  0  0  0  0
    9.1596    1.7042   24.1381 C   0  0  0  0  0  0  0  0  0  0  0  0
   11.0456   -2.9774   18.2694 N   0  0  0  0  0  0  0  0  0  0  0  0
   10.4788   -3.0457   21.8593 C   0  0  0  0  0  0  0  0  0  0  0  0
    8.8693   -5.8099   18.4657 N   0  0  0  0  0  0  0  0  0  0  0  0
    8.9892   -0.7926   25.4573 C   0  0  0  0  0  0  0  0  0  0  0  0
   10.5677   -3.4462   20.5323 C   0  0  0  0  0  0  0  0  0  0  0  0
  1  8  1  0
  1 12  4  0
  1 14  4  0
  2  3  4  0
  2 18  4  0
  3 20  4  0
  3 22  4  0
  4 11  4  0
  4 21  4  0
  5  9  4  0
  5 16  4  0
  6 15  4  0
  6 16  4  0
  7 22  4  0
  7 26  4  0
  8 10  4  0
  8 25  4  0
  9 15  4  0
  9 17  1  0
 10 21  4  0
 11 25  4  0
 12 23  4  0
 13 20  4  0
 13 26  4  0
 14 19  4  0
 17 18  4  0
 17 24  4  0
 19 23  4  0
 20 24  4  0
 23 26  1  0
M  END
$$$$

 Created by Python create_sdf_string function

 26 30  0  0  0  0  0  0  0  0999 V2000
   10.0084   -1.8019   23.4945 C   0  0  0  0  0  0  0  0  0  0  0  0
   10.0005   -4.2520   16.5631 C   0  0  0  0  0  0  0  0  0  0  0  0
   10.2759   -4.0036   17.8845 C   0  0  0  0  0  0  0  0  0  0  0  0
    8.5652    1.5478   25.3778 N   0  0  0  0  0  0  0  0  0  0  0  0
    6.8048   -7.5457   17.8752 C   0  0  0  0  0  0  0  0  0  0  0  0
    6.1721   -8.2186   15.9886 N   0  0  0  0  0  0  0  0  0  0  0  0
   11.1764   -2.6600   19.5604 C   0  0  0  0  0  0  0  0  0  0  0  0
    9.5491   -0.6380   24.1912 C   0  0  0  0  0  0  0  0  0  0  0  0
    7.5337   -6.9256   16.9519 C   0  0  0  0  0  0  0  0  0  0  0  0
    9.6782    0.5671   23.5143 C   0  0  0  0  0  0  0  0  0  0  0  0
    8.4532    0.3482   26.0821 C   0  0  0  0  0  0  0  0  0  0  0  0
   10.4239   -1.7677   22.2230 N   0  0  0  0  0  0  0  0  0  0  0  0
    9.9468   -4.5953   20.1709 C   0  0  0  0  0  0  0  0  0  0  0  0
   10.0366   -3.0590   23.9864 N   0  0  0  0  0  0  0  0  0  0  0  0
    7.1191   -7.3636   15.7739 C   0  0  0  0  0  0  0  0  0  0  0  0
    5.9612   -8.3203   17.2732 N   0  0  0  0  0  0  0  0  0  0  0  0
    8.5296   -5.9814   17.1841 C   0  0  0  0  0  0  0  0  0  0  0  0
    9.1527   -5.2118   16.2116 C   0  0  0  0  0  0  0  0  0  0  0  0
   10.3364   -3.8368   22.9255 O   0  0  0  0  0  0  0  0  0  0  0  0
    9.6947   -4.8407   18.8534 C   0  0  0  0  0  0  0  0  0  0  0  0
    9.1596    1.7042   24.1381 C   0  0  0  0  0  0  0  0  0  0  0  0
   11.0456   -2.9774   18.2694 N   0  0  0  0  0  0  0  0  0  0  0  0
   10.4788   -3.0457   21.8593 C   0  0  0  0  0  0  0  0  0  0  0  0
    8.8693   -5.8099   18.4657 N   0  0  0  0  0  0  0  0  0  0  0  0
    8.9892   -0.7926   25.4573 C   0  0  0  0  0  0  0  0  0  0  0  0
   10.5677   -3.4462   20.5323 C   0  0  0  0  0  0  0  0  0  0  0  0
  1  8  1  0
  1 12  4  0
  1 14  4  0
  2  3  4  0
  2 18  4  0
  3 20  4  0
  3 22  4  0
  4 11  4  0
  4 21  4  0
  5  9  4  0
  5 16  4  0
  6 15  4  0
  6 16  4  0
  7 22  4  0
  7 26  4  0
  8 10  4  0
  8 25  4  0
  9 15  4  0
  9 17  1  0
 10 21  4  0
 11 25  4  0
 12 23  4  0
 13 20  4  0
 13 26  4  0
 14 19  4  0
 17 18  4  0
 17 24  4  0
 19 23  4  0
 20 24  4  0
 23 26  1  0
M  END
$$$$

 Created by Python create_sdf_string function

 26 30  0  0  0  0  0  0  0  0999 V2000
   10.0084   -1.8019   23.4945 C   0  0  0  0  0  0  0  0  0  0  0  0
   10.0005   -4.2520   16.5631 C   0  0  0  0  0  0  0  0  0  0  0  0
   10.2759   -4.0036   17.8845 C   0  0  0  0  0  0  0  0  0  0  0  0
    8.5652    1.5478   25.3778 N   0  0  0  0  0  0  0  0  0  0  0  0
    6.8048   -7.5457   17.8752 C   0  0  0  0  0  0  0  0  0  0  0  0
    6.1721   -8.2186   15.9886 N   0  0  0  0  0  0  0  0  0  0  0  0
   11.1764   -2.6600   19.5604 C   0  0  0  0  0  0  0  0  0  0  0  0
    9.5491   -0.6380   24.1912 C   0  0  0  0  0  0  0  0  0  0  0  0
    7.5337   -6.9256   16.9519 C   0  0  0  0  0  0  0  0  0  0  0  0
    9.6782    0.5671   23.5143 C   0  0  0  0  0  0  0  0  0  0  0  0
    8.4532    0.3482   26.0821 C   0  0  0  0  0  0  0  0  0  0  0  0
   10.4239   -1.7677   22.2230 N   0  0  0  0  0  0  0  0  0  0  0  0
    9.9468   -4.5953   20.1709 C   0  0  0  0  0  0  0  0  0  0  0  0
   10.0366   -3.0590   23.9864 N   0  0  0  0  0  0  0  0  0  0  0  0
    7.1191   -7.3636   15.7739 C   0  0  0  0  0  0  0  0  0  0  0  0
    5.9612   -8.3203   17.2732 N   0  0  0  0  0  0  0  0  0  0  0  0
    8.5296   -5.9814   17.1841 C   0  0  0  0  0  0  0  0  0  0  0  0
    9.1527   -5.2118   16.2116 C   0  0  0  0  0  0  0  0  0  0  0  0
   10.3364   -3.8368   22.9255 O   0  0  0  0  0  0  0  0  0  0  0  0
    9.6947   -4.8407   18.8534 C   0  0  0  0  0  0  0  0  0  0  0  0
    9.1596    1.7042   24.1381 C   0  0  0  0  0  0  0  0  0  0  0  0
   11.0456   -2.9774   18.2694 N   0  0  0  0  0  0  0  0  0  0  0  0
   10.4788   -3.0457   21.8593 C   0  0  0  0  0  0  0  0  0  0  0  0
    8.8693   -5.8099   18.4657 N   0  0  0  0  0  0  0  0  0  0  0  0
    8.9892   -0.7926   25.4573 C   0  0  0  0  0  0  0  0  0  0  0  0
   10.5677   -3.4462   20.5323 C   0  0  0  0  0  0  0  0  0  0  0  0
  1  8  1  0
  1 12  4  0
  1 14  4  0
  2  3  4  0
  2 18  4  0
  3 20  4  0
  3 22  4  0
  4 11  4  0
  4 21  4  0
  5  9  4  0
  5 16  4  0
  6 15  4  0
  6 16  4  0
  7 22  4  0
  7 26  4  0
  8 10  4  0
  8 25  4  0
  9 15  4  0
  9 17  1  0
 10 21  4  0
 11 25  4  0
 12 23  4  0
 13 20  4  0
 13 26  4  0
 14 19  4  0
 17 18  4  0
 17 24  4  0
 19 23  4  0
 20 24  4  0
 23 26  1  0
M  END
$$$$

 Created by Python create_sdf_string function

 26 30  0  0  0  0  0  0  0  0999 V2000
   10.0084   -1.8019   23.4945 C   0  0  0  0  0  0  0  0  0  0  0  0
   10.0005   -4.2520   16.5631 C   0  0  0  0  0  0  0  0  0  0  0  0
   10.2759   -4.0036   17.8845 C   0  0  0  0  0  0  0  0  0  0  0  0
    8.5652    1.5478   25.3778 N   0  0  0  0  0  0  0  0  0  0  0  0
    6.8048   -7.5457   17.8752 C   0  0  0  0  0  0  0  0  0  0  0  0
    6.1721   -8.2186   15.9886 N   0  0  0  0  0  0  0  0  0  0  0  0
   11.1764   -2.6600   19.5604 C   0  0  0  0  0  0  0  0  0  0  0  0
    9.5491   -0.6380   24.1912 C   0  0  0  0  0  0  0  0  0  0  0  0
    7.5337   -6.9256   16.9519 C   0  0  0  0  0  0  0  0  0  0  0  0
    9.6782    0.5671   23.5143 C   0  0  0  0  0  0  0  0  0  0  0  0
    8.4532    0.3482   26.0821 C   0  0  0  0  0  0  0  0  0  0  0  0
   10.4239   -1.7677   22.2230 N   0  0  0  0  0  0  0  0  0  0  0  0
    9.9468   -4.5953   20.1709 C   0  0  0  0  0  0  0  0  0  0  0  0
   10.0366   -3.0590   23.9864 N   0  0  0  0  0  0  0  0  0  0  0  0
    7.1191   -7.3636   15.7739 C   0  0  0  0  0  0  0  0  0  0  0  0
    5.9612   -8.3203   17.2732 N   0  0  0  0  0  0  0  0  0  0  0  0
    8.5296   -5.9814   17.1841 C   0  0  0  0  0  0  0  0  0  0  0  0
    9.1527   -5.2118   16.2116 C   0  0  0  0  0  0  0  0  0  0  0  0
   10.3364   -3.8368   22.9255 O   0  0  0  0  0  0  0  0  0  0  0  0
    9.6947   -4.8407   18.8534 C   0  0  0  0  0  0  0  0  0  0  0  0
    9.1596    1.7042   24.1381 C   0  0  0  0  0  0  0  0  0  0  0  0
   11.0456   -2.9774   18.2694 N   0  0  0  0  0  0  0  0  0  0  0  0
   10.4788   -3.0457   21.8593 C   0  0  0  0  0  0  0  0  0  0  0  0
    8.8693   -5.8099   18.4657 N   0  0  0  0  0  0  0  0  0  0  0  0
    8.9892   -0.7926   25.4573 C   0  0  0  0  0  0  0  0  0  0  0  0
   10.5677   -3.4462   20.5323 C   0  0  0  0  0  0  0  0  0  0  0  0
  1  8  1  0
  1 12  4  0
  1 14  4  0
  2  3  4  0
  2 18  4  0
  3 20  4  0
  3 22  4  0
  4 11  4  0
  4 21  4  0
  5  9  4  0
  5 16  4  0
  6 15  4  0
  6 16  4  0
  7 22  4  0
  7 26  4  0
  8 10  4  0
  8 25  4  0
  9 15  4  0
  9 17  1  0
 10 21  4  0
 11 25  4  0
 12 23  4  0
 13 20  4  0
 13 26  4  0
 14 19  4  0
 17 18  4  0
 17 24  4  0
 19 23  4  0
 20 24  4  0
 23 26  1  0
M  END
$$$$

 Created by Python create_sdf_string function

 26 30  0  0  0  0  0  0  0  0999 V2000
   10.0084   -1.8019   23.4945 C   0  0  0  0  0  0  0  0  0  0  0  0
   10.0005   -4.2520   16.5631 C   0  0  0  0  0  0  0  0  0  0  0  0
   10.2759   -4.0036   17.8845 C   0  0  0  0  0  0  0  0  0  0  0  0
    8.5652    1.5478   25.3778 N   0  0  0  0  0  0  0  0  0  0  0  0
    6.8048   -7.5457   17.8752 C   0  0  0  0  0  0  0  0  0  0  0  0
    6.1721   -8.2186   15.9886 N   0  0  0  0  0  0  0  0  0  0  0  0
   11.1764   -2.6600   19.5604 C   0  0  0  0  0  0  0  0  0  0  0  0
    9.5491   -0.6380   24.1912 C   0  0  0  0  0  0  0  0  0  0  0  0
    7.5337   -6.9256   16.9519 C   0  0  0  0  0  0  0  0  0  0  0  0
    9.6782    0.5671   23.5143 C   0  0  0  0  0  0  0  0  0  0  0  0
    8.4532    0.3482   26.0821 C   0  0  0  0  0  0  0  0  0  0  0  0
   10.4239   -1.7677   22.2230 N   0  0  0  0  0  0  0  0  0  0  0  0
    9.9468   -4.5953   20.1709 C   0  0  0  0  0  0  0  0  0  0  0  0
   10.0366   -3.0590   23.9864 N   0  0  0  0  0  0  0  0  0  0  0  0
    7.1191   -7.3636   15.7739 C   0  0  0  0  0  0  0  0  0  0  0  0
    5.9612   -8.3203   17.2732 N   0  0  0  0  0  0  0  0  0  0  0  0
    8.5296   -5.9814   17.1841 C   0  0  0  0  0  0  0  0  0  0  0  0
    9.1527   -5.2118   16.2116 C   0  0  0  0  0  0  0  0  0  0  0  0
   10.3364   -3.8368   22.9255 O   0  0  0  0  0  0  0  0  0  0  0  0
    9.6947   -4.8407   18.8534 C   0  0  0  0  0  0  0  0  0  0  0  0
    9.1596    1.7042   24.1381 C   0  0  0  0  0  0  0  0  0  0  0  0
   11.0456   -2.9774   18.2694 N   0  0  0  0  0  0  0  0  0  0  0  0
   10.4788   -3.0457   21.8593 C   0  0  0  0  0  0  0  0  0  0  0  0
    8.8693   -5.8099   18.4657 N   0  0  0  0  0  0  0  0  0  0  0  0
    8.9892   -0.7926   25.4573 C   0  0  0  0  0  0  0  0  0  0  0  0
   10.5677   -3.4462   20.5323 C   0  0  0  0  0  0  0  0  0  0  0  0
  1  8  1  0
  1 12  4  0
  1 14  4  0
  2  3  4  0
  2 18  4  0
  3 20  4  0
  3 22  4  0
  4 11  4  0
  4 21  4  0
  5  9  4  0
  5 16  4  0
  6 15  4  0
  6 16  4  0
  7 22  4  0
  7 26  4  0
  8 10  4  0
  8 25  4  0
  9 15  4  0
  9 17  1  0
 10 21  4  0
 11 25  4  0
 12 23  4  0
 13 20  4  0
 13 26  4  0
 14 19  4  0
 17 18  4  0
 17 24  4  0
 19 23  4  0
 20 24  4  0
 23 26  1  0
M  END
$$$$

 Created by Python create_sdf_string function

 26 30  0  0  0  0  0  0  0  0999 V2000
   10.0084   -1.8019   23.4945 C   0  0  0  0  0  0  0  0  0  0  0  0
   10.0005   -4.2520   16.5631 C   0  0  0  0  0  0  0  0  0  0  0  0
   10.2759   -4.0036   17.8845 C   0  0  0  0  0  0  0  0  0  0  0  0
    8.5652    1.5478   25.3778 N   0  0  0  0  0  0  0  0  0  0  0  0
    6.8048   -7.5457   17.8752 C   0  0  0  0  0  0  0  0  0  0  0  0
    6.1721   -8.2186   15.9886 N   0  0  0  0  0  0  0  0  0  0  0  0
   11.1764   -2.6600   19.5604 C   0  0  0  0  0  0  0  0  0  0  0  0
    9.5491   -0.6380   24.1912 C   0  0  0  0  0  0  0  0  0  0  0  0
    7.5337   -6.9256   16.9519 C   0  0  0  0  0  0  0  0  0  0  0  0
    9.6782    0.5671   23.5143 C   0  0  0  0  0  0  0  0  0  0  0  0
    8.4532    0.3482   26.0821 C   0  0  0  0  0  0  0  0  0  0  0  0
   10.4239   -1.7677   22.2230 N   0  0  0  0  0  0  0  0  0  0  0  0
    9.9468   -4.5953   20.1709 C   0  0  0  0  0  0  0  0  0  0  0  0
   10.0366   -3.0590   23.9864 N   0  0  0  0  0  0  0  0  0  0  0  0
    7.1191   -7.3636   15.7739 C   0  0  0  0  0  0  0  0  0  0  0  0
    5.9612   -8.3203   17.2732 N   0  0  0  0  0  0  0  0  0  0  0  0
    8.5296   -5.9814   17.1841 C   0  0  0  0  0  0  0  0  0  0  0  0
    9.1527   -5.2118   16.2116 C   0  0  0  0  0  0  0  0  0  0  0  0
   10.3364   -3.8368   22.9255 O   0  0  0  0  0  0  0  0  0  0  0  0
    9.6947   -4.8407   18.8534 C   0  0  0  0  0  0  0  0  0  0  0  0
    9.1596    1.7042   24.1381 C   0  0  0  0  0  0  0  0  0  0  0  0
   11.0456   -2.9774   18.2694 N   0  0  0  0  0  0  0  0  0  0  0  0
   10.4788   -3.0457   21.8593 C   0  0  0  0  0  0  0  0  0  0  0  0
    8.8693   -5.8099   18.4657 N   0  0  0  0  0  0  0  0  0  0  0  0
    8.9892   -0.7926   25.4573 C   0  0  0  0  0  0  0  0  0  0  0  0
   10.5677   -3.4462   20.5323 C   0  0  0  0  0  0  0  0  0  0  0  0
  1  8  1  0
  1 12  4  0
  1 14  4  0
  2  3  4  0
  2 18  4  0
  3 20  4  0
  3 22  4  0
  4 11  4  0
  4 21  4  0
  5  9  4  0
  5 16  4  0
  6 15  4  0
  6 16  4  0
  7 22  4  0
  7 26  4  0
  8 10  4  0
  8 25  4  0
  9 15  4  0
  9 17  1  0
 10 21  4  0
 11 25  4  0
 12 23  4  0
 13 20  4  0
 13 26  4  0
 14 19  4  0
 17 18  4  0
 17 24  4  0
 19 23  4  0
 20 24  4  0
 23 26  1  0
M  END
$$$$

 Created by Python create_sdf_string function

 26 30  0  0  0  0  0  0  0  0999 V2000
   10.0084   -1.8019   23.4945 C   0  0  0  0  0  0  0  0  0  0  0  0
   10.0005   -4.2520   16.5631 C   0  0  0  0  0  0  0  0  0  0  0  0
   10.2759   -4.0036   17.8845 C   0  0  0  0  0  0  0  0  0  0  0  0
    8.5652    1.5478   25.3778 N   0  0  0  0  0  0  0  0  0  0  0  0
    6.8048   -7.5457   17.8752 C   0  0  0  0  0  0  0  0  0  0  0  0
    6.1721   -8.2186   15.9886 N   0  0  0  0  0  0  0  0  0  0  0  0
   11.1764   -2.6600   19.5604 C   0  0  0  0  0  0  0  0  0  0  0  0
    9.5491   -0.6380   24.1912 C   0  0  0  0  0  0  0  0  0  0  0  0
    7.5337   -6.9256   16.9519 C   0  0  0  0  0  0  0  0  0  0  0  0
    9.6782    0.5671   23.5143 C   0  0  0  0  0  0  0  0  0  0  0  0
    8.4532    0.3482   26.0821 C   0  0  0  0  0  0  0  0  0  0  0  0
   10.4239   -1.7677   22.2230 N   0  0  0  0  0  0  0  0  0  0  0  0
    9.9468   -4.5953   20.1709 C   0  0  0  0  0  0  0  0  0  0  0  0
   10.0366   -3.0590   23.9864 N   0  0  0  0  0  0  0  0  0  0  0  0
    7.1191   -7.3636   15.7739 C   0  0  0  0  0  0  0  0  0  0  0  0
    5.9612   -8.3203   17.2732 N   0  0  0  0  0  0  0  0  0  0  0  0
    8.5296   -5.9814   17.1841 C   0  0  0  0  0  0  0  0  0  0  0  0
    9.1527   -5.2118   16.2116 C   0  0  0  0  0  0  0  0  0  0  0  0
   10.3364   -3.8368   22.9255 O   0  0  0  0  0  0  0  0  0  0  0  0
    9.6947   -4.8407   18.8534 C   0  0  0  0  0  0  0  0  0  0  0  0
    9.1596    1.7042   24.1381 C   0  0  0  0  0  0  0  0  0  0  0  0
   11.0456   -2.9774   18.2694 N   0  0  0  0  0  0  0  0  0  0  0  0
   10.4788   -3.0457   21.8593 C   0  0  0  0  0  0  0  0  0  0  0  0
    8.8693   -5.8099   18.4657 N   0  0  0  0  0  0  0  0  0  0  0  0
    8.9892   -0.7926   25.4573 C   0  0  0  0  0  0  0  0  0  0  0  0
   10.5677   -3.4462   20.5323 C   0  0  0  0  0  0  0  0  0  0  0  0
  1  8  1  0
  1 12  4  0
  1 14  4  0
  2  3  4  0
  2 18  4  0
  3 20  4  0
  3 22  4  0
  4 11  4  0
  4 21  4  0
  5  9  4  0
  5 16  4  0
  6 15  4  0
  6 16  4  0
  7 22  4  0
  7 26  4  0
  8 10  4  0
  8 25  4  0
  9 15  4  0
  9 17  1  0
 10 21  4  0
 11 25  4  0
 12 23  4  0
 13 20  4  0
 13 26  4  0
 14 19  4  0
 17 18  4  0
 17 24  4  0
 19 23  4  0
 20 24  4  0
 23 26  1  0
M  END
$$$$

 Created by Python create_sdf_string function

 26 30  0  0  0  0  0  0  0  0999 V2000
   10.0084   -1.8019   23.4945 C   0  0  0  0  0  0  0  0  0  0  0  0
   10.0005   -4.2520   16.5631 C   0  0  0  0  0  0  0  0  0  0  0  0
   10.2759   -4.0036   17.8845 C   0  0  0  0  0  0  0  0  0  0  0  0
    8.5652    1.5478   25.3778 N   0  0  0  0  0  0  0  0  0  0  0  0
    6.8048   -7.5457   17.8752 C   0  0  0  0  0  0  0  0  0  0  0  0
    6.1721   -8.2186   15.9886 N   0  0  0  0  0  0  0  0  0  0  0  0
   11.1764   -2.6600   19.5604 C   0  0  0  0  0  0  0  0  0  0  0  0
    9.5491   -0.6380   24.1912 C   0  0  0  0  0  0  0  0  0  0  0  0
    7.5337   -6.9256   16.9519 C   0  0  0  0  0  0  0  0  0  0  0  0
    9.6782    0.5671   23.5143 C   0  0  0  0  0  0  0  0  0  0  0  0
    8.4532    0.3482   26.0821 C   0  0  0  0  0  0  0  0  0  0  0  0
   10.4239   -1.7677   22.2230 N   0  0  0  0  0  0  0  0  0  0  0  0
    9.9468   -4.5953   20.1709 C   0  0  0  0  0  0  0  0  0  0  0  0
   10.0366   -3.0590   23.9864 N   0  0  0  0  0  0  0  0  0  0  0  0
    7.1191   -7.3636   15.7739 C   0  0  0  0  0  0  0  0  0  0  0  0
    5.9612   -8.3203   17.2732 N   0  0  0  0  0  0  0  0  0  0  0  0
    8.5296   -5.9814   17.1841 C   0  0  0  0  0  0  0  0  0  0  0  0
    9.1527   -5.2118   16.2116 C   0  0  0  0  0  0  0  0  0  0  0  0
   10.3364   -3.8368   22.9255 O   0  0  0  0  0  0  0  0  0  0  0  0
    9.6947   -4.8407   18.8534 C   0  0  0  0  0  0  0  0  0  0  0  0
    9.1596    1.7042   24.1381 C   0  0  0  0  0  0  0  0  0  0  0  0
   11.0456   -2.9774   18.2694 N   0  0  0  0  0  0  0  0  0  0  0  0
   10.4788   -3.0457   21.8593 C   0  0  0  0  0  0  0  0  0  0  0  0
    8.8693   -5.8099   18.4657 N   0  0  0  0  0  0  0  0  0  0  0  0
    8.9892   -0.7926   25.4573 C   0  0  0  0  0  0  0  0  0  0  0  0
   10.5677   -3.4462   20.5323 C   0  0  0  0  0  0  0  0  0  0  0  0
  1  8  1  0
  1 12  4  0
  1 14  4  0
  2  3  4  0
  2 18  4  0
  3 20  4  0
  3 22  4  0
  4 11  4  0
  4 21  4  0
  5  9  4  0
  5 16  4  0
  6 15  4  0
  6 16  4  0
  7 22  4  0
  7 26  4  0
  8 10  4  0
  8 25  4  0
  9 15  4  0
  9 17  1  0
 10 21  4  0
 11 25  4  0
 12 23  4  0
 13 20  4  0
 13 26  4  0
 14 19  4  0
 17 18  4  0
 17 24  4  0
 19 23  4  0
 20 24  4  0
 23 26  1  0
M  END
$$$$

 Created by Python create_sdf_string function

 26 30  0  0  0  0  0  0  0  0999 V2000
   10.0084   -1.8019   23.4945 C   0  0  0  0  0  0  0  0  0  0  0  0
   10.0005   -4.2520   16.5631 C   0  0  0  0  0  0  0  0  0  0  0  0
   10.2759   -4.0036   17.8845 C   0  0  0  0  0  0  0  0  0  0  0  0
    8.5652    1.5478   25.3778 N   0  0  0  0  0  0  0  0  0  0  0  0
    6.8048   -7.5457   17.8752 C   0  0  0  0  0  0  0  0  0  0  0  0
    6.1721   -8.2186   15.9886 N   0  0  0  0  0  0  0  0  0  0  0  0
   11.1764   -2.6600   19.5604 C   0  0  0  0  0  0  0  0  0  0  0  0
    9.5491   -0.6380   24.1912 C   0  0  0  0  0  0  0  0  0  0  0  0
    7.5337   -6.9256   16.9519 C   0  0  0  0  0  0  0  0  0  0  0  0
    9.6782    0.5671   23.5143 C   0  0  0  0  0  0  0  0  0  0  0  0
    8.4532    0.3482   26.0821 C   0  0  0  0  0  0  0  0  0  0  0  0
   10.4239   -1.7677   22.2230 N   0  0  0  0  0  0  0  0  0  0  0  0
    9.9468   -4.5953   20.1709 C   0  0  0  0  0  0  0  0  0  0  0  0
   10.0366   -3.0590   23.9864 N   0  0  0  0  0  0  0  0  0  0  0  0
    7.1191   -7.3636   15.7739 C   0  0  0  0  0  0  0  0  0  0  0  0
    5.9612   -8.3203   17.2732 N   0  0  0  0  0  0  0  0  0  0  0  0
    8.5296   -5.9814   17.1841 C   0  0  0  0  0  0  0  0  0  0  0  0
    9.1527   -5.2118   16.2116 C   0  0  0  0  0  0  0  0  0  0  0  0
   10.3364   -3.8368   22.9255 O   0  0  0  0  0  0  0  0  0  0  0  0
    9.6947   -4.8407   18.8534 C   0  0  0  0  0  0  0  0  0  0  0  0
    9.1596    1.7042   24.1381 C   0  0  0  0  0  0  0  0  0  0  0  0
   11.0456   -2.9774   18.2694 N   0  0  0  0  0  0  0  0  0  0  0  0
   10.4788   -3.0457   21.8593 C   0  0  0  0  0  0  0  0  0  0  0  0
    8.8693   -5.8099   18.4657 N   0  0  0  0  0  0  0  0  0  0  0  0
    8.9892   -0.7926   25.4573 C   0  0  0  0  0  0  0  0  0  0  0  0
   10.5677   -3.4462   20.5323 C   0  0  0  0  0  0  0  0  0  0  0  0
  1  8  1  0
  1 12  4  0
  1 14  4  0
  2  3  4  0
  2 18  4  0
  3 20  4  0
  3 22  4  0
  4 11  4  0
  4 21  4  0
  5  9  4  0
  5 16  4  0
  6 15  4  0
  6 16  4  0
  7 22  4  0
  7 26  4  0
  8 10  4  0
  8 25  4  0
  9 15  4  0
  9 17  1  0
 10 21  4  0
 11 25  4  0
 12 23  4  0
 13 20  4  0
 13 26  4  0
 14 19  4  0
 17 18  4  0
 17 24  4  0
 19 23  4  0
 20 24  4  0
 23 26  1  0
M  END
$$$$

 Created by Python create_sdf_string function

 26 30  0  0  0  0  0  0  0  0999 V2000
   10.0084   -1.8019   23.4945 C   0  0  0  0  0  0  0  0  0  0  0  0
   10.0005   -4.2520   16.5631 C   0  0  0  0  0  0  0  0  0  0  0  0
   10.2759   -4.0036   17.8845 C   0  0  0  0  0  0  0  0  0  0  0  0
    8.5652    1.5478   25.3778 N   0  0  0  0  0  0  0  0  0  0  0  0
    6.8048   -7.5457   17.8752 C   0  0  0  0  0  0  0  0  0  0  0  0
    6.1721   -8.2186   15.9886 N   0  0  0  0  0  0  0  0  0  0  0  0
   11.1764   -2.6600   19.5604 C   0  0  0  0  0  0  0  0  0  0  0  0
    9.5491   -0.6380   24.1912 C   0  0  0  0  0  0  0  0  0  0  0  0
    7.5337   -6.9256   16.9519 C   0  0  0  0  0  0  0  0  0  0  0  0
    9.6782    0.5671   23.5143 C   0  0  0  0  0  0  0  0  0  0  0  0
    8.4532    0.3482   26.0821 C   0  0  0  0  0  0  0  0  0  0  0  0
   10.4239   -1.7677   22.2230 N   0  0  0  0  0  0  0  0  0  0  0  0
    9.9468   -4.5953   20.1709 C   0  0  0  0  0  0  0  0  0  0  0  0
   10.0366   -3.0590   23.9864 N   0  0  0  0  0  0  0  0  0  0  0  0
    7.1191   -7.3636   15.7739 C   0  0  0  0  0  0  0  0  0  0  0  0
    5.9612   -8.3203   17.2732 N   0  0  0  0  0  0  0  0  0  0  0  0
    8.5296   -5.9814   17.1841 C   0  0  0  0  0  0  0  0  0  0  0  0
    9.1527   -5.2118   16.2116 C   0  0  0  0  0  0  0  0  0  0  0  0
   10.3364   -3.8368   22.9255 O   0  0  0  0  0  0  0  0  0  0  0  0
    9.6947   -4.8407   18.8534 C   0  0  0  0  0  0  0  0  0  0  0  0
    9.1596    1.7042   24.1381 C   0  0  0  0  0  0  0  0  0  0  0  0
   11.0456   -2.9774   18.2694 N   0  0  0  0  0  0  0  0  0  0  0  0
   10.4788   -3.0457   21.8593 C   0  0  0  0  0  0  0  0  0  0  0  0
    8.8693   -5.8099   18.4657 N   0  0  0  0  0  0  0  0  0  0  0  0
    8.9892   -0.7926   25.4573 C   0  0  0  0  0  0  0  0  0  0  0  0
   10.5677   -3.4462   20.5323 C   0  0  0  0  0  0  0  0  0  0  0  0
  1  8  1  0
  1 12  4  0
  1 14  4  0
  2  3  4  0
  2 18  4  0
  3 20  4  0
  3 22  4  0
  4 11  4  0
  4 21  4  0
  5  9  4  0
  5 16  4  0
  6 15  4  0
  6 16  4  0
  7 22  4  0
  7 26  4  0
  8 10  4  0
  8 25  4  0
  9 15  4  0
  9 17  1  0
 10 21  4  0
 11 25  4  0
 12 23  4  0
 13 20  4  0
 13 26  4  0
 14 19  4  0
 17 18  4  0
 17 24  4  0
 19 23  4  0
 20 24  4  0
 23 26  1  0
M  END
$$$$

 Created by Python create_sdf_string function

 26 30  0  0  0  0  0  0  0  0999 V2000
   10.0084   -1.8019   23.4945 C   0  0  0  0  0  0  0  0  0  0  0  0
   10.0005   -4.2520   16.5631 C   0  0  0  0  0  0  0  0  0  0  0  0
   10.2759   -4.0036   17.8845 C   0  0  0  0  0  0  0  0  0  0  0  0
    8.5652    1.5478   25.3778 N   0  0  0  0  0  0  0  0  0  0  0  0
    6.8048   -7.5457   17.8752 C   0  0  0  0  0  0  0  0  0  0  0  0
    6.1721   -8.2186   15.9886 N   0  0  0  0  0  0  0  0  0  0  0  0
   11.1764   -2.6600   19.5604 C   0  0  0  0  0  0  0  0  0  0  0  0
    9.5491   -0.6380   24.1912 C   0  0  0  0  0  0  0  0  0  0  0  0
    7.5337   -6.9256   16.9519 C   0  0  0  0  0  0  0  0  0  0  0  0
    9.6782    0.5671   23.5143 C   0  0  0  0  0  0  0  0  0  0  0  0
    8.4532    0.3482   26.0821 C   0  0  0  0  0  0  0  0  0  0  0  0
   10.4239   -1.7677   22.2230 N   0  0  0  0  0  0  0  0  0  0  0  0
    9.9468   -4.5953   20.1709 C   0  0  0  0  0  0  0  0  0  0  0  0
   10.0366   -3.0590   23.9864 N   0  0  0  0  0  0  0  0  0  0  0  0
    7.1191   -7.3636   15.7739 C   0  0  0  0  0  0  0  0  0  0  0  0
    5.9612   -8.3203   17.2732 N   0  0  0  0  0  0  0  0  0  0  0  0
    8.5296   -5.9814   17.1841 C   0  0  0  0  0  0  0  0  0  0  0  0
    9.1527   -5.2118   16.2116 C   0  0  0  0  0  0  0  0  0  0  0  0
   10.3364   -3.8368   22.9255 O   0  0  0  0  0  0  0  0  0  0  0  0
    9.6947   -4.8407   18.8534 C   0  0  0  0  0  0  0  0  0  0  0  0
    9.1596    1.7042   24.1381 C   0  0  0  0  0  0  0  0  0  0  0  0
   11.0456   -2.9774   18.2694 N   0  0  0  0  0  0  0  0  0  0  0  0
   10.4788   -3.0457   21.8593 C   0  0  0  0  0  0  0  0  0  0  0  0
    8.8693   -5.8099   18.4657 N   0  0  0  0  0  0  0  0  0  0  0  0
    8.9892   -0.7926   25.4573 C   0  0  0  0  0  0  0  0  0  0  0  0
   10.5677   -3.4462   20.5323 C   0  0  0  0  0  0  0  0  0  0  0  0
  1  8  1  0
  1 12  4  0
  1 14  4  0
  2  3  4  0
  2 18  4  0
  3 20  4  0
  3 22  4  0
  4 11  4  0
  4 21  4  0
  5  9  4  0
  5 16  4  0
  6 15  4  0
  6 16  4  0
  7 22  4  0
  7 26  4  0
  8 10  4  0
  8 25  4  0
  9 15  4  0
  9 17  1  0
 10 21  4  0
 11 25  4  0
 12 23  4  0
 13 20  4  0
 13 26  4  0
 14 19  4  0
 17 18  4  0
 17 24  4  0
 19 23  4  0
 20 24  4  0
 23 26  1  0
M  END
$$$$

 Created by Python create_sdf_string function

 26 30  0  0  0  0  0  0  0  0999 V2000
   10.0084   -1.8019   23.4945 C   0  0  0  0  0  0  0  0  0  0  0  0
   10.0005   -4.2520   16.5631 C   0  0  0  0  0  0  0  0  0  0  0  0
   10.2759   -4.0036   17.8845 C   0  0  0  0  0  0  0  0  0  0  0  0
    8.5652    1.5478   25.3778 N   0  0  0  0  0  0  0  0  0  0  0  0
    6.8048   -7.5457   17.8752 C   0  0  0  0  0  0  0  0  0  0  0  0
    6.1721   -8.2186   15.9886 N   0  0  0  0  0  0  0  0  0  0  0  0
   11.1764   -2.6600   19.5604 C   0  0  0  0  0  0  0  0  0  0  0  0
    9.5491   -0.6380   24.1912 C   0  0  0  0  0  0  0  0  0  0  0  0
    7.5337   -6.9256   16.9519 C   0  0  0  0  0  0  0  0  0  0  0  0
    9.6782    0.5671   23.5143 C   0  0  0  0  0  0  0  0  0  0  0  0
    8.4532    0.3482   26.0821 C   0  0  0  0  0  0  0  0  0  0  0  0
   10.4239   -1.7677   22.2230 N   0  0  0  0  0  0  0  0  0  0  0  0
    9.9468   -4.5953   20.1709 C   0  0  0  0  0  0  0  0  0  0  0  0
   10.0366   -3.0590   23.9864 N   0  0  0  0  0  0  0  0  0  0  0  0
    7.1191   -7.3636   15.7739 C   0  0  0  0  0  0  0  0  0  0  0  0
    5.9612   -8.3203   17.2732 N   0  0  0  0  0  0  0  0  0  0  0  0
    8.5296   -5.9814   17.1841 C   0  0  0  0  0  0  0  0  0  0  0  0
    9.1527   -5.2118   16.2116 C   0  0  0  0  0  0  0  0  0  0  0  0
   10.3364   -3.8368   22.9255 O   0  0  0  0  0  0  0  0  0  0  0  0
    9.6947   -4.8407   18.8534 C   0  0  0  0  0  0  0  0  0  0  0  0
    9.1596    1.7042   24.1381 C   0  0  0  0  0  0  0  0  0  0  0  0
   11.0456   -2.9774   18.2694 N   0  0  0  0  0  0  0  0  0  0  0  0
   10.4788   -3.0457   21.8593 C   0  0  0  0  0  0  0  0  0  0  0  0
    8.8693   -5.8099   18.4657 N   0  0  0  0  0  0  0  0  0  0  0  0
    8.9892   -0.7926   25.4573 C   0  0  0  0  0  0  0  0  0  0  0  0
   10.5677   -3.4462   20.5323 C   0  0  0  0  0  0  0  0  0  0  0  0
  1  8  1  0
  1 12  4  0
  1 14  4  0
  2  3  4  0
  2 18  4  0
  3 20  4  0
  3 22  4  0
  4 11  4  0
  4 21  4  0
  5  9  4  0
  5 16  4  0
  6 15  4  0
  6 16  4  0
  7 22  4  0
  7 26  4  0
  8 10  4  0
  8 25  4  0
  9 15  4  0
  9 17  1  0
 10 21  4  0
 11 25  4  0
 12 23  4  0
 13 20  4  0
 13 26  4  0
 14 19  4  0
 17 18  4  0
 17 24  4  0
 19 23  4  0
 20 24  4  0
 23 26  1  0
M  END
$$$$

 Created by Python create_sdf_string function

 26 30  0  0  0  0  0  0  0  0999 V2000
   10.0084   -1.8019   23.4945 C   0  0  0  0  0  0  0  0  0  0  0  0
   10.0005   -4.2520   16.5631 C   0  0  0  0  0  0  0  0  0  0  0  0
   10.2759   -4.0036   17.8845 C   0  0  0  0  0  0  0  0  0  0  0  0
    8.5652    1.5478   25.3778 N   0  0  0  0  0  0  0  0  0  0  0  0
    6.8048   -7.5457   17.8752 C   0  0  0  0  0  0  0  0  0  0  0  0
    6.1721   -8.2186   15.9886 N   0  0  0  0  0  0  0  0  0  0  0  0
   11.1764   -2.6600   19.5604 C   0  0  0  0  0  0  0  0  0  0  0  0
    9.5491   -0.6380   24.1912 C   0  0  0  0  0  0  0  0  0  0  0  0
    7.5337   -6.9256   16.9519 C   0  0  0  0  0  0  0  0  0  0  0  0
    9.6782    0.5671   23.5143 C   0  0  0  0  0  0  0  0  0  0  0  0
    8.4532    0.3482   26.0821 C   0  0  0  0  0  0  0  0  0  0  0  0
   10.4239   -1.7677   22.2230 N   0  0  0  0  0  0  0  0  0  0  0  0
    9.9468   -4.5953   20.1709 C   0  0  0  0  0  0  0  0  0  0  0  0
   10.0366   -3.0590   23.9864 N   0  0  0  0  0  0  0  0  0  0  0  0
    7.1191   -7.3636   15.7739 C   0  0  0  0  0  0  0  0  0  0  0  0
    5.9612   -8.3203   17.2732 N   0  0  0  0  0  0  0  0  0  0  0  0
    8.5296   -5.9814   17.1841 C   0  0  0  0  0  0  0  0  0  0  0  0
    9.1527   -5.2118   16.2116 C   0  0  0  0  0  0  0  0  0  0  0  0
   10.3364   -3.8368   22.9255 O   0  0  0  0  0  0  0  0  0  0  0  0
    9.6947   -4.8407   18.8534 C   0  0  0  0  0  0  0  0  0  0  0  0
    9.1596    1.7042   24.1381 C   0  0  0  0  0  0  0  0  0  0  0  0
   11.0456   -2.9774   18.2694 N   0  0  0  0  0  0  0  0  0  0  0  0
   10.4788   -3.0457   21.8593 C   0  0  0  0  0  0  0  0  0  0  0  0
    8.8693   -5.8099   18.4657 N   0  0  0  0  0  0  0  0  0  0  0  0
    8.9892   -0.7926   25.4573 C   0  0  0  0  0  0  0  0  0  0  0  0
   10.5677   -3.4462   20.5323 C   0  0  0  0  0  0  0  0  0  0  0  0
  1  8  1  0
  1 12  4  0
  1 14  4  0
  2  3  4  0
  2 18  4  0
  3 20  4  0
  3 22  4  0
  4 11  4  0
  4 21  4  0
  5  9  4  0
  5 16  4  0
  6 15  4  0
  6 16  4  0
  7 22  4  0
  7 26  4  0
  8 10  4  0
  8 25  4  0
  9 15  4  0
  9 17  1  0
 10 21  4  0
 11 25  4  0
 12 23  4  0
 13 20  4  0
 13 26  4  0
 14 19  4  0
 17 18  4  0
 17 24  4  0
 19 23  4  0
 20 24  4  0
 23 26  1  0
M  END
$$$$

 Created by Python create_sdf_string function

 26 30  0  0  0  0  0  0  0  0999 V2000
   10.0084   -1.8019   23.4945 C   0  0  0  0  0  0  0  0  0  0  0  0
   10.0005   -4.2520   16.5631 C   0  0  0  0  0  0  0  0  0  0  0  0
   10.2759   -4.0036   17.8845 C   0  0  0  0  0  0  0  0  0  0  0  0
    8.5652    1.5478   25.3778 N   0  0  0  0  0  0  0  0  0  0  0  0
    6.8048   -7.5457   17.8752 C   0  0  0  0  0  0  0  0  0  0  0  0
    6.1721   -8.2186   15.9886 N   0  0  0  0  0  0  0  0  0  0  0  0
   11.1764   -2.6600   19.5604 C   0  0  0  0  0  0  0  0  0  0  0  0
    9.5491   -0.6380   24.1912 C   0  0  0  0  0  0  0  0  0  0  0  0
    7.5337   -6.9256   16.9519 C   0  0  0  0  0  0  0  0  0  0  0  0
    9.6782    0.5671   23.5143 C   0  0  0  0  0  0  0  0  0  0  0  0
    8.4532    0.3482   26.0821 C   0  0  0  0  0  0  0  0  0  0  0  0
   10.4239   -1.7677   22.2230 N   0  0  0  0  0  0  0  0  0  0  0  0
    9.9468   -4.5953   20.1709 C   0  0  0  0  0  0  0  0  0  0  0  0
   10.0366   -3.0590   23.9864 N   0  0  0  0  0  0  0  0  0  0  0  0
    7.1191   -7.3636   15.7739 C   0  0  0  0  0  0  0  0  0  0  0  0
    5.9612   -8.3203   17.2732 N   0  0  0  0  0  0  0  0  0  0  0  0
    8.5296   -5.9814   17.1841 C   0  0  0  0  0  0  0  0  0  0  0  0
    9.1527   -5.2118   16.2116 C   0  0  0  0  0  0  0  0  0  0  0  0
   10.3364   -3.8368   22.9255 O   0  0  0  0  0  0  0  0  0  0  0  0
    9.6947   -4.8407   18.8534 C   0  0  0  0  0  0  0  0  0  0  0  0
    9.1596    1.7042   24.1381 C   0  0  0  0  0  0  0  0  0  0  0  0
   11.0456   -2.9774   18.2694 N   0  0  0  0  0  0  0  0  0  0  0  0
   10.4788   -3.0457   21.8593 C   0  0  0  0  0  0  0  0  0  0  0  0
    8.8693   -5.8099   18.4657 N   0  0  0  0  0  0  0  0  0  0  0  0
    8.9892   -0.7926   25.4573 C   0  0  0  0  0  0  0  0  0  0  0  0
   10.5677   -3.4462   20.5323 C   0  0  0  0  0  0  0  0  0  0  0  0
  1  8  1  0
  1 12  4  0
  1 14  4  0
  2  3  4  0
  2 18  4  0
  3 20  4  0
  3 22  4  0
  4 11  4  0
  4 21  4  0
  5  9  4  0
  5 16  4  0
  6 15  4  0
  6 16  4  0
  7 22  4  0
  7 26  4  0
  8 10  4  0
  8 25  4  0
  9 15  4  0
  9 17  1  0
 10 21  4  0
 11 25  4  0
 12 23  4  0
 13 20  4  0
 13 26  4  0
 14 19  4  0
 17 18  4  0
 17 24  4  0
 19 23  4  0
 20 24  4  0
 23 26  1  0
M  END
$$$$

 Created by Python create_sdf_string function

 26 30  0  0  0  0  0  0  0  0999 V2000
   10.0084   -1.8019   23.4945 C   0  0  0  0  0  0  0  0  0  0  0  0
   10.0005   -4.2520   16.5631 C   0  0  0  0  0  0  0  0  0  0  0  0
   10.2759   -4.0036   17.8845 C   0  0  0  0  0  0  0  0  0  0  0  0
    8.5652    1.5478   25.3778 N   0  0  0  0  0  0  0  0  0  0  0  0
    6.8048   -7.5457   17.8752 C   0  0  0  0  0  0  0  0  0  0  0  0
    6.1721   -8.2186   15.9886 N   0  0  0  0  0  0  0  0  0  0  0  0
   11.1764   -2.6600   19.5604 C   0  0  0  0  0  0  0  0  0  0  0  0
    9.5491   -0.6380   24.1912 C   0  0  0  0  0  0  0  0  0  0  0  0
    7.5337   -6.9256   16.9519 C   0  0  0  0  0  0  0  0  0  0  0  0
    9.6782    0.5671   23.5143 C   0  0  0  0  0  0  0  0  0  0  0  0
    8.4532    0.3482   26.0821 C   0  0  0  0  0  0  0  0  0  0  0  0
   10.4239   -1.7677   22.2230 N   0  0  0  0  0  0  0  0  0  0  0  0
    9.9468   -4.5953   20.1709 C   0  0  0  0  0  0  0  0  0  0  0  0
   10.0366   -3.0590   23.9864 N   0  0  0  0  0  0  0  0  0  0  0  0
    7.1191   -7.3636   15.7739 C   0  0  0  0  0  0  0  0  0  0  0  0
    5.9612   -8.3203   17.2732 N   0  0  0  0  0  0  0  0  0  0  0  0
    8.5296   -5.9814   17.1841 C   0  0  0  0  0  0  0  0  0  0  0  0
    9.1527   -5.2118   16.2116 C   0  0  0  0  0  0  0  0  0  0  0  0
   10.3364   -3.8368   22.9255 O   0  0  0  0  0  0  0  0  0  0  0  0
    9.6947   -4.8407   18.8534 C   0  0  0  0  0  0  0  0  0  0  0  0
    9.1596    1.7042   24.1381 C   0  0  0  0  0  0  0  0  0  0  0  0
   11.0456   -2.9774   18.2694 N   0  0  0  0  0  0  0  0  0  0  0  0
   10.4788   -3.0457   21.8593 C   0  0  0  0  0  0  0  0  0  0  0  0
    8.8693   -5.8099   18.4657 N   0  0  0  0  0  0  0  0  0  0  0  0
    8.9892   -0.7926   25.4573 C   0  0  0  0  0  0  0  0  0  0  0  0
   10.5677   -3.4462   20.5323 C   0  0  0  0  0  0  0  0  0  0  0  0
  1  8  1  0
  1 12  4  0
  1 14  4  0
  2  3  4  0
  2 18  4  0
  3 20  4  0
  3 22  4  0
  4 11  4  0
  4 21  4  0
  5  9  4  0
  5 16  4  0
  6 15  4  0
  6 16  4  0
  7 22  4  0
  7 26  4  0
  8 10  4  0
  8 25  4  0
  9 15  4  0
  9 17  1  0
 10 21  4  0
 11 25  4  0
 12 23  4  0
 13 20  4  0
 13 26  4  0
 14 19  4  0
 17 18  4  0
 17 24  4  0
 19 23  4  0
 20 24  4  0
 23 26  1  0
M  END
$$$$

 Created by Python create_sdf_string function

 26 30  0  0  0  0  0  0  0  0999 V2000
   10.0084   -1.8019   23.4945 C   0  0  0  0  0  0  0  0  0  0  0  0
   10.0005   -4.2520   16.5631 C   0  0  0  0  0  0  0  0  0  0  0  0
   10.2759   -4.0036   17.8845 C   0  0  0  0  0  0  0  0  0  0  0  0
    8.5652    1.5478   25.3778 N   0  0  0  0  0  0  0  0  0  0  0  0
    6.8048   -7.5457   17.8752 C   0  0  0  0  0  0  0  0  0  0  0  0
    6.1721   -8.2186   15.9886 N   0  0  0  0  0  0  0  0  0  0  0  0
   11.1764   -2.6600   19.5604 C   0  0  0  0  0  0  0  0  0  0  0  0
    9.5491   -0.6380   24.1912 C   0  0  0  0  0  0  0  0  0  0  0  0
    7.5337   -6.9256   16.9519 C   0  0  0  0  0  0  0  0  0  0  0  0
    9.6782    0.5671   23.5143 C   0  0  0  0  0  0  0  0  0  0  0  0
    8.4532    0.3482   26.0821 C   0  0  0  0  0  0  0  0  0  0  0  0
   10.4239   -1.7677   22.2230 N   0  0  0  0  0  0  0  0  0  0  0  0
    9.9468   -4.5953   20.1709 C   0  0  0  0  0  0  0  0  0  0  0  0
   10.0366   -3.0590   23.9864 N   0  0  0  0  0  0  0  0  0  0  0  0
    7.1191   -7.3636   15.7739 C   0  0  0  0  0  0  0  0  0  0  0  0
    5.9612   -8.3203   17.2732 N   0  0  0  0  0  0  0  0  0  0  0  0
    8.5296   -5.9814   17.1841 C   0  0  0  0  0  0  0  0  0  0  0  0
    9.1527   -5.2118   16.2116 C   0  0  0  0  0  0  0  0  0  0  0  0
   10.3364   -3.8368   22.9255 O   0  0  0  0  0  0  0  0  0  0  0  0
    9.6947   -4.8407   18.8534 C   0  0  0  0  0  0  0  0  0  0  0  0
    9.1596    1.7042   24.1381 C   0  0  0  0  0  0  0  0  0  0  0  0
   11.0456   -2.9774   18.2694 N   0  0  0  0  0  0  0  0  0  0  0  0
   10.4788   -3.0457   21.8593 C   0  0  0  0  0  0  0  0  0  0  0  0
    8.8693   -5.8099   18.4657 N   0  0  0  0  0  0  0  0  0  0  0  0
    8.9892   -0.7926   25.4573 C   0  0  0  0  0  0  0  0  0  0  0  0
   10.5677   -3.4462   20.5323 C   0  0  0  0  0  0  0  0  0  0  0  0
  1  8  1  0
  1 12  4  0
  1 14  4  0
  2  3  4  0
  2 18  4  0
  3 20  4  0
  3 22  4  0
  4 11  4  0
  4 21  4  0
  5  9  4  0
  5 16  4  0
  6 15  4  0
  6 16  4  0
  7 22  4  0
  7 26  4  0
  8 10  4  0
  8 25  4  0
  9 15  4  0
  9 17  1  0
 10 21  4  0
 11 25  4  0
 12 23  4  0
 13 20  4  0
 13 26  4  0
 14 19  4  0
 17 18  4  0
 17 24  4  0
 19 23  4  0
 20 24  4  0
 23 26  1  0
M  END
$$$$

 Created by Python create_sdf_string function

 26 30  0  0  0  0  0  0  0  0999 V2000
   10.0084   -1.8019   23.4945 C   0  0  0  0  0  0  0  0  0  0  0  0
   10.0005   -4.2520   16.5631 C   0  0  0  0  0  0  0  0  0  0  0  0
   10.2759   -4.0036   17.8845 C   0  0  0  0  0  0  0  0  0  0  0  0
    8.5652    1.5478   25.3778 N   0  0  0  0  0  0  0  0  0  0  0  0
    6.8048   -7.5457   17.8752 C   0  0  0  0  0  0  0  0  0  0  0  0
    6.1721   -8.2186   15.9886 N   0  0  0  0  0  0  0  0  0  0  0  0
   11.1764   -2.6600   19.5604 C   0  0  0  0  0  0  0  0  0  0  0  0
    9.5491   -0.6380   24.1912 C   0  0  0  0  0  0  0  0  0  0  0  0
    7.5337   -6.9256   16.9519 C   0  0  0  0  0  0  0  0  0  0  0  0
    9.6782    0.5671   23.5143 C   0  0  0  0  0  0  0  0  0  0  0  0
    8.4532    0.3482   26.0821 C   0  0  0  0  0  0  0  0  0  0  0  0
   10.4239   -1.7677   22.2230 N   0  0  0  0  0  0  0  0  0  0  0  0
    9.9468   -4.5953   20.1709 C   0  0  0  0  0  0  0  0  0  0  0  0
   10.0366   -3.0590   23.9864 N   0  0  0  0  0  0  0  0  0  0  0  0
    7.1191   -7.3636   15.7739 C   0  0  0  0  0  0  0  0  0  0  0  0
    5.9612   -8.3203   17.2732 N   0  0  0  0  0  0  0  0  0  0  0  0
    8.5296   -5.9814   17.1841 C   0  0  0  0  0  0  0  0  0  0  0  0
    9.1527   -5.2118   16.2116 C   0  0  0  0  0  0  0  0  0  0  0  0
   10.3364   -3.8368   22.9255 O   0  0  0  0  0  0  0  0  0  0  0  0
    9.6947   -4.8407   18.8534 C   0  0  0  0  0  0  0  0  0  0  0  0
    9.1596    1.7042   24.1381 C   0  0  0  0  0  0  0  0  0  0  0  0
   11.0456   -2.9774   18.2694 N   0  0  0  0  0  0  0  0  0  0  0  0
   10.4788   -3.0457   21.8593 C   0  0  0  0  0  0  0  0  0  0  0  0
    8.8693   -5.8099   18.4657 N   0  0  0  0  0  0  0  0  0  0  0  0
    8.9892   -0.7926   25.4573 C   0  0  0  0  0  0  0  0  0  0  0  0
   10.5677   -3.4462   20.5323 C   0  0  0  0  0  0  0  0  0  0  0  0
  1  8  1  0
  1 12  4  0
  1 14  4  0
  2  3  4  0
  2 18  4  0
  3 20  4  0
  3 22  4  0
  4 11  4  0
  4 21  4  0
  5  9  4  0
  5 16  4  0
  6 15  4  0
  6 16  4  0
  7 22  4  0
  7 26  4  0
  8 10  4  0
  8 25  4  0
  9 15  4  0
  9 17  1  0
 10 21  4  0
 11 25  4  0
 12 23  4  0
 13 20  4  0
 13 26  4  0
 14 19  4  0
 17 18  4  0
 17 24  4  0
 19 23  4  0
 20 24  4  0
 23 26  1  0
M  END
$$$$

 Created by Python create_sdf_string function

 26 30  0  0  0  0  0  0  0  0999 V2000
   10.0084   -1.8019   23.4945 C   0  0  0  0  0  0  0  0  0  0  0  0
   10.0005   -4.2520   16.5631 C   0  0  0  0  0  0  0  0  0  0  0  0
   10.2759   -4.0036   17.8845 C   0  0  0  0  0  0  0  0  0  0  0  0
    8.5652    1.5478   25.3778 N   0  0  0  0  0  0  0  0  0  0  0  0
    6.8048   -7.5457   17.8752 C   0  0  0  0  0  0  0  0  0  0  0  0
    6.1721   -8.2186   15.9886 N   0  0  0  0  0  0  0  0  0  0  0  0
   11.1764   -2.6600   19.5604 C   0  0  0  0  0  0  0  0  0  0  0  0
    9.5491   -0.6380   24.1912 C   0  0  0  0  0  0  0  0  0  0  0  0
    7.5337   -6.9256   16.9519 C   0  0  0  0  0  0  0  0  0  0  0  0
    9.6782    0.5671   23.5143 C   0  0  0  0  0  0  0  0  0  0  0  0
    8.4532    0.3482   26.0821 C   0  0  0  0  0  0  0  0  0  0  0  0
   10.4239   -1.7677   22.2230 N   0  0  0  0  0  0  0  0  0  0  0  0
    9.9468   -4.5953   20.1709 C   0  0  0  0  0  0  0  0  0  0  0  0
   10.0366   -3.0590   23.9864 N   0  0  0  0  0  0  0  0  0  0  0  0
    7.1191   -7.3636   15.7739 C   0  0  0  0  0  0  0  0  0  0  0  0
    5.9612   -8.3203   17.2732 N   0  0  0  0  0  0  0  0  0  0  0  0
    8.5296   -5.9814   17.1841 C   0  0  0  0  0  0  0  0  0  0  0  0
    9.1527   -5.2118   16.2116 C   0  0  0  0  0  0  0  0  0  0  0  0
   10.3364   -3.8368   22.9255 O   0  0  0  0  0  0  0  0  0  0  0  0
    9.6947   -4.8407   18.8534 C   0  0  0  0  0  0  0  0  0  0  0  0
    9.1596    1.7042   24.1381 C   0  0  0  0  0  0  0  0  0  0  0  0
   11.0456   -2.9774   18.2694 N   0  0  0  0  0  0  0  0  0  0  0  0
   10.4788   -3.0457   21.8593 C   0  0  0  0  0  0  0  0  0  0  0  0
    8.8693   -5.8099   18.4657 N   0  0  0  0  0  0  0  0  0  0  0  0
    8.9892   -0.7926   25.4573 C   0  0  0  0  0  0  0  0  0  0  0  0
   10.5677   -3.4462   20.5323 C   0  0  0  0  0  0  0  0  0  0  0  0
  1  8  1  0
  1 12  4  0
  1 14  4  0
  2  3  4  0
  2 18  4  0
  3 20  4  0
  3 22  4  0
  4 11  4  0
  4 21  4  0
  5  9  4  0
  5 16  4  0
  6 15  4  0
  6 16  4  0
  7 22  4  0
  7 26  4  0
  8 10  4  0
  8 25  4  0
  9 15  4  0
  9 17  1  0
 10 21  4  0
 11 25  4  0
 12 23  4  0
 13 20  4  0
 13 26  4  0
 14 19  4  0
 17 18  4  0
 17 24  4  0
 19 23  4  0
 20 24  4  0
 23 26  1  0
M  END
$$$$

 Created by Python create_sdf_string function

 26 30  0  0  0  0  0  0  0  0999 V2000
   10.0084   -1.8019   23.4945 C   0  0  0  0  0  0  0  0  0  0  0  0
   10.0005   -4.2520   16.5631 C   0  0  0  0  0  0  0  0  0  0  0  0
   10.2759   -4.0036   17.8845 C   0  0  0  0  0  0  0  0  0  0  0  0
    8.5652    1.5478   25.3778 N   0  0  0  0  0  0  0  0  0  0  0  0
    6.8048   -7.5457   17.8752 C   0  0  0  0  0  0  0  0  0  0  0  0
    6.1721   -8.2186   15.9886 N   0  0  0  0  0  0  0  0  0  0  0  0
   11.1764   -2.6600   19.5604 C   0  0  0  0  0  0  0  0  0  0  0  0
    9.5491   -0.6380   24.1912 C   0  0  0  0  0  0  0  0  0  0  0  0
    7.5337   -6.9256   16.9519 C   0  0  0  0  0  0  0  0  0  0  0  0
    9.6782    0.5671   23.5143 C   0  0  0  0  0  0  0  0  0  0  0  0
    8.4532    0.3482   26.0821 C   0  0  0  0  0  0  0  0  0  0  0  0
   10.4239   -1.7677   22.2230 N   0  0  0  0  0  0  0  0  0  0  0  0
    9.9468   -4.5953   20.1709 C   0  0  0  0  0  0  0  0  0  0  0  0
   10.0366   -3.0590   23.9864 N   0  0  0  0  0  0  0  0  0  0  0  0
    7.1191   -7.3636   15.7739 C   0  0  0  0  0  0  0  0  0  0  0  0
    5.9612   -8.3203   17.2732 N   0  0  0  0  0  0  0  0  0  0  0  0
    8.5296   -5.9814   17.1841 C   0  0  0  0  0  0  0  0  0  0  0  0
    9.1527   -5.2118   16.2116 C   0  0  0  0  0  0  0  0  0  0  0  0
   10.3364   -3.8368   22.9255 O   0  0  0  0  0  0  0  0  0  0  0  0
    9.6947   -4.8407   18.8534 C   0  0  0  0  0  0  0  0  0  0  0  0
    9.1596    1.7042   24.1381 C   0  0  0  0  0  0  0  0  0  0  0  0
   11.0456   -2.9774   18.2694 N   0  0  0  0  0  0  0  0  0  0  0  0
   10.4788   -3.0457   21.8593 C   0  0  0  0  0  0  0  0  0  0  0  0
    8.8693   -5.8099   18.4657 N   0  0  0  0  0  0  0  0  0  0  0  0
    8.9892   -0.7926   25.4573 C   0  0  0  0  0  0  0  0  0  0  0  0
   10.5677   -3.4462   20.5323 C   0  0  0  0  0  0  0  0  0  0  0  0
  1  8  1  0
  1 12  4  0
  1 14  4  0
  2  3  4  0
  2 18  4  0
  3 20  4  0
  3 22  4  0
  4 11  4  0
  4 21  4  0
  5  9  4  0
  5 16  4  0
  6 15  4  0
  6 16  4  0
  7 22  4  0
  7 26  4  0
  8 10  4  0
  8 25  4  0
  9 15  4  0
  9 17  1  0
 10 21  4  0
 11 25  4  0
 12 23  4  0
 13 20  4  0
 13 26  4  0
 14 19  4  0
 17 18  4  0
 17 24  4  0
 19 23  4  0
 20 24  4  0
 23 26  1  0
M  END
$$$$

 Created by Python create_sdf_string function

 26 30  0  0  0  0  0  0  0  0999 V2000
   10.0084   -1.8019   23.4945 C   0  0  0  0  0  0  0  0  0  0  0  0
   10.0005   -4.2520   16.5631 C   0  0  0  0  0  0  0  0  0  0  0  0
   10.2759   -4.0036   17.8845 C   0  0  0  0  0  0  0  0  0  0  0  0
    8.5652    1.5478   25.3778 N   0  0  0  0  0  0  0  0  0  0  0  0
    6.8048   -7.5457   17.8752 C   0  0  0  0  0  0  0  0  0  0  0  0
    6.1721   -8.2186   15.9886 N   0  0  0  0  0  0  0  0  0  0  0  0
   11.1764   -2.6600   19.5604 C   0  0  0  0  0  0  0  0  0  0  0  0
    9.5491   -0.6380   24.1912 C   0  0  0  0  0  0  0  0  0  0  0  0
    7.5337   -6.9256   16.9519 C   0  0  0  0  0  0  0  0  0  0  0  0
    9.6782    0.5671   23.5143 C   0  0  0  0  0  0  0  0  0  0  0  0
    8.4532    0.3482   26.0821 C   0  0  0  0  0  0  0  0  0  0  0  0
   10.4239   -1.7677   22.2230 N   0  0  0  0  0  0  0  0  0  0  0  0
    9.9468   -4.5953   20.1709 C   0  0  0  0  0  0  0  0  0  0  0  0
   10.0366   -3.0590   23.9864 N   0  0  0  0  0  0  0  0  0  0  0  0
    7.1191   -7.3636   15.7739 C   0  0  0  0  0  0  0  0  0  0  0  0
    5.9612   -8.3203   17.2732 N   0  0  0  0  0  0  0  0  0  0  0  0
    8.5296   -5.9814   17.1841 C   0  0  0  0  0  0  0  0  0  0  0  0
    9.1527   -5.2118   16.2116 C   0  0  0  0  0  0  0  0  0  0  0  0
   10.3364   -3.8368   22.9255 O   0  0  0  0  0  0  0  0  0  0  0  0
    9.6947   -4.8407   18.8534 C   0  0  0  0  0  0  0  0  0  0  0  0
    9.1596    1.7042   24.1381 C   0  0  0  0  0  0  0  0  0  0  0  0
   11.0456   -2.9774   18.2694 N   0  0  0  0  0  0  0  0  0  0  0  0
   10.4788   -3.0457   21.8593 C   0  0  0  0  0  0  0  0  0  0  0  0
    8.8693   -5.8099   18.4657 N   0  0  0  0  0  0  0  0  0  0  0  0
    8.9892   -0.7926   25.4573 C   0  0  0  0  0  0  0  0  0  0  0  0
   10.5677   -3.4462   20.5323 C   0  0  0  0  0  0  0  0  0  0  0  0
  1  8  1  0
  1 12  4  0
  1 14  4  0
  2  3  4  0
  2 18  4  0
  3 20  4  0
  3 22  4  0
  4 11  4  0
  4 21  4  0
  5  9  4  0
  5 16  4  0
  6 15  4  0
  6 16  4  0
  7 22  4  0
  7 26  4  0
  8 10  4  0
  8 25  4  0
  9 15  4  0
  9 17  1  0
 10 21  4  0
 11 25  4  0
 12 23  4  0
 13 20  4  0
 13 26  4  0
 14 19  4  0
 17 18  4  0
 17 24  4  0
 19 23  4  0
 20 24  4  0
 23 26  1  0
M  END
$$$$

 Created by Python create_sdf_string function

 26 30  0  0  0  0  0  0  0  0999 V2000
   10.0084   -1.8019   23.4945 C   0  0  0  0  0  0  0  0  0  0  0  0
   10.0005   -4.2520   16.5631 C   0  0  0  0  0  0  0  0  0  0  0  0
   10.2759   -4.0036   17.8845 C   0  0  0  0  0  0  0  0  0  0  0  0
    8.5652    1.5478   25.3778 N   0  0  0  0  0  0  0  0  0  0  0  0
    6.8048   -7.5457   17.8752 C   0  0  0  0  0  0  0  0  0  0  0  0
    6.1721   -8.2186   15.9886 N   0  0  0  0  0  0  0  0  0  0  0  0
   11.1764   -2.6600   19.5604 C   0  0  0  0  0  0  0  0  0  0  0  0
    9.5491   -0.6380   24.1912 C   0  0  0  0  0  0  0  0  0  0  0  0
    7.5337   -6.9256   16.9519 C   0  0  0  0  0  0  0  0  0  0  0  0
    9.6782    0.5671   23.5143 C   0  0  0  0  0  0  0  0  0  0  0  0
    8.4532    0.3482   26.0821 C   0  0  0  0  0  0  0  0  0  0  0  0
   10.4239   -1.7677   22.2230 N   0  0  0  0  0  0  0  0  0  0  0  0
    9.9468   -4.5953   20.1709 C   0  0  0  0  0  0  0  0  0  0  0  0
   10.0366   -3.0590   23.9864 N   0  0  0  0  0  0  0  0  0  0  0  0
    7.1191   -7.3636   15.7739 C   0  0  0  0  0  0  0  0  0  0  0  0
    5.9612   -8.3203   17.2732 N   0  0  0  0  0  0  0  0  0  0  0  0
    8.5296   -5.9814   17.1841 C   0  0  0  0  0  0  0  0  0  0  0  0
    9.1527   -5.2118   16.2116 C   0  0  0  0  0  0  0  0  0  0  0  0
   10.3364   -3.8368   22.9255 O   0  0  0  0  0  0  0  0  0  0  0  0
    9.6947   -4.8407   18.8534 C   0  0  0  0  0  0  0  0  0  0  0  0
    9.1596    1.7042   24.1381 C   0  0  0  0  0  0  0  0  0  0  0  0
   11.0456   -2.9774   18.2694 N   0  0  0  0  0  0  0  0  0  0  0  0
   10.4788   -3.0457   21.8593 C   0  0  0  0  0  0  0  0  0  0  0  0
    8.8693   -5.8099   18.4657 N   0  0  0  0  0  0  0  0  0  0  0  0
    8.9892   -0.7926   25.4573 C   0  0  0  0  0  0  0  0  0  0  0  0
   10.5677   -3.4462   20.5323 C   0  0  0  0  0  0  0  0  0  0  0  0
  1  8  1  0
  1 12  4  0
  1 14  4  0
  2  3  4  0
  2 18  4  0
  3 20  4  0
  3 22  4  0
  4 11  4  0
  4 21  4  0
  5  9  4  0
  5 16  4  0
  6 15  4  0
  6 16  4  0
  7 22  4  0
  7 26  4  0
  8 10  4  0
  8 25  4  0
  9 15  4  0
  9 17  1  0
 10 21  4  0
 11 25  4  0
 12 23  4  0
 13 20  4  0
 13 26  4  0
 14 19  4  0
 17 18  4  0
 17 24  4  0
 19 23  4  0
 20 24  4  0
 23 26  1  0
M  END
$$$$

 Created by Python create_sdf_string function

 26 30  0  0  0  0  0  0  0  0999 V2000
   10.0084   -1.8019   23.4945 C   0  0  0  0  0  0  0  0  0  0  0  0
   10.0005   -4.2520   16.5631 C   0  0  0  0  0  0  0  0  0  0  0  0
   10.2759   -4.0036   17.8845 C   0  0  0  0  0  0  0  0  0  0  0  0
    8.5652    1.5478   25.3778 N   0  0  0  0  0  0  0  0  0  0  0  0
    6.8048   -7.5457   17.8752 C   0  0  0  0  0  0  0  0  0  0  0  0
    6.1721   -8.2186   15.9886 N   0  0  0  0  0  0  0  0  0  0  0  0
   11.1764   -2.6600   19.5604 C   0  0  0  0  0  0  0  0  0  0  0  0
    9.5491   -0.6380   24.1912 C   0  0  0  0  0  0  0  0  0  0  0  0
    7.5337   -6.9256   16.9519 C   0  0  0  0  0  0  0  0  0  0  0  0
    9.6782    0.5671   23.5143 C   0  0  0  0  0  0  0  0  0  0  0  0
    8.4532    0.3482   26.0821 C   0  0  0  0  0  0  0  0  0  0  0  0
   10.4239   -1.7677   22.2230 N   0  0  0  0  0  0  0  0  0  0  0  0
    9.9468   -4.5953   20.1709 C   0  0  0  0  0  0  0  0  0  0  0  0
   10.0366   -3.0590   23.9864 N   0  0  0  0  0  0  0  0  0  0  0  0
    7.1191   -7.3636   15.7739 C   0  0  0  0  0  0  0  0  0  0  0  0
    5.9612   -8.3203   17.2732 N   0  0  0  0  0  0  0  0  0  0  0  0
    8.5296   -5.9814   17.1841 C   0  0  0  0  0  0  0  0  0  0  0  0
    9.1527   -5.2118   16.2116 C   0  0  0  0  0  0  0  0  0  0  0  0
   10.3364   -3.8368   22.9255 O   0  0  0  0  0  0  0  0  0  0  0  0
    9.6947   -4.8407   18.8534 C   0  0  0  0  0  0  0  0  0  0  0  0
    9.1596    1.7042   24.1381 C   0  0  0  0  0  0  0  0  0  0  0  0
   11.0456   -2.9774   18.2694 N   0  0  0  0  0  0  0  0  0  0  0  0
   10.4788   -3.0457   21.8593 C   0  0  0  0  0  0  0  0  0  0  0  0
    8.8693   -5.8099   18.4657 N   0  0  0  0  0  0  0  0  0  0  0  0
    8.9892   -0.7926   25.4573 C   0  0  0  0  0  0  0  0  0  0  0  0
   10.5677   -3.4462   20.5323 C   0  0  0  0  0  0  0  0  0  0  0  0
  1  8  1  0
  1 12  4  0
  1 14  4  0
  2  3  4  0
  2 18  4  0
  3 20  4  0
  3 22  4  0
  4 11  4  0
  4 21  4  0
  5  9  4  0
  5 16  4  0
  6 15  4  0
  6 16  4  0
  7 22  4  0
  7 26  4  0
  8 10  4  0
  8 25  4  0
  9 15  4  0
  9 17  1  0
 10 21  4  0
 11 25  4  0
 12 23  4  0
 13 20  4  0
 13 26  4  0
 14 19  4  0
 17 18  4  0
 17 24  4  0
 19 23  4  0
 20 24  4  0
 23 26  1  0
M  END
$$$$

 Created by Python create_sdf_string function

 26 30  0  0  0  0  0  0  0  0999 V2000
   10.0084   -1.8019   23.4945 C   0  0  0  0  0  0  0  0  0  0  0  0
   10.0005   -4.2520   16.5631 C   0  0  0  0  0  0  0  0  0  0  0  0
   10.2759   -4.0036   17.8845 C   0  0  0  0  0  0  0  0  0  0  0  0
    8.5652    1.5478   25.3778 N   0  0  0  0  0  0  0  0  0  0  0  0
    6.8048   -7.5457   17.8752 C   0  0  0  0  0  0  0  0  0  0  0  0
    6.1721   -8.2186   15.9886 N   0  0  0  0  0  0  0  0  0  0  0  0
   11.1764   -2.6600   19.5604 C   0  0  0  0  0  0  0  0  0  0  0  0
    9.5491   -0.6380   24.1912 C   0  0  0  0  0  0  0  0  0  0  0  0
    7.5337   -6.9256   16.9519 C   0  0  0  0  0  0  0  0  0  0  0  0
    9.6782    0.5671   23.5143 C   0  0  0  0  0  0  0  0  0  0  0  0
    8.4532    0.3482   26.0821 C   0  0  0  0  0  0  0  0  0  0  0  0
   10.4239   -1.7677   22.2230 N   0  0  0  0  0  0  0  0  0  0  0  0
    9.9468   -4.5953   20.1709 C   0  0  0  0  0  0  0  0  0  0  0  0
   10.0366   -3.0590   23.9864 N   0  0  0  0  0  0  0  0  0  0  0  0
    7.1191   -7.3636   15.7739 C   0  0  0  0  0  0  0  0  0  0  0  0
    5.9612   -8.3203   17.2732 N   0  0  0  0  0  0  0  0  0  0  0  0
    8.5296   -5.9814   17.1841 C   0  0  0  0  0  0  0  0  0  0  0  0
    9.1527   -5.2118   16.2116 C   0  0  0  0  0  0  0  0  0  0  0  0
   10.3364   -3.8368   22.9255 O   0  0  0  0  0  0  0  0  0  0  0  0
    9.6947   -4.8407   18.8534 C   0  0  0  0  0  0  0  0  0  0  0  0
    9.1596    1.7042   24.1381 C   0  0  0  0  0  0  0  0  0  0  0  0
   11.0456   -2.9774   18.2694 N   0  0  0  0  0  0  0  0  0  0  0  0
   10.4788   -3.0457   21.8593 C   0  0  0  0  0  0  0  0  0  0  0  0
    8.8693   -5.8099   18.4657 N   0  0  0  0  0  0  0  0  0  0  0  0
    8.9892   -0.7926   25.4573 C   0  0  0  0  0  0  0  0  0  0  0  0
   10.5677   -3.4462   20.5323 C   0  0  0  0  0  0  0  0  0  0  0  0
  1  8  1  0
  1 12  4  0
  1 14  4  0
  2  3  4  0
  2 18  4  0
  3 20  4  0
  3 22  4  0
  4 11  4  0
  4 21  4  0
  5  9  4  0
  5 16  4  0
  6 15  4  0
  6 16  4  0
  7 22  4  0
  7 26  4  0
  8 10  4  0
  8 25  4  0
  9 15  4  0
  9 17  1  0
 10 21  4  0
 11 25  4  0
 12 23  4  0
 13 20  4  0
 13 26  4  0
 14 19  4  0
 17 18  4  0
 17 24  4  0
 19 23  4  0
 20 24  4  0
 23 26  1  0
M  END
$$$$

 Created by Python create_sdf_string function

 26 30  0  0  0  0  0  0  0  0999 V2000
   10.0084   -1.8019   23.4945 C   0  0  0  0  0  0  0  0  0  0  0  0
   10.0005   -4.2520   16.5631 C   0  0  0  0  0  0  0  0  0  0  0  0
   10.2759   -4.0036   17.8845 C   0  0  0  0  0  0  0  0  0  0  0  0
    8.5652    1.5478   25.3778 N   0  0  0  0  0  0  0  0  0  0  0  0
    6.8048   -7.5457   17.8752 C   0  0  0  0  0  0  0  0  0  0  0  0
    6.1721   -8.2186   15.9886 N   0  0  0  0  0  0  0  0  0  0  0  0
   11.1764   -2.6600   19.5604 C   0  0  0  0  0  0  0  0  0  0  0  0
    9.5491   -0.6380   24.1912 C   0  0  0  0  0  0  0  0  0  0  0  0
    7.5337   -6.9256   16.9519 C   0  0  0  0  0  0  0  0  0  0  0  0
    9.6782    0.5671   23.5143 C   0  0  0  0  0  0  0  0  0  0  0  0
    8.4532    0.3482   26.0821 C   0  0  0  0  0  0  0  0  0  0  0  0
   10.4239   -1.7677   22.2230 N   0  0  0  0  0  0  0  0  0  0  0  0
    9.9468   -4.5953   20.1709 C   0  0  0  0  0  0  0  0  0  0  0  0
   10.0366   -3.0590   23.9864 N   0  0  0  0  0  0  0  0  0  0  0  0
    7.1191   -7.3636   15.7739 C   0  0  0  0  0  0  0  0  0  0  0  0
    5.9612   -8.3203   17.2732 N   0  0  0  0  0  0  0  0  0  0  0  0
    8.5296   -5.9814   17.1841 C   0  0  0  0  0  0  0  0  0  0  0  0
    9.1527   -5.2118   16.2116 C   0  0  0  0  0  0  0  0  0  0  0  0
   10.3364   -3.8368   22.9255 O   0  0  0  0  0  0  0  0  0  0  0  0
    9.6947   -4.8407   18.8534 C   0  0  0  0  0  0  0  0  0  0  0  0
    9.1596    1.7042   24.1381 C   0  0  0  0  0  0  0  0  0  0  0  0
   11.0456   -2.9774   18.2694 N   0  0  0  0  0  0  0  0  0  0  0  0
   10.4788   -3.0457   21.8593 C   0  0  0  0  0  0  0  0  0  0  0  0
    8.8693   -5.8099   18.4657 N   0  0  0  0  0  0  0  0  0  0  0  0
    8.9892   -0.7926   25.4573 C   0  0  0  0  0  0  0  0  0  0  0  0
   10.5677   -3.4462   20.5323 C   0  0  0  0  0  0  0  0  0  0  0  0
  1  8  1  0
  1 12  4  0
  1 14  4  0
  2  3  4  0
  2 18  4  0
  3 20  4  0
  3 22  4  0
  4 11  4  0
  4 21  4  0
  5  9  4  0
  5 16  4  0
  6 15  4  0
  6 16  4  0
  7 22  4  0
  7 26  4  0
  8 10  4  0
  8 25  4  0
  9 15  4  0
  9 17  1  0
 10 21  4  0
 11 25  4  0
 12 23  4  0
 13 20  4  0
 13 26  4  0
 14 19  4  0
 17 18  4  0
 17 24  4  0
 19 23  4  0
 20 24  4  0
 23 26  1  0
M  END
$$$$

 Created by Python create_sdf_string function

 26 30  0  0  0  0  0  0  0  0999 V2000
   10.0084   -1.8019   23.4945 C   0  0  0  0  0  0  0  0  0  0  0  0
   10.0005   -4.2520   16.5631 C   0  0  0  0  0  0  0  0  0  0  0  0
   10.2759   -4.0036   17.8845 C   0  0  0  0  0  0  0  0  0  0  0  0
    8.5652    1.5478   25.3778 N   0  0  0  0  0  0  0  0  0  0  0  0
    6.8048   -7.5457   17.8752 C   0  0  0  0  0  0  0  0  0  0  0  0
    6.1721   -8.2186   15.9886 N   0  0  0  0  0  0  0  0  0  0  0  0
   11.1764   -2.6600   19.5604 C   0  0  0  0  0  0  0  0  0  0  0  0
    9.5491   -0.6380   24.1912 C   0  0  0  0  0  0  0  0  0  0  0  0
    7.5337   -6.9256   16.9519 C   0  0  0  0  0  0  0  0  0  0  0  0
    9.6782    0.5671   23.5143 C   0  0  0  0  0  0  0  0  0  0  0  0
    8.4532    0.3482   26.0821 C   0  0  0  0  0  0  0  0  0  0  0  0
   10.4239   -1.7677   22.2230 N   0  0  0  0  0  0  0  0  0  0  0  0
    9.9468   -4.5953   20.1709 C   0  0  0  0  0  0  0  0  0  0  0  0
   10.0366   -3.0590   23.9864 N   0  0  0  0  0  0  0  0  0  0  0  0
    7.1191   -7.3636   15.7739 C   0  0  0  0  0  0  0  0  0  0  0  0
    5.9612   -8.3203   17.2732 N   0  0  0  0  0  0  0  0  0  0  0  0
    8.5296   -5.9814   17.1841 C   0  0  0  0  0  0  0  0  0  0  0  0
    9.1527   -5.2118   16.2116 C   0  0  0  0  0  0  0  0  0  0  0  0
   10.3364   -3.8368   22.9255 O   0  0  0  0  0  0  0  0  0  0  0  0
    9.6947   -4.8407   18.8534 C   0  0  0  0  0  0  0  0  0  0  0  0
    9.1596    1.7042   24.1381 C   0  0  0  0  0  0  0  0  0  0  0  0
   11.0456   -2.9774   18.2694 N   0  0  0  0  0  0  0  0  0  0  0  0
   10.4788   -3.0457   21.8593 C   0  0  0  0  0  0  0  0  0  0  0  0
    8.8693   -5.8099   18.4657 N   0  0  0  0  0  0  0  0  0  0  0  0
    8.9892   -0.7926   25.4573 C   0  0  0  0  0  0  0  0  0  0  0  0
   10.5677   -3.4462   20.5323 C   0  0  0  0  0  0  0  0  0  0  0  0
  1  8  1  0
  1 12  4  0
  1 14  4  0
  2  3  4  0
  2 18  4  0
  3 20  4  0
  3 22  4  0
  4 11  4  0
  4 21  4  0
  5  9  4  0
  5 16  4  0
  6 15  4  0
  6 16  4  0
  7 22  4  0
  7 26  4  0
  8 10  4  0
  8 25  4  0
  9 15  4  0
  9 17  1  0
 10 21  4  0
 11 25  4  0
 12 23  4  0
 13 20  4  0
 13 26  4  0
 14 19  4  0
 17 18  4  0
 17 24  4  0
 19 23  4  0
 20 24  4  0
 23 26  1  0
M  END
$$$$

 Created by Python create_sdf_string function

 26 30  0  0  0  0  0  0  0  0999 V2000
   10.0084   -1.8019   23.4945 C   0  0  0  0  0  0  0  0  0  0  0  0
   10.0005   -4.2520   16.5631 C   0  0  0  0  0  0  0  0  0  0  0  0
   10.2759   -4.0036   17.8845 C   0  0  0  0  0  0  0  0  0  0  0  0
    8.5652    1.5478   25.3778 N   0  0  0  0  0  0  0  0  0  0  0  0
    6.8048   -7.5457   17.8752 C   0  0  0  0  0  0  0  0  0  0  0  0
    6.1721   -8.2186   15.9886 N   0  0  0  0  0  0  0  0  0  0  0  0
   11.1764   -2.6600   19.5604 C   0  0  0  0  0  0  0  0  0  0  0  0
    9.5491   -0.6380   24.1912 C   0  0  0  0  0  0  0  0  0  0  0  0
    7.5337   -6.9256   16.9519 C   0  0  0  0  0  0  0  0  0  0  0  0
    9.6782    0.5671   23.5143 C   0  0  0  0  0  0  0  0  0  0  0  0
    8.4532    0.3482   26.0821 C   0  0  0  0  0  0  0  0  0  0  0  0
   10.4239   -1.7677   22.2230 N   0  0  0  0  0  0  0  0  0  0  0  0
    9.9468   -4.5953   20.1709 C   0  0  0  0  0  0  0  0  0  0  0  0
   10.0366   -3.0590   23.9864 N   0  0  0  0  0  0  0  0  0  0  0  0
    7.1191   -7.3636   15.7739 C   0  0  0  0  0  0  0  0  0  0  0  0
    5.9612   -8.3203   17.2732 N   0  0  0  0  0  0  0  0  0  0  0  0
    8.5296   -5.9814   17.1841 C   0  0  0  0  0  0  0  0  0  0  0  0
    9.1527   -5.2118   16.2116 C   0  0  0  0  0  0  0  0  0  0  0  0
   10.3364   -3.8368   22.9255 O   0  0  0  0  0  0  0  0  0  0  0  0
    9.6947   -4.8407   18.8534 C   0  0  0  0  0  0  0  0  0  0  0  0
    9.1596    1.7042   24.1381 C   0  0  0  0  0  0  0  0  0  0  0  0
   11.0456   -2.9774   18.2694 N   0  0  0  0  0  0  0  0  0  0  0  0
   10.4788   -3.0457   21.8593 C   0  0  0  0  0  0  0  0  0  0  0  0
    8.8693   -5.8099   18.4657 N   0  0  0  0  0  0  0  0  0  0  0  0
    8.9892   -0.7926   25.4573 C   0  0  0  0  0  0  0  0  0  0  0  0
   10.5677   -3.4462   20.5323 C   0  0  0  0  0  0  0  0  0  0  0  0
  1  8  1  0
  1 12  4  0
  1 14  4  0
  2  3  4  0
  2 18  4  0
  3 20  4  0
  3 22  4  0
  4 11  4  0
  4 21  4  0
  5  9  4  0
  5 16  4  0
  6 15  4  0
  6 16  4  0
  7 22  4  0
  7 26  4  0
  8 10  4  0
  8 25  4  0
  9 15  4  0
  9 17  1  0
 10 21  4  0
 11 25  4  0
 12 23  4  0
 13 20  4  0
 13 26  4  0
 14 19  4  0
 17 18  4  0
 17 24  4  0
 19 23  4  0
 20 24  4  0
 23 26  1  0
M  END
$$$$

 Created by Python create_sdf_string function

 26 30  0  0  0  0  0  0  0  0999 V2000
   10.0084   -1.8019   23.4945 C   0  0  0  0  0  0  0  0  0  0  0  0
   10.0005   -4.2520   16.5631 C   0  0  0  0  0  0  0  0  0  0  0  0
   10.2759   -4.0036   17.8845 C   0  0  0  0  0  0  0  0  0  0  0  0
    8.5652    1.5478   25.3778 N   0  0  0  0  0  0  0  0  0  0  0  0
    6.8048   -7.5457   17.8752 C   0  0  0  0  0  0  0  0  0  0  0  0
    6.1721   -8.2186   15.9886 N   0  0  0  0  0  0  0  0  0  0  0  0
   11.1764   -2.6600   19.5604 C   0  0  0  0  0  0  0  0  0  0  0  0
    9.5491   -0.6380   24.1912 C   0  0  0  0  0  0  0  0  0  0  0  0
    7.5337   -6.9256   16.9519 C   0  0  0  0  0  0  0  0  0  0  0  0
    9.6782    0.5671   23.5143 C   0  0  0  0  0  0  0  0  0  0  0  0
    8.4532    0.3482   26.0821 C   0  0  0  0  0  0  0  0  0  0  0  0
   10.4239   -1.7677   22.2230 N   0  0  0  0  0  0  0  0  0  0  0  0
    9.9468   -4.5953   20.1709 C   0  0  0  0  0  0  0  0  0  0  0  0
   10.0366   -3.0590   23.9864 N   0  0  0  0  0  0  0  0  0  0  0  0
    7.1191   -7.3636   15.7739 C   0  0  0  0  0  0  0  0  0  0  0  0
    5.9612   -8.3203   17.2732 N   0  0  0  0  0  0  0  0  0  0  0  0
    8.5296   -5.9814   17.1841 C   0  0  0  0  0  0  0  0  0  0  0  0
    9.1527   -5.2118   16.2116 C   0  0  0  0  0  0  0  0  0  0  0  0
   10.3364   -3.8368   22.9255 O   0  0  0  0  0  0  0  0  0  0  0  0
    9.6947   -4.8407   18.8534 C   0  0  0  0  0  0  0  0  0  0  0  0
    9.1596    1.7042   24.1381 C   0  0  0  0  0  0  0  0  0  0  0  0
   11.0456   -2.9774   18.2694 N   0  0  0  0  0  0  0  0  0  0  0  0
   10.4788   -3.0457   21.8593 C   0  0  0  0  0  0  0  0  0  0  0  0
    8.8693   -5.8099   18.4657 N   0  0  0  0  0  0  0  0  0  0  0  0
    8.9892   -0.7926   25.4573 C   0  0  0  0  0  0  0  0  0  0  0  0
   10.5677   -3.4462   20.5323 C   0  0  0  0  0  0  0  0  0  0  0  0
  1  8  1  0
  1 12  4  0
  1 14  4  0
  2  3  4  0
  2 18  4  0
  3 20  4  0
  3 22  4  0
  4 11  4  0
  4 21  4  0
  5  9  4  0
  5 16  4  0
  6 15  4  0
  6 16  4  0
  7 22  4  0
  7 26  4  0
  8 10  4  0
  8 25  4  0
  9 15  4  0
  9 17  1  0
 10 21  4  0
 11 25  4  0
 12 23  4  0
 13 20  4  0
 13 26  4  0
 14 19  4  0
 17 18  4  0
 17 24  4  0
 19 23  4  0
 20 24  4  0
 23 26  1  0
M  END
$$$$

 Created by Python create_sdf_string function

 26 30  0  0  0  0  0  0  0  0999 V2000
   10.0084   -1.8019   23.4945 C   0  0  0  0  0  0  0  0  0  0  0  0
   10.0005   -4.2520   16.5631 C   0  0  0  0  0  0  0  0  0  0  0  0
   10.2759   -4.0036   17.8845 C   0  0  0  0  0  0  0  0  0  0  0  0
    8.5652    1.5478   25.3778 N   0  0  0  0  0  0  0  0  0  0  0  0
    6.8048   -7.5457   17.8752 C   0  0  0  0  0  0  0  0  0  0  0  0
    6.1721   -8.2186   15.9886 N   0  0  0  0  0  0  0  0  0  0  0  0
   11.1764   -2.6600   19.5604 C   0  0  0  0  0  0  0  0  0  0  0  0
    9.5491   -0.6380   24.1912 C   0  0  0  0  0  0  0  0  0  0  0  0
    7.5337   -6.9256   16.9519 C   0  0  0  0  0  0  0  0  0  0  0  0
    9.6782    0.5671   23.5143 C   0  0  0  0  0  0  0  0  0  0  0  0
    8.4532    0.3482   26.0821 C   0  0  0  0  0  0  0  0  0  0  0  0
   10.4239   -1.7677   22.2230 N   0  0  0  0  0  0  0  0  0  0  0  0
    9.9468   -4.5953   20.1709 C   0  0  0  0  0  0  0  0  0  0  0  0
   10.0366   -3.0590   23.9864 N   0  0  0  0  0  0  0  0  0  0  0  0
    7.1191   -7.3636   15.7739 C   0  0  0  0  0  0  0  0  0  0  0  0
    5.9612   -8.3203   17.2732 N   0  0  0  0  0  0  0  0  0  0  0  0
    8.5296   -5.9814   17.1841 C   0  0  0  0  0  0  0  0  0  0  0  0
    9.1527   -5.2118   16.2116 C   0  0  0  0  0  0  0  0  0  0  0  0
   10.3364   -3.8368   22.9255 O   0  0  0  0  0  0  0  0  0  0  0  0
    9.6947   -4.8407   18.8534 C   0  0  0  0  0  0  0  0  0  0  0  0
    9.1596    1.7042   24.1381 C   0  0  0  0  0  0  0  0  0  0  0  0
   11.0456   -2.9774   18.2694 N   0  0  0  0  0  0  0  0  0  0  0  0
   10.4788   -3.0457   21.8593 C   0  0  0  0  0  0  0  0  0  0  0  0
    8.8693   -5.8099   18.4657 N   0  0  0  0  0  0  0  0  0  0  0  0
    8.9892   -0.7926   25.4573 C   0  0  0  0  0  0  0  0  0  0  0  0
   10.5677   -3.4462   20.5323 C   0  0  0  0  0  0  0  0  0  0  0  0
  1  8  1  0
  1 12  4  0
  1 14  4  0
  2  3  4  0
  2 18  4  0
  3 20  4  0
  3 22  4  0
  4 11  4  0
  4 21  4  0
  5  9  4  0
  5 16  4  0
  6 15  4  0
  6 16  4  0
  7 22  4  0
  7 26  4  0
  8 10  4  0
  8 25  4  0
  9 15  4  0
  9 17  1  0
 10 21  4  0
 11 25  4  0
 12 23  4  0
 13 20  4  0
 13 26  4  0
 14 19  4  0
 17 18  4  0
 17 24  4  0
 19 23  4  0
 20 24  4  0
 23 26  1  0
M  END
$$$$

 Created by Python create_sdf_string function

 26 30  0  0  0  0  0  0  0  0999 V2000
   10.0084   -1.8019   23.4945 C   0  0  0  0  0  0  0  0  0  0  0  0
   10.0005   -4.2520   16.5631 C   0  0  0  0  0  0  0  0  0  0  0  0
   10.2759   -4.0036   17.8845 C   0  0  0  0  0  0  0  0  0  0  0  0
    8.5652    1.5478   25.3778 N   0  0  0  0  0  0  0  0  0  0  0  0
    6.8048   -7.5457   17.8752 C   0  0  0  0  0  0  0  0  0  0  0  0
    6.1721   -8.2186   15.9886 N   0  0  0  0  0  0  0  0  0  0  0  0
   11.1764   -2.6600   19.5604 C   0  0  0  0  0  0  0  0  0  0  0  0
    9.5491   -0.6380   24.1912 C   0  0  0  0  0  0  0  0  0  0  0  0
    7.5337   -6.9256   16.9519 C   0  0  0  0  0  0  0  0  0  0  0  0
    9.6782    0.5671   23.5143 C   0  0  0  0  0  0  0  0  0  0  0  0
    8.4532    0.3482   26.0821 C   0  0  0  0  0  0  0  0  0  0  0  0
   10.4239   -1.7677   22.2230 N   0  0  0  0  0  0  0  0  0  0  0  0
    9.9468   -4.5953   20.1709 C   0  0  0  0  0  0  0  0  0  0  0  0
   10.0366   -3.0590   23.9864 N   0  0  0  0  0  0  0  0  0  0  0  0
    7.1191   -7.3636   15.7739 C   0  0  0  0  0  0  0  0  0  0  0  0
    5.9612   -8.3203   17.2732 N   0  0  0  0  0  0  0  0  0  0  0  0
    8.5296   -5.9814   17.1841 C   0  0  0  0  0  0  0  0  0  0  0  0
    9.1527   -5.2118   16.2116 C   0  0  0  0  0  0  0  0  0  0  0  0
   10.3364   -3.8368   22.9255 O   0  0  0  0  0  0  0  0  0  0  0  0
    9.6947   -4.8407   18.8534 C   0  0  0  0  0  0  0  0  0  0  0  0
    9.1596    1.7042   24.1381 C   0  0  0  0  0  0  0  0  0  0  0  0
   11.0456   -2.9774   18.2694 N   0  0  0  0  0  0  0  0  0  0  0  0
   10.4788   -3.0457   21.8593 C   0  0  0  0  0  0  0  0  0  0  0  0
    8.8693   -5.8099   18.4657 N   0  0  0  0  0  0  0  0  0  0  0  0
    8.9892   -0.7926   25.4573 C   0  0  0  0  0  0  0  0  0  0  0  0
   10.5677   -3.4462   20.5323 C   0  0  0  0  0  0  0  0  0  0  0  0
  1  8  1  0
  1 12  4  0
  1 14  4  0
  2  3  4  0
  2 18  4  0
  3 20  4  0
  3 22  4  0
  4 11  4  0
  4 21  4  0
  5  9  4  0
  5 16  4  0
  6 15  4  0
  6 16  4  0
  7 22  4  0
  7 26  4  0
  8 10  4  0
  8 25  4  0
  9 15  4  0
  9 17  1  0
 10 21  4  0
 11 25  4  0
 12 23  4  0
 13 20  4  0
 13 26  4  0
 14 19  4  0
 17 18  4  0
 17 24  4  0
 19 23  4  0
 20 24  4  0
 23 26  1  0
M  END
$$$$

 Created by Python create_sdf_string function

 26 30  0  0  0  0  0  0  0  0999 V2000
   10.0084   -1.8019   23.4945 C   0  0  0  0  0  0  0  0  0  0  0  0
   10.0005   -4.2520   16.5631 C   0  0  0  0  0  0  0  0  0  0  0  0
   10.2759   -4.0036   17.8845 C   0  0  0  0  0  0  0  0  0  0  0  0
    8.5652    1.5478   25.3778 N   0  0  0  0  0  0  0  0  0  0  0  0
    6.8048   -7.5457   17.8752 C   0  0  0  0  0  0  0  0  0  0  0  0
    6.1721   -8.2186   15.9886 N   0  0  0  0  0  0  0  0  0  0  0  0
   11.1764   -2.6600   19.5604 C   0  0  0  0  0  0  0  0  0  0  0  0
    9.5491   -0.6380   24.1912 C   0  0  0  0  0  0  0  0  0  0  0  0
    7.5337   -6.9256   16.9519 C   0  0  0  0  0  0  0  0  0  0  0  0
    9.6782    0.5671   23.5143 C   0  0  0  0  0  0  0  0  0  0  0  0
    8.4532    0.3482   26.0821 C   0  0  0  0  0  0  0  0  0  0  0  0
   10.4239   -1.7677   22.2230 N   0  0  0  0  0  0  0  0  0  0  0  0
    9.9468   -4.5953   20.1709 C   0  0  0  0  0  0  0  0  0  0  0  0
   10.0366   -3.0590   23.9864 N   0  0  0  0  0  0  0  0  0  0  0  0
    7.1191   -7.3636   15.7739 C   0  0  0  0  0  0  0  0  0  0  0  0
    5.9612   -8.3203   17.2732 N   0  0  0  0  0  0  0  0  0  0  0  0
    8.5296   -5.9814   17.1841 C   0  0  0  0  0  0  0  0  0  0  0  0
    9.1527   -5.2118   16.2116 C   0  0  0  0  0  0  0  0  0  0  0  0
   10.3364   -3.8368   22.9255 O   0  0  0  0  0  0  0  0  0  0  0  0
    9.6947   -4.8407   18.8534 C   0  0  0  0  0  0  0  0  0  0  0  0
    9.1596    1.7042   24.1381 C   0  0  0  0  0  0  0  0  0  0  0  0
   11.0456   -2.9774   18.2694 N   0  0  0  0  0  0  0  0  0  0  0  0
   10.4788   -3.0457   21.8593 C   0  0  0  0  0  0  0  0  0  0  0  0
    8.8693   -5.8099   18.4657 N   0  0  0  0  0  0  0  0  0  0  0  0
    8.9892   -0.7926   25.4573 C   0  0  0  0  0  0  0  0  0  0  0  0
   10.5677   -3.4462   20.5323 C   0  0  0  0  0  0  0  0  0  0  0  0
  1  8  1  0
  1 12  4  0
  1 14  4  0
  2  3  4  0
  2 18  4  0
  3 20  4  0
  3 22  4  0
  4 11  4  0
  4 21  4  0
  5  9  4  0
  5 16  4  0
  6 15  4  0
  6 16  4  0
  7 22  4  0
  7 26  4  0
  8 10  4  0
  8 25  4  0
  9 15  4  0
  9 17  1  0
 10 21  4  0
 11 25  4  0
 12 23  4  0
 13 20  4  0
 13 26  4  0
 14 19  4  0
 17 18  4  0
 17 24  4  0
 19 23  4  0
 20 24  4  0
 23 26  1  0
M  END
$$$$

 Created by Python create_sdf_string function

 26 30  0  0  0  0  0  0  0  0999 V2000
   10.0084   -1.8019   23.4945 C   0  0  0  0  0  0  0  0  0  0  0  0
   10.0005   -4.2520   16.5631 C   0  0  0  0  0  0  0  0  0  0  0  0
   10.2759   -4.0036   17.8845 C   0  0  0  0  0  0  0  0  0  0  0  0
    8.5652    1.5478   25.3778 N   0  0  0  0  0  0  0  0  0  0  0  0
    6.8048   -7.5457   17.8752 C   0  0  0  0  0  0  0  0  0  0  0  0
    6.1721   -8.2186   15.9886 N   0  0  0  0  0  0  0  0  0  0  0  0
   11.1764   -2.6600   19.5604 C   0  0  0  0  0  0  0  0  0  0  0  0
    9.5491   -0.6380   24.1912 C   0  0  0  0  0  0  0  0  0  0  0  0
    7.5337   -6.9256   16.9519 C   0  0  0  0  0  0  0  0  0  0  0  0
    9.6782    0.5671   23.5143 C   0  0  0  0  0  0  0  0  0  0  0  0
    8.4532    0.3482   26.0821 C   0  0  0  0  0  0  0  0  0  0  0  0
   10.4239   -1.7677   22.2230 N   0  0  0  0  0  0  0  0  0  0  0  0
    9.9468   -4.5953   20.1709 C   0  0  0  0  0  0  0  0  0  0  0  0
   10.0366   -3.0590   23.9864 N   0  0  0  0  0  0  0  0  0  0  0  0
    7.1191   -7.3636   15.7739 C   0  0  0  0  0  0  0  0  0  0  0  0
    5.9612   -8.3203   17.2732 N   0  0  0  0  0  0  0  0  0  0  0  0
    8.5296   -5.9814   17.1841 C   0  0  0  0  0  0  0  0  0  0  0  0
    9.1527   -5.2118   16.2116 C   0  0  0  0  0  0  0  0  0  0  0  0
   10.3364   -3.8368   22.9255 O   0  0  0  0  0  0  0  0  0  0  0  0
    9.6947   -4.8407   18.8534 C   0  0  0  0  0  0  0  0  0  0  0  0
    9.1596    1.7042   24.1381 C   0  0  0  0  0  0  0  0  0  0  0  0
   11.0456   -2.9774   18.2694 N   0  0  0  0  0  0  0  0  0  0  0  0
   10.4788   -3.0457   21.8593 C   0  0  0  0  0  0  0  0  0  0  0  0
    8.8693   -5.8099   18.4657 N   0  0  0  0  0  0  0  0  0  0  0  0
    8.9892   -0.7926   25.4573 C   0  0  0  0  0  0  0  0  0  0  0  0
   10.5677   -3.4462   20.5323 C   0  0  0  0  0  0  0  0  0  0  0  0
  1  8  1  0
  1 12  4  0
  1 14  4  0
  2  3  4  0
  2 18  4  0
  3 20  4  0
  3 22  4  0
  4 11  4  0
  4 21  4  0
  5  9  4  0
  5 16  4  0
  6 15  4  0
  6 16  4  0
  7 22  4  0
  7 26  4  0
  8 10  4  0
  8 25  4  0
  9 15  4  0
  9 17  1  0
 10 21  4  0
 11 25  4  0
 12 23  4  0
 13 20  4  0
 13 26  4  0
 14 19  4  0
 17 18  4  0
 17 24  4  0
 19 23  4  0
 20 24  4  0
 23 26  1  0
M  END
$$$$

 Created by Python create_sdf_string function

 26 30  0  0  0  0  0  0  0  0999 V2000
   10.0084   -1.8019   23.4945 C   0  0  0  0  0  0  0  0  0  0  0  0
   10.0005   -4.2520   16.5631 C   0  0  0  0  0  0  0  0  0  0  0  0
   10.2759   -4.0036   17.8845 C   0  0  0  0  0  0  0  0  0  0  0  0
    8.5652    1.5478   25.3778 N   0  0  0  0  0  0  0  0  0  0  0  0
    6.8048   -7.5457   17.8752 C   0  0  0  0  0  0  0  0  0  0  0  0
    6.1721   -8.2186   15.9886 N   0  0  0  0  0  0  0  0  0  0  0  0
   11.1764   -2.6600   19.5604 C   0  0  0  0  0  0  0  0  0  0  0  0
    9.5491   -0.6380   24.1912 C   0  0  0  0  0  0  0  0  0  0  0  0
    7.5337   -6.9256   16.9519 C   0  0  0  0  0  0  0  0  0  0  0  0
    9.6782    0.5671   23.5143 C   0  0  0  0  0  0  0  0  0  0  0  0
    8.4532    0.3482   26.0821 C   0  0  0  0  0  0  0  0  0  0  0  0
   10.4239   -1.7677   22.2230 N   0  0  0  0  0  0  0  0  0  0  0  0
    9.9468   -4.5953   20.1709 C   0  0  0  0  0  0  0  0  0  0  0  0
   10.0366   -3.0590   23.9864 N   0  0  0  0  0  0  0  0  0  0  0  0
    7.1191   -7.3636   15.7739 C   0  0  0  0  0  0  0  0  0  0  0  0
    5.9612   -8.3203   17.2732 N   0  0  0  0  0  0  0  0  0  0  0  0
    8.5296   -5.9814   17.1841 C   0  0  0  0  0  0  0  0  0  0  0  0
    9.1527   -5.2118   16.2116 C   0  0  0  0  0  0  0  0  0  0  0  0
   10.3364   -3.8368   22.9255 O   0  0  0  0  0  0  0  0  0  0  0  0
    9.6947   -4.8407   18.8534 C   0  0  0  0  0  0  0  0  0  0  0  0
    9.1596    1.7042   24.1381 C   0  0  0  0  0  0  0  0  0  0  0  0
   11.0456   -2.9774   18.2694 N   0  0  0  0  0  0  0  0  0  0  0  0
   10.4788   -3.0457   21.8593 C   0  0  0  0  0  0  0  0  0  0  0  0
    8.8693   -5.8099   18.4657 N   0  0  0  0  0  0  0  0  0  0  0  0
    8.9892   -0.7926   25.4573 C   0  0  0  0  0  0  0  0  0  0  0  0
   10.5677   -3.4462   20.5323 C   0  0  0  0  0  0  0  0  0  0  0  0
  1  8  1  0
  1 12  4  0
  1 14  4  0
  2  3  4  0
  2 18  4  0
  3 20  4  0
  3 22  4  0
  4 11  4  0
  4 21  4  0
  5  9  4  0
  5 16  4  0
  6 15  4  0
  6 16  4  0
  7 22  4  0
  7 26  4  0
  8 10  4  0
  8 25  4  0
  9 15  4  0
  9 17  1  0
 10 21  4  0
 11 25  4  0
 12 23  4  0
 13 20  4  0
 13 26  4  0
 14 19  4  0
 17 18  4  0
 17 24  4  0
 19 23  4  0
 20 24  4  0
 23 26  1  0
M  END
$$$$

 Created by Python create_sdf_string function

 26 30  0  0  0  0  0  0  0  0999 V2000
   10.0084   -1.8019   23.4945 C   0  0  0  0  0  0  0  0  0  0  0  0
   10.0005   -4.2520   16.5631 C   0  0  0  0  0  0  0  0  0  0  0  0
   10.2759   -4.0036   17.8845 C   0  0  0  0  0  0  0  0  0  0  0  0
    8.5652    1.5478   25.3778 N   0  0  0  0  0  0  0  0  0  0  0  0
    6.8048   -7.5457   17.8752 C   0  0  0  0  0  0  0  0  0  0  0  0
    6.1721   -8.2186   15.9886 N   0  0  0  0  0  0  0  0  0  0  0  0
   11.1764   -2.6600   19.5604 C   0  0  0  0  0  0  0  0  0  0  0  0
    9.5491   -0.6380   24.1912 C   0  0  0  0  0  0  0  0  0  0  0  0
    7.5337   -6.9256   16.9519 C   0  0  0  0  0  0  0  0  0  0  0  0
    9.6782    0.5671   23.5143 C   0  0  0  0  0  0  0  0  0  0  0  0
    8.4532    0.3482   26.0821 C   0  0  0  0  0  0  0  0  0  0  0  0
   10.4239   -1.7677   22.2230 N   0  0  0  0  0  0  0  0  0  0  0  0
    9.9468   -4.5953   20.1709 C   0  0  0  0  0  0  0  0  0  0  0  0
   10.0366   -3.0590   23.9864 N   0  0  0  0  0  0  0  0  0  0  0  0
    7.1191   -7.3636   15.7739 C   0  0  0  0  0  0  0  0  0  0  0  0
    5.9612   -8.3203   17.2732 N   0  0  0  0  0  0  0  0  0  0  0  0
    8.5296   -5.9814   17.1841 C   0  0  0  0  0  0  0  0  0  0  0  0
    9.1527   -5.2118   16.2116 C   0  0  0  0  0  0  0  0  0  0  0  0
   10.3364   -3.8368   22.9255 O   0  0  0  0  0  0  0  0  0  0  0  0
    9.6947   -4.8407   18.8534 C   0  0  0  0  0  0  0  0  0  0  0  0
    9.1596    1.7042   24.1381 C   0  0  0  0  0  0  0  0  0  0  0  0
   11.0456   -2.9774   18.2694 N   0  0  0  0  0  0  0  0  0  0  0  0
   10.4788   -3.0457   21.8593 C   0  0  0  0  0  0  0  0  0  0  0  0
    8.8693   -5.8099   18.4657 N   0  0  0  0  0  0  0  0  0  0  0  0
    8.9892   -0.7926   25.4573 C   0  0  0  0  0  0  0  0  0  0  0  0
   10.5677   -3.4462   20.5323 C   0  0  0  0  0  0  0  0  0  0  0  0
  1  8  1  0
  1 12  4  0
  1 14  4  0
  2  3  4  0
  2 18  4  0
  3 20  4  0
  3 22  4  0
  4 11  4  0
  4 21  4  0
  5  9  4  0
  5 16  4  0
  6 15  4  0
  6 16  4  0
  7 22  4  0
  7 26  4  0
  8 10  4  0
  8 25  4  0
  9 15  4  0
  9 17  1  0
 10 21  4  0
 11 25  4  0
 12 23  4  0
 13 20  4  0
 13 26  4  0
 14 19  4  0
 17 18  4  0
 17 24  4  0
 19 23  4  0
 20 24  4  0
 23 26  1  0
M  END
$$$$

 Created by Python create_sdf_string function

 26 30  0  0  0  0  0  0  0  0999 V2000
   10.0084   -1.8019   23.4945 C   0  0  0  0  0  0  0  0  0  0  0  0
   10.0005   -4.2520   16.5631 C   0  0  0  0  0  0  0  0  0  0  0  0
   10.2759   -4.0036   17.8845 C   0  0  0  0  0  0  0  0  0  0  0  0
    8.5652    1.5478   25.3778 N   0  0  0  0  0  0  0  0  0  0  0  0
    6.8048   -7.5457   17.8752 C   0  0  0  0  0  0  0  0  0  0  0  0
    6.1721   -8.2186   15.9886 N   0  0  0  0  0  0  0  0  0  0  0  0
   11.1764   -2.6600   19.5604 C   0  0  0  0  0  0  0  0  0  0  0  0
    9.5491   -0.6380   24.1912 C   0  0  0  0  0  0  0  0  0  0  0  0
    7.5337   -6.9256   16.9519 C   0  0  0  0  0  0  0  0  0  0  0  0
    9.6782    0.5671   23.5143 C   0  0  0  0  0  0  0  0  0  0  0  0
    8.4532    0.3482   26.0821 C   0  0  0  0  0  0  0  0  0  0  0  0
   10.4239   -1.7677   22.2230 N   0  0  0  0  0  0  0  0  0  0  0  0
    9.9468   -4.5953   20.1709 C   0  0  0  0  0  0  0  0  0  0  0  0
   10.0366   -3.0590   23.9864 N   0  0  0  0  0  0  0  0  0  0  0  0
    7.1191   -7.3636   15.7739 C   0  0  0  0  0  0  0  0  0  0  0  0
    5.9612   -8.3203   17.2732 N   0  0  0  0  0  0  0  0  0  0  0  0
    8.5296   -5.9814   17.1841 C   0  0  0  0  0  0  0  0  0  0  0  0
    9.1527   -5.2118   16.2116 C   0  0  0  0  0  0  0  0  0  0  0  0
   10.3364   -3.8368   22.9255 O   0  0  0  0  0  0  0  0  0  0  0  0
    9.6947   -4.8407   18.8534 C   0  0  0  0  0  0  0  0  0  0  0  0
    9.1596    1.7042   24.1381 C   0  0  0  0  0  0  0  0  0  0  0  0
   11.0456   -2.9774   18.2694 N   0  0  0  0  0  0  0  0  0  0  0  0
   10.4788   -3.0457   21.8593 C   0  0  0  0  0  0  0  0  0  0  0  0
    8.8693   -5.8099   18.4657 N   0  0  0  0  0  0  0  0  0  0  0  0
    8.9892   -0.7926   25.4573 C   0  0  0  0  0  0  0  0  0  0  0  0
   10.5677   -3.4462   20.5323 C   0  0  0  0  0  0  0  0  0  0  0  0
  1  8  1  0
  1 12  4  0
  1 14  4  0
  2  3  4  0
  2 18  4  0
  3 20  4  0
  3 22  4  0
  4 11  4  0
  4 21  4  0
  5  9  4  0
  5 16  4  0
  6 15  4  0
  6 16  4  0
  7 22  4  0
  7 26  4  0
  8 10  4  0
  8 25  4  0
  9 15  4  0
  9 17  1  0
 10 21  4  0
 11 25  4  0
 12 23  4  0
 13 20  4  0
 13 26  4  0
 14 19  4  0
 17 18  4  0
 17 24  4  0
 19 23  4  0
 20 24  4  0
 23 26  1  0
M  END
$$$$

 Created by Python create_sdf_string function

 26 30  0  0  0  0  0  0  0  0999 V2000
   10.0084   -1.8019   23.4945 C   0  0  0  0  0  0  0  0  0  0  0  0
   10.0005   -4.2520   16.5631 C   0  0  0  0  0  0  0  0  0  0  0  0
   10.2759   -4.0036   17.8845 C   0  0  0  0  0  0  0  0  0  0  0  0
    8.5652    1.5478   25.3778 N   0  0  0  0  0  0  0  0  0  0  0  0
    6.8048   -7.5457   17.8752 C   0  0  0  0  0  0  0  0  0  0  0  0
    6.1721   -8.2186   15.9886 N   0  0  0  0  0  0  0  0  0  0  0  0
   11.1764   -2.6600   19.5604 C   0  0  0  0  0  0  0  0  0  0  0  0
    9.5491   -0.6380   24.1912 C   0  0  0  0  0  0  0  0  0  0  0  0
    7.5337   -6.9256   16.9519 C   0  0  0  0  0  0  0  0  0  0  0  0
    9.6782    0.5671   23.5143 C   0  0  0  0  0  0  0  0  0  0  0  0
    8.4532    0.3482   26.0821 C   0  0  0  0  0  0  0  0  0  0  0  0
   10.4239   -1.7677   22.2230 N   0  0  0  0  0  0  0  0  0  0  0  0
    9.9468   -4.5953   20.1709 C   0  0  0  0  0  0  0  0  0  0  0  0
   10.0366   -3.0590   23.9864 N   0  0  0  0  0  0  0  0  0  0  0  0
    7.1191   -7.3636   15.7739 C   0  0  0  0  0  0  0  0  0  0  0  0
    5.9612   -8.3203   17.2732 N   0  0  0  0  0  0  0  0  0  0  0  0
    8.5296   -5.9814   17.1841 C   0  0  0  0  0  0  0  0  0  0  0  0
    9.1527   -5.2118   16.2116 C   0  0  0  0  0  0  0  0  0  0  0  0
   10.3364   -3.8368   22.9255 O   0  0  0  0  0  0  0  0  0  0  0  0
    9.6947   -4.8407   18.8534 C   0  0  0  0  0  0  0  0  0  0  0  0
    9.1596    1.7042   24.1381 C   0  0  0  0  0  0  0  0  0  0  0  0
   11.0456   -2.9774   18.2694 N   0  0  0  0  0  0  0  0  0  0  0  0
   10.4788   -3.0457   21.8593 C   0  0  0  0  0  0  0  0  0  0  0  0
    8.8693   -5.8099   18.4657 N   0  0  0  0  0  0  0  0  0  0  0  0
    8.9892   -0.7926   25.4573 C   0  0  0  0  0  0  0  0  0  0  0  0
   10.5677   -3.4462   20.5323 C   0  0  0  0  0  0  0  0  0  0  0  0
  1  8  1  0
  1 12  4  0
  1 14  4  0
  2  3  4  0
  2 18  4  0
  3 20  4  0
  3 22  4  0
  4 11  4  0
  4 21  4  0
  5  9  4  0
  5 16  4  0
  6 15  4  0
  6 16  4  0
  7 22  4  0
  7 26  4  0
  8 10  4  0
  8 25  4  0
  9 15  4  0
  9 17  1  0
 10 21  4  0
 11 25  4  0
 12 23  4  0
 13 20  4  0
 13 26  4  0
 14 19  4  0
 17 18  4  0
 17 24  4  0
 19 23  4  0
 20 24  4  0
 23 26  1  0
M  END
$$$$

 Created by Python create_sdf_string function

 26 30  0  0  0  0  0  0  0  0999 V2000
   10.0084   -1.8019   23.4945 C   0  0  0  0  0  0  0  0  0  0  0  0
   10.0005   -4.2520   16.5631 C   0  0  0  0  0  0  0  0  0  0  0  0
   10.2759   -4.0036   17.8845 C   0  0  0  0  0  0  0  0  0  0  0  0
    8.5652    1.5478   25.3778 N   0  0  0  0  0  0  0  0  0  0  0  0
    6.8048   -7.5457   17.8752 C   0  0  0  0  0  0  0  0  0  0  0  0
    6.1721   -8.2186   15.9886 N   0  0  0  0  0  0  0  0  0  0  0  0
   11.1764   -2.6600   19.5604 C   0  0  0  0  0  0  0  0  0  0  0  0
    9.5491   -0.6380   24.1912 C   0  0  0  0  0  0  0  0  0  0  0  0
    7.5337   -6.9256   16.9519 C   0  0  0  0  0  0  0  0  0  0  0  0
    9.6782    0.5671   23.5143 C   0  0  0  0  0  0  0  0  0  0  0  0
    8.4532    0.3482   26.0821 C   0  0  0  0  0  0  0  0  0  0  0  0
   10.4239   -1.7677   22.2230 N   0  0  0  0  0  0  0  0  0  0  0  0
    9.9468   -4.5953   20.1709 C   0  0  0  0  0  0  0  0  0  0  0  0
   10.0366   -3.0590   23.9864 N   0  0  0  0  0  0  0  0  0  0  0  0
    7.1191   -7.3636   15.7739 C   0  0  0  0  0  0  0  0  0  0  0  0
    5.9612   -8.3203   17.2732 N   0  0  0  0  0  0  0  0  0  0  0  0
    8.5296   -5.9814   17.1841 C   0  0  0  0  0  0  0  0  0  0  0  0
    9.1527   -5.2118   16.2116 C   0  0  0  0  0  0  0  0  0  0  0  0
   10.3364   -3.8368   22.9255 O   0  0  0  0  0  0  0  0  0  0  0  0
    9.6947   -4.8407   18.8534 C   0  0  0  0  0  0  0  0  0  0  0  0
    9.1596    1.7042   24.1381 C   0  0  0  0  0  0  0  0  0  0  0  0
   11.0456   -2.9774   18.2694 N   0  0  0  0  0  0  0  0  0  0  0  0
   10.4788   -3.0457   21.8593 C   0  0  0  0  0  0  0  0  0  0  0  0
    8.8693   -5.8099   18.4657 N   0  0  0  0  0  0  0  0  0  0  0  0
    8.9892   -0.7926   25.4573 C   0  0  0  0  0  0  0  0  0  0  0  0
   10.5677   -3.4462   20.5323 C   0  0  0  0  0  0  0  0  0  0  0  0
  1  8  1  0
  1 12  4  0
  1 14  4  0
  2  3  4  0
  2 18  4  0
  3 20  4  0
  3 22  4  0
  4 11  4  0
  4 21  4  0
  5  9  4  0
  5 16  4  0
  6 15  4  0
  6 16  4  0
  7 22  4  0
  7 26  4  0
  8 10  4  0
  8 25  4  0
  9 15  4  0
  9 17  1  0
 10 21  4  0
 11 25  4  0
 12 23  4  0
 13 20  4  0
 13 26  4  0
 14 19  4  0
 17 18  4  0
 17 24  4  0
 19 23  4  0
 20 24  4  0
 23 26  1  0
M  END
$$$$

 Created by Python create_sdf_string function

 26 30  0  0  0  0  0  0  0  0999 V2000
   10.0084   -1.8019   23.4945 C   0  0  0  0  0  0  0  0  0  0  0  0
   10.0005   -4.2520   16.5631 C   0  0  0  0  0  0  0  0  0  0  0  0
   10.2759   -4.0036   17.8845 C   0  0  0  0  0  0  0  0  0  0  0  0
    8.5652    1.5478   25.3778 N   0  0  0  0  0  0  0  0  0  0  0  0
    6.8048   -7.5457   17.8752 C   0  0  0  0  0  0  0  0  0  0  0  0
    6.1721   -8.2186   15.9886 N   0  0  0  0  0  0  0  0  0  0  0  0
   11.1764   -2.6600   19.5604 C   0  0  0  0  0  0  0  0  0  0  0  0
    9.5491   -0.6380   24.1912 C   0  0  0  0  0  0  0  0  0  0  0  0
    7.5337   -6.9256   16.9519 C   0  0  0  0  0  0  0  0  0  0  0  0
    9.6782    0.5671   23.5143 C   0  0  0  0  0  0  0  0  0  0  0  0
    8.4532    0.3482   26.0821 C   0  0  0  0  0  0  0  0  0  0  0  0
   10.4239   -1.7677   22.2230 N   0  0  0  0  0  0  0  0  0  0  0  0
    9.9468   -4.5953   20.1709 C   0  0  0  0  0  0  0  0  0  0  0  0
   10.0366   -3.0590   23.9864 N   0  0  0  0  0  0  0  0  0  0  0  0
    7.1191   -7.3636   15.7739 C   0  0  0  0  0  0  0  0  0  0  0  0
    5.9612   -8.3203   17.2732 N   0  0  0  0  0  0  0  0  0  0  0  0
    8.5296   -5.9814   17.1841 C   0  0  0  0  0  0  0  0  0  0  0  0
    9.1527   -5.2118   16.2116 C   0  0  0  0  0  0  0  0  0  0  0  0
   10.3364   -3.8368   22.9255 O   0  0  0  0  0  0  0  0  0  0  0  0
    9.6947   -4.8407   18.8534 C   0  0  0  0  0  0  0  0  0  0  0  0
    9.1596    1.7042   24.1381 C   0  0  0  0  0  0  0  0  0  0  0  0
   11.0456   -2.9774   18.2694 N   0  0  0  0  0  0  0  0  0  0  0  0
   10.4788   -3.0457   21.8593 C   0  0  0  0  0  0  0  0  0  0  0  0
    8.8693   -5.8099   18.4657 N   0  0  0  0  0  0  0  0  0  0  0  0
    8.9892   -0.7926   25.4573 C   0  0  0  0  0  0  0  0  0  0  0  0
   10.5677   -3.4462   20.5323 C   0  0  0  0  0  0  0  0  0  0  0  0
  1  8  1  0
  1 12  4  0
  1 14  4  0
  2  3  4  0
  2 18  4  0
  3 20  4  0
  3 22  4  0
  4 11  4  0
  4 21  4  0
  5  9  4  0
  5 16  4  0
  6 15  4  0
  6 16  4  0
  7 22  4  0
  7 26  4  0
  8 10  4  0
  8 25  4  0
  9 15  4  0
  9 17  1  0
 10 21  4  0
 11 25  4  0
 12 23  4  0
 13 20  4  0
 13 26  4  0
 14 19  4  0
 17 18  4  0
 17 24  4  0
 19 23  4  0
 20 24  4  0
 23 26  1  0
M  END
$$$$

 Created by Python create_sdf_string function

 26 30  0  0  0  0  0  0  0  0999 V2000
   10.0084   -1.8019   23.4945 C   0  0  0  0  0  0  0  0  0  0  0  0
   10.0005   -4.2520   16.5631 C   0  0  0  0  0  0  0  0  0  0  0  0
   10.2759   -4.0036   17.8845 C   0  0  0  0  0  0  0  0  0  0  0  0
    8.5652    1.5478   25.3778 N   0  0  0  0  0  0  0  0  0  0  0  0
    6.8048   -7.5457   17.8752 C   0  0  0  0  0  0  0  0  0  0  0  0
    6.1721   -8.2186   15.9886 N   0  0  0  0  0  0  0  0  0  0  0  0
   11.1764   -2.6600   19.5604 C   0  0  0  0  0  0  0  0  0  0  0  0
    9.5491   -0.6380   24.1912 C   0  0  0  0  0  0  0  0  0  0  0  0
    7.5337   -6.9256   16.9519 C   0  0  0  0  0  0  0  0  0  0  0  0
    9.6782    0.5671   23.5143 C   0  0  0  0  0  0  0  0  0  0  0  0
    8.4532    0.3482   26.0821 C   0  0  0  0  0  0  0  0  0  0  0  0
   10.4239   -1.7677   22.2230 N   0  0  0  0  0  0  0  0  0  0  0  0
    9.9468   -4.5953   20.1709 C   0  0  0  0  0  0  0  0  0  0  0  0
   10.0366   -3.0590   23.9864 N   0  0  0  0  0  0  0  0  0  0  0  0
    7.1191   -7.3636   15.7739 C   0  0  0  0  0  0  0  0  0  0  0  0
    5.9612   -8.3203   17.2732 N   0  0  0  0  0  0  0  0  0  0  0  0
    8.5296   -5.9814   17.1841 C   0  0  0  0  0  0  0  0  0  0  0  0
    9.1527   -5.2118   16.2116 C   0  0  0  0  0  0  0  0  0  0  0  0
   10.3364   -3.8368   22.9255 O   0  0  0  0  0  0  0  0  0  0  0  0
    9.6947   -4.8407   18.8534 C   0  0  0  0  0  0  0  0  0  0  0  0
    9.1596    1.7042   24.1381 C   0  0  0  0  0  0  0  0  0  0  0  0
   11.0456   -2.9774   18.2694 N   0  0  0  0  0  0  0  0  0  0  0  0
   10.4788   -3.0457   21.8593 C   0  0  0  0  0  0  0  0  0  0  0  0
    8.8693   -5.8099   18.4657 N   0  0  0  0  0  0  0  0  0  0  0  0
    8.9892   -0.7926   25.4573 C   0  0  0  0  0  0  0  0  0  0  0  0
   10.5677   -3.4462   20.5323 C   0  0  0  0  0  0  0  0  0  0  0  0
  1  8  1  0
  1 12  4  0
  1 14  4  0
  2  3  4  0
  2 18  4  0
  3 20  4  0
  3 22  4  0
  4 11  4  0
  4 21  4  0
  5  9  4  0
  5 16  4  0
  6 15  4  0
  6 16  4  0
  7 22  4  0
  7 26  4  0
  8 10  4  0
  8 25  4  0
  9 15  4  0
  9 17  1  0
 10 21  4  0
 11 25  4  0
 12 23  4  0
 13 20  4  0
 13 26  4  0
 14 19  4  0
 17 18  4  0
 17 24  4  0
 19 23  4  0
 20 24  4  0
 23 26  1  0
M  END
$$$$

 Created by Python create_sdf_string function

 26 30  0  0  0  0  0  0  0  0999 V2000
   10.0084   -1.8019   23.4945 C   0  0  0  0  0  0  0  0  0  0  0  0
   10.0005   -4.2520   16.5631 C   0  0  0  0  0  0  0  0  0  0  0  0
   10.2759   -4.0036   17.8845 C   0  0  0  0  0  0  0  0  0  0  0  0
    8.5652    1.5478   25.3778 N   0  0  0  0  0  0  0  0  0  0  0  0
    6.8048   -7.5457   17.8752 C   0  0  0  0  0  0  0  0  0  0  0  0
    6.1721   -8.2186   15.9886 N   0  0  0  0  0  0  0  0  0  0  0  0
   11.1764   -2.6600   19.5604 C   0  0  0  0  0  0  0  0  0  0  0  0
    9.5491   -0.6380   24.1912 C   0  0  0  0  0  0  0  0  0  0  0  0
    7.5337   -6.9256   16.9519 C   0  0  0  0  0  0  0  0  0  0  0  0
    9.6782    0.5671   23.5143 C   0  0  0  0  0  0  0  0  0  0  0  0
    8.4532    0.3482   26.0821 C   0  0  0  0  0  0  0  0  0  0  0  0
   10.4239   -1.7677   22.2230 N   0  0  0  0  0  0  0  0  0  0  0  0
    9.9468   -4.5953   20.1709 C   0  0  0  0  0  0  0  0  0  0  0  0
   10.0366   -3.0590   23.9864 N   0  0  0  0  0  0  0  0  0  0  0  0
    7.1191   -7.3636   15.7739 C   0  0  0  0  0  0  0  0  0  0  0  0
    5.9612   -8.3203   17.2732 N   0  0  0  0  0  0  0  0  0  0  0  0
    8.5296   -5.9814   17.1841 C   0  0  0  0  0  0  0  0  0  0  0  0
    9.1527   -5.2118   16.2116 C   0  0  0  0  0  0  0  0  0  0  0  0
   10.3364   -3.8368   22.9255 O   0  0  0  0  0  0  0  0  0  0  0  0
    9.6947   -4.8407   18.8534 C   0  0  0  0  0  0  0  0  0  0  0  0
    9.1596    1.7042   24.1381 C   0  0  0  0  0  0  0  0  0  0  0  0
   11.0456   -2.9774   18.2694 N   0  0  0  0  0  0  0  0  0  0  0  0
   10.4788   -3.0457   21.8593 C   0  0  0  0  0  0  0  0  0  0  0  0
    8.8693   -5.8099   18.4657 N   0  0  0  0  0  0  0  0  0  0  0  0
    8.9892   -0.7926   25.4573 C   0  0  0  0  0  0  0  0  0  0  0  0
   10.5677   -3.4462   20.5323 C   0  0  0  0  0  0  0  0  0  0  0  0
  1  8  1  0
  1 12  4  0
  1 14  4  0
  2  3  4  0
  2 18  4  0
  3 20  4  0
  3 22  4  0
  4 11  4  0
  4 21  4  0
  5  9  4  0
  5 16  4  0
  6 15  4  0
  6 16  4  0
  7 22  4  0
  7 26  4  0
  8 10  4  0
  8 25  4  0
  9 15  4  0
  9 17  1  0
 10 21  4  0
 11 25  4  0
 12 23  4  0
 13 20  4  0
 13 26  4  0
 14 19  4  0
 17 18  4  0
 17 24  4  0
 19 23  4  0
 20 24  4  0
 23 26  1  0
M  END
$$$$

 Created by Python create_sdf_string function

 26 30  0  0  0  0  0  0  0  0999 V2000
   10.0084   -1.8019   23.4945 C   0  0  0  0  0  0  0  0  0  0  0  0
   10.0005   -4.2520   16.5631 C   0  0  0  0  0  0  0  0  0  0  0  0
   10.2759   -4.0036   17.8845 C   0  0  0  0  0  0  0  0  0  0  0  0
    8.5652    1.5478   25.3778 N   0  0  0  0  0  0  0  0  0  0  0  0
    6.8048   -7.5457   17.8752 C   0  0  0  0  0  0  0  0  0  0  0  0
    6.1721   -8.2186   15.9886 N   0  0  0  0  0  0  0  0  0  0  0  0
   11.1764   -2.6600   19.5604 C   0  0  0  0  0  0  0  0  0  0  0  0
    9.5491   -0.6380   24.1912 C   0  0  0  0  0  0  0  0  0  0  0  0
    7.5337   -6.9256   16.9519 C   0  0  0  0  0  0  0  0  0  0  0  0
    9.6782    0.5671   23.5143 C   0  0  0  0  0  0  0  0  0  0  0  0
    8.4532    0.3482   26.0821 C   0  0  0  0  0  0  0  0  0  0  0  0
   10.4239   -1.7677   22.2230 N   0  0  0  0  0  0  0  0  0  0  0  0
    9.9468   -4.5953   20.1709 C   0  0  0  0  0  0  0  0  0  0  0  0
   10.0366   -3.0590   23.9864 N   0  0  0  0  0  0  0  0  0  0  0  0
    7.1191   -7.3636   15.7739 C   0  0  0  0  0  0  0  0  0  0  0  0
    5.9612   -8.3203   17.2732 N   0  0  0  0  0  0  0  0  0  0  0  0
    8.5296   -5.9814   17.1841 C   0  0  0  0  0  0  0  0  0  0  0  0
    9.1527   -5.2118   16.2116 C   0  0  0  0  0  0  0  0  0  0  0  0
   10.3364   -3.8368   22.9255 O   0  0  0  0  0  0  0  0  0  0  0  0
    9.6947   -4.8407   18.8534 C   0  0  0  0  0  0  0  0  0  0  0  0
    9.1596    1.7042   24.1381 C   0  0  0  0  0  0  0  0  0  0  0  0
   11.0456   -2.9774   18.2694 N   0  0  0  0  0  0  0  0  0  0  0  0
   10.4788   -3.0457   21.8593 C   0  0  0  0  0  0  0  0  0  0  0  0
    8.8693   -5.8099   18.4657 N   0  0  0  0  0  0  0  0  0  0  0  0
    8.9892   -0.7926   25.4573 C   0  0  0  0  0  0  0  0  0  0  0  0
   10.5677   -3.4462   20.5323 C   0  0  0  0  0  0  0  0  0  0  0  0
  1  8  1  0
  1 12  4  0
  1 14  4  0
  2  3  4  0
  2 18  4  0
  3 20  4  0
  3 22  4  0
  4 11  4  0
  4 21  4  0
  5  9  4  0
  5 16  4  0
  6 15  4  0
  6 16  4  0
  7 22  4  0
  7 26  4  0
  8 10  4  0
  8 25  4  0
  9 15  4  0
  9 17  1  0
 10 21  4  0
 11 25  4  0
 12 23  4  0
 13 20  4  0
 13 26  4  0
 14 19  4  0
 17 18  4  0
 17 24  4  0
 19 23  4  0
 20 24  4  0
 23 26  1  0
M  END
$$$$

 Created by Python create_sdf_string function

 26 30  0  0  0  0  0  0  0  0999 V2000
   10.0084   -1.8019   23.4945 C   0  0  0  0  0  0  0  0  0  0  0  0
   10.0005   -4.2520   16.5631 C   0  0  0  0  0  0  0  0  0  0  0  0
   10.2759   -4.0036   17.8845 C   0  0  0  0  0  0  0  0  0  0  0  0
    8.5652    1.5478   25.3778 N   0  0  0  0  0  0  0  0  0  0  0  0
    6.8048   -7.5457   17.8752 C   0  0  0  0  0  0  0  0  0  0  0  0
    6.1721   -8.2186   15.9886 N   0  0  0  0  0  0  0  0  0  0  0  0
   11.1764   -2.6600   19.5604 C   0  0  0  0  0  0  0  0  0  0  0  0
    9.5491   -0.6380   24.1912 C   0  0  0  0  0  0  0  0  0  0  0  0
    7.5337   -6.9256   16.9519 C   0  0  0  0  0  0  0  0  0  0  0  0
    9.6782    0.5671   23.5143 C   0  0  0  0  0  0  0  0  0  0  0  0
    8.4532    0.3482   26.0821 C   0  0  0  0  0  0  0  0  0  0  0  0
   10.4239   -1.7677   22.2230 N   0  0  0  0  0  0  0  0  0  0  0  0
    9.9468   -4.5953   20.1709 C   0  0  0  0  0  0  0  0  0  0  0  0
   10.0366   -3.0590   23.9864 N   0  0  0  0  0  0  0  0  0  0  0  0
    7.1191   -7.3636   15.7739 C   0  0  0  0  0  0  0  0  0  0  0  0
    5.9612   -8.3203   17.2732 N   0  0  0  0  0  0  0  0  0  0  0  0
    8.5296   -5.9814   17.1841 C   0  0  0  0  0  0  0  0  0  0  0  0
    9.1527   -5.2118   16.2116 C   0  0  0  0  0  0  0  0  0  0  0  0
   10.3364   -3.8368   22.9255 O   0  0  0  0  0  0  0  0  0  0  0  0
    9.6947   -4.8407   18.8534 C   0  0  0  0  0  0  0  0  0  0  0  0
    9.1596    1.7042   24.1381 C   0  0  0  0  0  0  0  0  0  0  0  0
   11.0456   -2.9774   18.2694 N   0  0  0  0  0  0  0  0  0  0  0  0
   10.4788   -3.0457   21.8593 C   0  0  0  0  0  0  0  0  0  0  0  0
    8.8693   -5.8099   18.4657 N   0  0  0  0  0  0  0  0  0  0  0  0
    8.9892   -0.7926   25.4573 C   0  0  0  0  0  0  0  0  0  0  0  0
   10.5677   -3.4462   20.5323 C   0  0  0  0  0  0  0  0  0  0  0  0
  1  8  1  0
  1 12  4  0
  1 14  4  0
  2  3  4  0
  2 18  4  0
  3 20  4  0
  3 22  4  0
  4 11  4  0
  4 21  4  0
  5  9  4  0
  5 16  4  0
  6 15  4  0
  6 16  4  0
  7 22  4  0
  7 26  4  0
  8 10  4  0
  8 25  4  0
  9 15  4  0
  9 17  1  0
 10 21  4  0
 11 25  4  0
 12 23  4  0
 13 20  4  0
 13 26  4  0
 14 19  4  0
 17 18  4  0
 17 24  4  0
 19 23  4  0
 20 24  4  0
 23 26  1  0
M  END
$$$$

 Created by Python create_sdf_string function

 26 30  0  0  0  0  0  0  0  0999 V2000
   10.0084   -1.8019   23.4945 C   0  0  0  0  0  0  0  0  0  0  0  0
   10.0005   -4.2520   16.5631 C   0  0  0  0  0  0  0  0  0  0  0  0
   10.2759   -4.0036   17.8845 C   0  0  0  0  0  0  0  0  0  0  0  0
    8.5652    1.5478   25.3778 N   0  0  0  0  0  0  0  0  0  0  0  0
    6.8048   -7.5457   17.8752 C   0  0  0  0  0  0  0  0  0  0  0  0
    6.1721   -8.2186   15.9886 N   0  0  0  0  0  0  0  0  0  0  0  0
   11.1764   -2.6600   19.5604 C   0  0  0  0  0  0  0  0  0  0  0  0
    9.5491   -0.6380   24.1912 C   0  0  0  0  0  0  0  0  0  0  0  0
    7.5337   -6.9256   16.9519 C   0  0  0  0  0  0  0  0  0  0  0  0
    9.6782    0.5671   23.5143 C   0  0  0  0  0  0  0  0  0  0  0  0
    8.4532    0.3482   26.0821 C   0  0  0  0  0  0  0  0  0  0  0  0
   10.4239   -1.7677   22.2230 N   0  0  0  0  0  0  0  0  0  0  0  0
    9.9468   -4.5953   20.1709 C   0  0  0  0  0  0  0  0  0  0  0  0
   10.0366   -3.0590   23.9864 N   0  0  0  0  0  0  0  0  0  0  0  0
    7.1191   -7.3636   15.7739 C   0  0  0  0  0  0  0  0  0  0  0  0
    5.9612   -8.3203   17.2732 N   0  0  0  0  0  0  0  0  0  0  0  0
    8.5296   -5.9814   17.1841 C   0  0  0  0  0  0  0  0  0  0  0  0
    9.1527   -5.2118   16.2116 C   0  0  0  0  0  0  0  0  0  0  0  0
   10.3364   -3.8368   22.9255 O   0  0  0  0  0  0  0  0  0  0  0  0
    9.6947   -4.8407   18.8534 C   0  0  0  0  0  0  0  0  0  0  0  0
    9.1596    1.7042   24.1381 C   0  0  0  0  0  0  0  0  0  0  0  0
   11.0456   -2.9774   18.2694 N   0  0  0  0  0  0  0  0  0  0  0  0
   10.4788   -3.0457   21.8593 C   0  0  0  0  0  0  0  0  0  0  0  0
    8.8693   -5.8099   18.4657 N   0  0  0  0  0  0  0  0  0  0  0  0
    8.9892   -0.7926   25.4573 C   0  0  0  0  0  0  0  0  0  0  0  0
   10.5677   -3.4462   20.5323 C   0  0  0  0  0  0  0  0  0  0  0  0
  1  8  1  0
  1 12  4  0
  1 14  4  0
  2  3  4  0
  2 18  4  0
  3 20  4  0
  3 22  4  0
  4 11  4  0
  4 21  4  0
  5  9  4  0
  5 16  4  0
  6 15  4  0
  6 16  4  0
  7 22  4  0
  7 26  4  0
  8 10  4  0
  8 25  4  0
  9 15  4  0
  9 17  1  0
 10 21  4  0
 11 25  4  0
 12 23  4  0
 13 20  4  0
 13 26  4  0
 14 19  4  0
 17 18  4  0
 17 24  4  0
 19 23  4  0
 20 24  4  0
 23 26  1  0
M  END
$$$$

 Created by Python create_sdf_string function

 26 30  0  0  0  0  0  0  0  0999 V2000
   10.0084   -1.8019   23.4945 C   0  0  0  0  0  0  0  0  0  0  0  0
   10.0005   -4.2520   16.5631 C   0  0  0  0  0  0  0  0  0  0  0  0
   10.2759   -4.0036   17.8845 C   0  0  0  0  0  0  0  0  0  0  0  0
    8.5652    1.5478   25.3778 N   0  0  0  0  0  0  0  0  0  0  0  0
    6.8048   -7.5457   17.8752 C   0  0  0  0  0  0  0  0  0  0  0  0
    6.1721   -8.2186   15.9886 N   0  0  0  0  0  0  0  0  0  0  0  0
   11.1764   -2.6600   19.5604 C   0  0  0  0  0  0  0  0  0  0  0  0
    9.5491   -0.6380   24.1912 C   0  0  0  0  0  0  0  0  0  0  0  0
    7.5337   -6.9256   16.9519 C   0  0  0  0  0  0  0  0  0  0  0  0
    9.6782    0.5671   23.5143 C   0  0  0  0  0  0  0  0  0  0  0  0
    8.4532    0.3482   26.0821 C   0  0  0  0  0  0  0  0  0  0  0  0
   10.4239   -1.7677   22.2230 N   0  0  0  0  0  0  0  0  0  0  0  0
    9.9468   -4.5953   20.1709 C   0  0  0  0  0  0  0  0  0  0  0  0
   10.0366   -3.0590   23.9864 N   0  0  0  0  0  0  0  0  0  0  0  0
    7.1191   -7.3636   15.7739 C   0  0  0  0  0  0  0  0  0  0  0  0
    5.9612   -8.3203   17.2732 N   0  0  0  0  0  0  0  0  0  0  0  0
    8.5296   -5.9814   17.1841 C   0  0  0  0  0  0  0  0  0  0  0  0
    9.1527   -5.2118   16.2116 C   0  0  0  0  0  0  0  0  0  0  0  0
   10.3364   -3.8368   22.9255 O   0  0  0  0  0  0  0  0  0  0  0  0
    9.6947   -4.8407   18.8534 C   0  0  0  0  0  0  0  0  0  0  0  0
    9.1596    1.7042   24.1381 C   0  0  0  0  0  0  0  0  0  0  0  0
   11.0456   -2.9774   18.2694 N   0  0  0  0  0  0  0  0  0  0  0  0
   10.4788   -3.0457   21.8593 C   0  0  0  0  0  0  0  0  0  0  0  0
    8.8693   -5.8099   18.4657 N   0  0  0  0  0  0  0  0  0  0  0  0
    8.9892   -0.7926   25.4573 C   0  0  0  0  0  0  0  0  0  0  0  0
   10.5677   -3.4462   20.5323 C   0  0  0  0  0  0  0  0  0  0  0  0
  1  8  1  0
  1 12  4  0
  1 14  4  0
  2  3  4  0
  2 18  4  0
  3 20  4  0
  3 22  4  0
  4 11  4  0
  4 21  4  0
  5  9  4  0
  5 16  4  0
  6 15  4  0
  6 16  4  0
  7 22  4  0
  7 26  4  0
  8 10  4  0
  8 25  4  0
  9 15  4  0
  9 17  1  0
 10 21  4  0
 11 25  4  0
 12 23  4  0
 13 20  4  0
 13 26  4  0
 14 19  4  0
 17 18  4  0
 17 24  4  0
 19 23  4  0
 20 24  4  0
 23 26  1  0
M  END
$$$$

 Created by Python create_sdf_string function

 26 30  0  0  0  0  0  0  0  0999 V2000
   10.0084   -1.8019   23.4945 C   0  0  0  0  0  0  0  0  0  0  0  0
   10.0005   -4.2520   16.5631 C   0  0  0  0  0  0  0  0  0  0  0  0
   10.2759   -4.0036   17.8845 C   0  0  0  0  0  0  0  0  0  0  0  0
    8.5652    1.5478   25.3778 N   0  0  0  0  0  0  0  0  0  0  0  0
    6.8048   -7.5457   17.8752 C   0  0  0  0  0  0  0  0  0  0  0  0
    6.1721   -8.2186   15.9886 N   0  0  0  0  0  0  0  0  0  0  0  0
   11.1764   -2.6600   19.5604 C   0  0  0  0  0  0  0  0  0  0  0  0
    9.5491   -0.6380   24.1912 C   0  0  0  0  0  0  0  0  0  0  0  0
    7.5337   -6.9256   16.9519 C   0  0  0  0  0  0  0  0  0  0  0  0
    9.6782    0.5671   23.5143 C   0  0  0  0  0  0  0  0  0  0  0  0
    8.4532    0.3482   26.0821 C   0  0  0  0  0  0  0  0  0  0  0  0
   10.4239   -1.7677   22.2230 N   0  0  0  0  0  0  0  0  0  0  0  0
    9.9468   -4.5953   20.1709 C   0  0  0  0  0  0  0  0  0  0  0  0
   10.0366   -3.0590   23.9864 N   0  0  0  0  0  0  0  0  0  0  0  0
    7.1191   -7.3636   15.7739 C   0  0  0  0  0  0  0  0  0  0  0  0
    5.9612   -8.3203   17.2732 N   0  0  0  0  0  0  0  0  0  0  0  0
    8.5296   -5.9814   17.1841 C   0  0  0  0  0  0  0  0  0  0  0  0
    9.1527   -5.2118   16.2116 C   0  0  0  0  0  0  0  0  0  0  0  0
   10.3364   -3.8368   22.9255 O   0  0  0  0  0  0  0  0  0  0  0  0
    9.6947   -4.8407   18.8534 C   0  0  0  0  0  0  0  0  0  0  0  0
    9.1596    1.7042   24.1381 C   0  0  0  0  0  0  0  0  0  0  0  0
   11.0456   -2.9774   18.2694 N   0  0  0  0  0  0  0  0  0  0  0  0
   10.4788   -3.0457   21.8593 C   0  0  0  0  0  0  0  0  0  0  0  0
    8.8693   -5.8099   18.4657 N   0  0  0  0  0  0  0  0  0  0  0  0
    8.9892   -0.7926   25.4573 C   0  0  0  0  0  0  0  0  0  0  0  0
   10.5677   -3.4462   20.5323 C   0  0  0  0  0  0  0  0  0  0  0  0
  1  8  1  0
  1 12  4  0
  1 14  4  0
  2  3  4  0
  2 18  4  0
  3 20  4  0
  3 22  4  0
  4 11  4  0
  4 21  4  0
  5  9  4  0
  5 16  4  0
  6 15  4  0
  6 16  4  0
  7 22  4  0
  7 26  4  0
  8 10  4  0
  8 25  4  0
  9 15  4  0
  9 17  1  0
 10 21  4  0
 11 25  4  0
 12 23  4  0
 13 20  4  0
 13 26  4  0
 14 19  4  0
 17 18  4  0
 17 24  4  0
 19 23  4  0
 20 24  4  0
 23 26  1  0
M  END
$$$$

 Created by Python create_sdf_string function

 26 30  0  0  0  0  0  0  0  0999 V2000
   10.0084   -1.8019   23.4945 C   0  0  0  0  0  0  0  0  0  0  0  0
   10.0005   -4.2520   16.5631 C   0  0  0  0  0  0  0  0  0  0  0  0
   10.2759   -4.0036   17.8845 C   0  0  0  0  0  0  0  0  0  0  0  0
    8.5652    1.5478   25.3778 N   0  0  0  0  0  0  0  0  0  0  0  0
    6.8048   -7.5457   17.8752 C   0  0  0  0  0  0  0  0  0  0  0  0
    6.1721   -8.2186   15.9886 N   0  0  0  0  0  0  0  0  0  0  0  0
   11.1764   -2.6600   19.5604 C   0  0  0  0  0  0  0  0  0  0  0  0
    9.5491   -0.6380   24.1912 C   0  0  0  0  0  0  0  0  0  0  0  0
    7.5337   -6.9256   16.9519 C   0  0  0  0  0  0  0  0  0  0  0  0
    9.6782    0.5671   23.5143 C   0  0  0  0  0  0  0  0  0  0  0  0
    8.4532    0.3482   26.0821 C   0  0  0  0  0  0  0  0  0  0  0  0
   10.4239   -1.7677   22.2230 N   0  0  0  0  0  0  0  0  0  0  0  0
    9.9468   -4.5953   20.1709 C   0  0  0  0  0  0  0  0  0  0  0  0
   10.0366   -3.0590   23.9864 N   0  0  0  0  0  0  0  0  0  0  0  0
    7.1191   -7.3636   15.7739 C   0  0  0  0  0  0  0  0  0  0  0  0
    5.9612   -8.3203   17.2732 N   0  0  0  0  0  0  0  0  0  0  0  0
    8.5296   -5.9814   17.1841 C   0  0  0  0  0  0  0  0  0  0  0  0
    9.1527   -5.2118   16.2116 C   0  0  0  0  0  0  0  0  0  0  0  0
   10.3364   -3.8368   22.9255 O   0  0  0  0  0  0  0  0  0  0  0  0
    9.6947   -4.8407   18.8534 C   0  0  0  0  0  0  0  0  0  0  0  0
    9.1596    1.7042   24.1381 C   0  0  0  0  0  0  0  0  0  0  0  0
   11.0456   -2.9774   18.2694 N   0  0  0  0  0  0  0  0  0  0  0  0
   10.4788   -3.0457   21.8593 C   0  0  0  0  0  0  0  0  0  0  0  0
    8.8693   -5.8099   18.4657 N   0  0  0  0  0  0  0  0  0  0  0  0
    8.9892   -0.7926   25.4573 C   0  0  0  0  0  0  0  0  0  0  0  0
   10.5677   -3.4462   20.5323 C   0  0  0  0  0  0  0  0  0  0  0  0
  1  8  1  0
  1 12  4  0
  1 14  4  0
  2  3  4  0
  2 18  4  0
  3 20  4  0
  3 22  4  0
  4 11  4  0
  4 21  4  0
  5  9  4  0
  5 16  4  0
  6 15  4  0
  6 16  4  0
  7 22  4  0
  7 26  4  0
  8 10  4  0
  8 25  4  0
  9 15  4  0
  9 17  1  0
 10 21  4  0
 11 25  4  0
 12 23  4  0
 13 20  4  0
 13 26  4  0
 14 19  4  0
 17 18  4  0
 17 24  4  0
 19 23  4  0
 20 24  4  0
 23 26  1  0
M  END
$$$$

 Created by Python create_sdf_string function

 26 30  0  0  0  0  0  0  0  0999 V2000
   10.0084   -1.8019   23.4945 C   0  0  0  0  0  0  0  0  0  0  0  0
   10.0005   -4.2520   16.5631 C   0  0  0  0  0  0  0  0  0  0  0  0
   10.2759   -4.0036   17.8845 C   0  0  0  0  0  0  0  0  0  0  0  0
    8.5652    1.5478   25.3778 N   0  0  0  0  0  0  0  0  0  0  0  0
    6.8048   -7.5457   17.8752 C   0  0  0  0  0  0  0  0  0  0  0  0
    6.1721   -8.2186   15.9886 N   0  0  0  0  0  0  0  0  0  0  0  0
   11.1764   -2.6600   19.5604 C   0  0  0  0  0  0  0  0  0  0  0  0
    9.5491   -0.6380   24.1912 C   0  0  0  0  0  0  0  0  0  0  0  0
    7.5337   -6.9256   16.9519 C   0  0  0  0  0  0  0  0  0  0  0  0
    9.6782    0.5671   23.5143 C   0  0  0  0  0  0  0  0  0  0  0  0
    8.4532    0.3482   26.0821 C   0  0  0  0  0  0  0  0  0  0  0  0
   10.4239   -1.7677   22.2230 N   0  0  0  0  0  0  0  0  0  0  0  0
    9.9468   -4.5953   20.1709 C   0  0  0  0  0  0  0  0  0  0  0  0
   10.0366   -3.0590   23.9864 N   0  0  0  0  0  0  0  0  0  0  0  0
    7.1191   -7.3636   15.7739 C   0  0  0  0  0  0  0  0  0  0  0  0
    5.9612   -8.3203   17.2732 N   0  0  0  0  0  0  0  0  0  0  0  0
    8.5296   -5.9814   17.1841 C   0  0  0  0  0  0  0  0  0  0  0  0
    9.1527   -5.2118   16.2116 C   0  0  0  0  0  0  0  0  0  0  0  0
   10.3364   -3.8368   22.9255 O   0  0  0  0  0  0  0  0  0  0  0  0
    9.6947   -4.8407   18.8534 C   0  0  0  0  0  0  0  0  0  0  0  0
    9.1596    1.7042   24.1381 C   0  0  0  0  0  0  0  0  0  0  0  0
   11.0456   -2.9774   18.2694 N   0  0  0  0  0  0  0  0  0  0  0  0
   10.4788   -3.0457   21.8593 C   0  0  0  0  0  0  0  0  0  0  0  0
    8.8693   -5.8099   18.4657 N   0  0  0  0  0  0  0  0  0  0  0  0
    8.9892   -0.7926   25.4573 C   0  0  0  0  0  0  0  0  0  0  0  0
   10.5677   -3.4462   20.5323 C   0  0  0  0  0  0  0  0  0  0  0  0
  1  8  1  0
  1 12  4  0
  1 14  4  0
  2  3  4  0
  2 18  4  0
  3 20  4  0
  3 22  4  0
  4 11  4  0
  4 21  4  0
  5  9  4  0
  5 16  4  0
  6 15  4  0
  6 16  4  0
  7 22  4  0
  7 26  4  0
  8 10  4  0
  8 25  4  0
  9 15  4  0
  9 17  1  0
 10 21  4  0
 11 25  4  0
 12 23  4  0
 13 20  4  0
 13 26  4  0
 14 19  4  0
 17 18  4  0
 17 24  4  0
 19 23  4  0
 20 24  4  0
 23 26  1  0
M  END
$$$$

 Created by Python create_sdf_string function

 26 30  0  0  0  0  0  0  0  0999 V2000
   10.0084   -1.8019   23.4945 C   0  0  0  0  0  0  0  0  0  0  0  0
   10.0005   -4.2520   16.5631 C   0  0  0  0  0  0  0  0  0  0  0  0
   10.2759   -4.0036   17.8845 C   0  0  0  0  0  0  0  0  0  0  0  0
    8.5652    1.5478   25.3778 N   0  0  0  0  0  0  0  0  0  0  0  0
    6.8048   -7.5457   17.8752 C   0  0  0  0  0  0  0  0  0  0  0  0
    6.1721   -8.2186   15.9886 N   0  0  0  0  0  0  0  0  0  0  0  0
   11.1764   -2.6600   19.5604 C   0  0  0  0  0  0  0  0  0  0  0  0
    9.5491   -0.6380   24.1912 C   0  0  0  0  0  0  0  0  0  0  0  0
    7.5337   -6.9256   16.9519 C   0  0  0  0  0  0  0  0  0  0  0  0
    9.6782    0.5671   23.5143 C   0  0  0  0  0  0  0  0  0  0  0  0
    8.4532    0.3482   26.0821 C   0  0  0  0  0  0  0  0  0  0  0  0
   10.4239   -1.7677   22.2230 N   0  0  0  0  0  0  0  0  0  0  0  0
    9.9468   -4.5953   20.1709 C   0  0  0  0  0  0  0  0  0  0  0  0
   10.0366   -3.0590   23.9864 N   0  0  0  0  0  0  0  0  0  0  0  0
    7.1191   -7.3636   15.7739 C   0  0  0  0  0  0  0  0  0  0  0  0
    5.9612   -8.3203   17.2732 N   0  0  0  0  0  0  0  0  0  0  0  0
    8.5296   -5.9814   17.1841 C   0  0  0  0  0  0  0  0  0  0  0  0
    9.1527   -5.2118   16.2116 C   0  0  0  0  0  0  0  0  0  0  0  0
   10.3364   -3.8368   22.9255 O   0  0  0  0  0  0  0  0  0  0  0  0
    9.6947   -4.8407   18.8534 C   0  0  0  0  0  0  0  0  0  0  0  0
    9.1596    1.7042   24.1381 C   0  0  0  0  0  0  0  0  0  0  0  0
   11.0456   -2.9774   18.2694 N   0  0  0  0  0  0  0  0  0  0  0  0
   10.4788   -3.0457   21.8593 C   0  0  0  0  0  0  0  0  0  0  0  0
    8.8693   -5.8099   18.4657 N   0  0  0  0  0  0  0  0  0  0  0  0
    8.9892   -0.7926   25.4573 C   0  0  0  0  0  0  0  0  0  0  0  0
   10.5677   -3.4462   20.5323 C   0  0  0  0  0  0  0  0  0  0  0  0
  1  8  1  0
  1 12  4  0
  1 14  4  0
  2  3  4  0
  2 18  4  0
  3 20  4  0
  3 22  4  0
  4 11  4  0
  4 21  4  0
  5  9  4  0
  5 16  4  0
  6 15  4  0
  6 16  4  0
  7 22  4  0
  7 26  4  0
  8 10  4  0
  8 25  4  0
  9 15  4  0
  9 17  1  0
 10 21  4  0
 11 25  4  0
 12 23  4  0
 13 20  4  0
 13 26  4  0
 14 19  4  0
 17 18  4  0
 17 24  4  0
 19 23  4  0
 20 24  4  0
 23 26  1  0
M  END
$$$$

 Created by Python create_sdf_string function

 26 30  0  0  0  0  0  0  0  0999 V2000
   10.0084   -1.8019   23.4945 C   0  0  0  0  0  0  0  0  0  0  0  0
   10.0005   -4.2520   16.5631 C   0  0  0  0  0  0  0  0  0  0  0  0
   10.2759   -4.0036   17.8845 C   0  0  0  0  0  0  0  0  0  0  0  0
    8.5652    1.5478   25.3778 N   0  0  0  0  0  0  0  0  0  0  0  0
    6.8048   -7.5457   17.8752 C   0  0  0  0  0  0  0  0  0  0  0  0
    6.1721   -8.2186   15.9886 N   0  0  0  0  0  0  0  0  0  0  0  0
   11.1764   -2.6600   19.5604 C   0  0  0  0  0  0  0  0  0  0  0  0
    9.5491   -0.6380   24.1912 C   0  0  0  0  0  0  0  0  0  0  0  0
    7.5337   -6.9256   16.9519 C   0  0  0  0  0  0  0  0  0  0  0  0
    9.6782    0.5671   23.5143 C   0  0  0  0  0  0  0  0  0  0  0  0
    8.4532    0.3482   26.0821 C   0  0  0  0  0  0  0  0  0  0  0  0
   10.4239   -1.7677   22.2230 N   0  0  0  0  0  0  0  0  0  0  0  0
    9.9468   -4.5953   20.1709 C   0  0  0  0  0  0  0  0  0  0  0  0
   10.0366   -3.0590   23.9864 N   0  0  0  0  0  0  0  0  0  0  0  0
    7.1191   -7.3636   15.7739 C   0  0  0  0  0  0  0  0  0  0  0  0
    5.9612   -8.3203   17.2732 N   0  0  0  0  0  0  0  0  0  0  0  0
    8.5296   -5.9814   17.1841 C   0  0  0  0  0  0  0  0  0  0  0  0
    9.1527   -5.2118   16.2116 C   0  0  0  0  0  0  0  0  0  0  0  0
   10.3364   -3.8368   22.9255 O   0  0  0  0  0  0  0  0  0  0  0  0
    9.6947   -4.8407   18.8534 C   0  0  0  0  0  0  0  0  0  0  0  0
    9.1596    1.7042   24.1381 C   0  0  0  0  0  0  0  0  0  0  0  0
   11.0456   -2.9774   18.2694 N   0  0  0  0  0  0  0  0  0  0  0  0
   10.4788   -3.0457   21.8593 C   0  0  0  0  0  0  0  0  0  0  0  0
    8.8693   -5.8099   18.4657 N   0  0  0  0  0  0  0  0  0  0  0  0
    8.9892   -0.7926   25.4573 C   0  0  0  0  0  0  0  0  0  0  0  0
   10.5677   -3.4462   20.5323 C   0  0  0  0  0  0  0  0  0  0  0  0
  1  8  1  0
  1 12  4  0
  1 14  4  0
  2  3  4  0
  2 18  4  0
  3 20  4  0
  3 22  4  0
  4 11  4  0
  4 21  4  0
  5  9  4  0
  5 16  4  0
  6 15  4  0
  6 16  4  0
  7 22  4  0
  7 26  4  0
  8 10  4  0
  8 25  4  0
  9 15  4  0
  9 17  1  0
 10 21  4  0
 11 25  4  0
 12 23  4  0
 13 20  4  0
 13 26  4  0
 14 19  4  0
 17 18  4  0
 17 24  4  0
 19 23  4  0
 20 24  4  0
 23 26  1  0
M  END
$$$$

 Created by Python create_sdf_string function

 26 30  0  0  0  0  0  0  0  0999 V2000
   10.0084   -1.8019   23.4945 C   0  0  0  0  0  0  0  0  0  0  0  0
   10.0005   -4.2520   16.5631 C   0  0  0  0  0  0  0  0  0  0  0  0
   10.2759   -4.0036   17.8845 C   0  0  0  0  0  0  0  0  0  0  0  0
    8.5652    1.5478   25.3778 N   0  0  0  0  0  0  0  0  0  0  0  0
    6.8048   -7.5457   17.8752 C   0  0  0  0  0  0  0  0  0  0  0  0
    6.1721   -8.2186   15.9886 N   0  0  0  0  0  0  0  0  0  0  0  0
   11.1764   -2.6600   19.5604 C   0  0  0  0  0  0  0  0  0  0  0  0
    9.5491   -0.6380   24.1912 C   0  0  0  0  0  0  0  0  0  0  0  0
    7.5337   -6.9256   16.9519 C   0  0  0  0  0  0  0  0  0  0  0  0
    9.6782    0.5671   23.5143 C   0  0  0  0  0  0  0  0  0  0  0  0
    8.4532    0.3482   26.0821 C   0  0  0  0  0  0  0  0  0  0  0  0
   10.4239   -1.7677   22.2230 N   0  0  0  0  0  0  0  0  0  0  0  0
    9.9468   -4.5953   20.1709 C   0  0  0  0  0  0  0  0  0  0  0  0
   10.0366   -3.0590   23.9864 N   0  0  0  0  0  0  0  0  0  0  0  0
    7.1191   -7.3636   15.7739 C   0  0  0  0  0  0  0  0  0  0  0  0
    5.9612   -8.3203   17.2732 N   0  0  0  0  0  0  0  0  0  0  0  0
    8.5296   -5.9814   17.1841 C   0  0  0  0  0  0  0  0  0  0  0  0
    9.1527   -5.2118   16.2116 C   0  0  0  0  0  0  0  0  0  0  0  0
   10.3364   -3.8368   22.9255 O   0  0  0  0  0  0  0  0  0  0  0  0
    9.6947   -4.8407   18.8534 C   0  0  0  0  0  0  0  0  0  0  0  0
    9.1596    1.7042   24.1381 C   0  0  0  0  0  0  0  0  0  0  0  0
   11.0456   -2.9774   18.2694 N   0  0  0  0  0  0  0  0  0  0  0  0
   10.4788   -3.0457   21.8593 C   0  0  0  0  0  0  0  0  0  0  0  0
    8.8693   -5.8099   18.4657 N   0  0  0  0  0  0  0  0  0  0  0  0
    8.9892   -0.7926   25.4573 C   0  0  0  0  0  0  0  0  0  0  0  0
   10.5677   -3.4462   20.5323 C   0  0  0  0  0  0  0  0  0  0  0  0
  1  8  1  0
  1 12  4  0
  1 14  4  0
  2  3  4  0
  2 18  4  0
  3 20  4  0
  3 22  4  0
  4 11  4  0
  4 21  4  0
  5  9  4  0
  5 16  4  0
  6 15  4  0
  6 16  4  0
  7 22  4  0
  7 26  4  0
  8 10  4  0
  8 25  4  0
  9 15  4  0
  9 17  1  0
 10 21  4  0
 11 25  4  0
 12 23  4  0
 13 20  4  0
 13 26  4  0
 14 19  4  0
 17 18  4  0
 17 24  4  0
 19 23  4  0
 20 24  4  0
 23 26  1  0
M  END
$$$$

 Created by Python create_sdf_string function

 26 30  0  0  0  0  0  0  0  0999 V2000
   10.0084   -1.8019   23.4945 C   0  0  0  0  0  0  0  0  0  0  0  0
   10.0005   -4.2520   16.5631 C   0  0  0  0  0  0  0  0  0  0  0  0
   10.2759   -4.0036   17.8845 C   0  0  0  0  0  0  0  0  0  0  0  0
    8.5652    1.5478   25.3778 N   0  0  0  0  0  0  0  0  0  0  0  0
    6.8048   -7.5457   17.8752 C   0  0  0  0  0  0  0  0  0  0  0  0
    6.1721   -8.2186   15.9886 N   0  0  0  0  0  0  0  0  0  0  0  0
   11.1764   -2.6600   19.5604 C   0  0  0  0  0  0  0  0  0  0  0  0
    9.5491   -0.6380   24.1912 C   0  0  0  0  0  0  0  0  0  0  0  0
    7.5337   -6.9256   16.9519 C   0  0  0  0  0  0  0  0  0  0  0  0
    9.6782    0.5671   23.5143 C   0  0  0  0  0  0  0  0  0  0  0  0
    8.4532    0.3482   26.0821 C   0  0  0  0  0  0  0  0  0  0  0  0
   10.4239   -1.7677   22.2230 N   0  0  0  0  0  0  0  0  0  0  0  0
    9.9468   -4.5953   20.1709 C   0  0  0  0  0  0  0  0  0  0  0  0
   10.0366   -3.0590   23.9864 N   0  0  0  0  0  0  0  0  0  0  0  0
    7.1191   -7.3636   15.7739 C   0  0  0  0  0  0  0  0  0  0  0  0
    5.9612   -8.3203   17.2732 N   0  0  0  0  0  0  0  0  0  0  0  0
    8.5296   -5.9814   17.1841 C   0  0  0  0  0  0  0  0  0  0  0  0
    9.1527   -5.2118   16.2116 C   0  0  0  0  0  0  0  0  0  0  0  0
   10.3364   -3.8368   22.9255 O   0  0  0  0  0  0  0  0  0  0  0  0
    9.6947   -4.8407   18.8534 C   0  0  0  0  0  0  0  0  0  0  0  0
    9.1596    1.7042   24.1381 C   0  0  0  0  0  0  0  0  0  0  0  0
   11.0456   -2.9774   18.2694 N   0  0  0  0  0  0  0  0  0  0  0  0
   10.4788   -3.0457   21.8593 C   0  0  0  0  0  0  0  0  0  0  0  0
    8.8693   -5.8099   18.4657 N   0  0  0  0  0  0  0  0  0  0  0  0
    8.9892   -0.7926   25.4573 C   0  0  0  0  0  0  0  0  0  0  0  0
   10.5677   -3.4462   20.5323 C   0  0  0  0  0  0  0  0  0  0  0  0
  1  8  1  0
  1 12  4  0
  1 14  4  0
  2  3  4  0
  2 18  4  0
  3 20  4  0
  3 22  4  0
  4 11  4  0
  4 21  4  0
  5  9  4  0
  5 16  4  0
  6 15  4  0
  6 16  4  0
  7 22  4  0
  7 26  4  0
  8 10  4  0
  8 25  4  0
  9 15  4  0
  9 17  1  0
 10 21  4  0
 11 25  4  0
 12 23  4  0
 13 20  4  0
 13 26  4  0
 14 19  4  0
 17 18  4  0
 17 24  4  0
 19 23  4  0
 20 24  4  0
 23 26  1  0
M  END
$$$$

 Created by Python create_sdf_string function

 26 30  0  0  0  0  0  0  0  0999 V2000
   10.0084   -1.8019   23.4945 C   0  0  0  0  0  0  0  0  0  0  0  0
   10.0005   -4.2520   16.5631 C   0  0  0  0  0  0  0  0  0  0  0  0
   10.2759   -4.0036   17.8845 C   0  0  0  0  0  0  0  0  0  0  0  0
    8.5652    1.5478   25.3778 N   0  0  0  0  0  0  0  0  0  0  0  0
    6.8048   -7.5457   17.8752 C   0  0  0  0  0  0  0  0  0  0  0  0
    6.1721   -8.2186   15.9886 N   0  0  0  0  0  0  0  0  0  0  0  0
   11.1764   -2.6600   19.5604 C   0  0  0  0  0  0  0  0  0  0  0  0
    9.5491   -0.6380   24.1912 C   0  0  0  0  0  0  0  0  0  0  0  0
    7.5337   -6.9256   16.9519 C   0  0  0  0  0  0  0  0  0  0  0  0
    9.6782    0.5671   23.5143 C   0  0  0  0  0  0  0  0  0  0  0  0
    8.4532    0.3482   26.0821 C   0  0  0  0  0  0  0  0  0  0  0  0
   10.4239   -1.7677   22.2230 N   0  0  0  0  0  0  0  0  0  0  0  0
    9.9468   -4.5953   20.1709 C   0  0  0  0  0  0  0  0  0  0  0  0
   10.0366   -3.0590   23.9864 N   0  0  0  0  0  0  0  0  0  0  0  0
    7.1191   -7.3636   15.7739 C   0  0  0  0  0  0  0  0  0  0  0  0
    5.9612   -8.3203   17.2732 N   0  0  0  0  0  0  0  0  0  0  0  0
    8.5296   -5.9814   17.1841 C   0  0  0  0  0  0  0  0  0  0  0  0
    9.1527   -5.2118   16.2116 C   0  0  0  0  0  0  0  0  0  0  0  0
   10.3364   -3.8368   22.9255 O   0  0  0  0  0  0  0  0  0  0  0  0
    9.6947   -4.8407   18.8534 C   0  0  0  0  0  0  0  0  0  0  0  0
    9.1596    1.7042   24.1381 C   0  0  0  0  0  0  0  0  0  0  0  0
   11.0456   -2.9774   18.2694 N   0  0  0  0  0  0  0  0  0  0  0  0
   10.4788   -3.0457   21.8593 C   0  0  0  0  0  0  0  0  0  0  0  0
    8.8693   -5.8099   18.4657 N   0  0  0  0  0  0  0  0  0  0  0  0
    8.9892   -0.7926   25.4573 C   0  0  0  0  0  0  0  0  0  0  0  0
   10.5677   -3.4462   20.5323 C   0  0  0  0  0  0  0  0  0  0  0  0
  1  8  1  0
  1 12  4  0
  1 14  4  0
  2  3  4  0
  2 18  4  0
  3 20  4  0
  3 22  4  0
  4 11  4  0
  4 21  4  0
  5  9  4  0
  5 16  4  0
  6 15  4  0
  6 16  4  0
  7 22  4  0
  7 26  4  0
  8 10  4  0
  8 25  4  0
  9 15  4  0
  9 17  1  0
 10 21  4  0
 11 25  4  0
 12 23  4  0
 13 20  4  0
 13 26  4  0
 14 19  4  0
 17 18  4  0
 17 24  4  0
 19 23  4  0
 20 24  4  0
 23 26  1  0
M  END
$$$$

 Created by Python create_sdf_string function

 26 30  0  0  0  0  0  0  0  0999 V2000
   10.0084   -1.8019   23.4945 C   0  0  0  0  0  0  0  0  0  0  0  0
   10.0005   -4.2520   16.5631 C   0  0  0  0  0  0  0  0  0  0  0  0
   10.2759   -4.0036   17.8845 C   0  0  0  0  0  0  0  0  0  0  0  0
    8.5652    1.5478   25.3778 N   0  0  0  0  0  0  0  0  0  0  0  0
    6.8048   -7.5457   17.8752 C   0  0  0  0  0  0  0  0  0  0  0  0
    6.1721   -8.2186   15.9886 N   0  0  0  0  0  0  0  0  0  0  0  0
   11.1764   -2.6600   19.5604 C   0  0  0  0  0  0  0  0  0  0  0  0
    9.5491   -0.6380   24.1912 C   0  0  0  0  0  0  0  0  0  0  0  0
    7.5337   -6.9256   16.9519 C   0  0  0  0  0  0  0  0  0  0  0  0
    9.6782    0.5671   23.5143 C   0  0  0  0  0  0  0  0  0  0  0  0
    8.4532    0.3482   26.0821 C   0  0  0  0  0  0  0  0  0  0  0  0
   10.4239   -1.7677   22.2230 N   0  0  0  0  0  0  0  0  0  0  0  0
    9.9468   -4.5953   20.1709 C   0  0  0  0  0  0  0  0  0  0  0  0
   10.0366   -3.0590   23.9864 N   0  0  0  0  0  0  0  0  0  0  0  0
    7.1191   -7.3636   15.7739 C   0  0  0  0  0  0  0  0  0  0  0  0
    5.9612   -8.3203   17.2732 N   0  0  0  0  0  0  0  0  0  0  0  0
    8.5296   -5.9814   17.1841 C   0  0  0  0  0  0  0  0  0  0  0  0
    9.1527   -5.2118   16.2116 C   0  0  0  0  0  0  0  0  0  0  0  0
   10.3364   -3.8368   22.9255 O   0  0  0  0  0  0  0  0  0  0  0  0
    9.6947   -4.8407   18.8534 C   0  0  0  0  0  0  0  0  0  0  0  0
    9.1596    1.7042   24.1381 C   0  0  0  0  0  0  0  0  0  0  0  0
   11.0456   -2.9774   18.2694 N   0  0  0  0  0  0  0  0  0  0  0  0
   10.4788   -3.0457   21.8593 C   0  0  0  0  0  0  0  0  0  0  0  0
    8.8693   -5.8099   18.4657 N   0  0  0  0  0  0  0  0  0  0  0  0
    8.9892   -0.7926   25.4573 C   0  0  0  0  0  0  0  0  0  0  0  0
   10.5677   -3.4462   20.5323 C   0  0  0  0  0  0  0  0  0  0  0  0
  1  8  1  0
  1 12  4  0
  1 14  4  0
  2  3  4  0
  2 18  4  0
  3 20  4  0
  3 22  4  0
  4 11  4  0
  4 21  4  0
  5  9  4  0
  5 16  4  0
  6 15  4  0
  6 16  4  0
  7 22  4  0
  7 26  4  0
  8 10  4  0
  8 25  4  0
  9 15  4  0
  9 17  1  0
 10 21  4  0
 11 25  4  0
 12 23  4  0
 13 20  4  0
 13 26  4  0
 14 19  4  0
 17 18  4  0
 17 24  4  0
 19 23  4  0
 20 24  4  0
 23 26  1  0
M  END
$$$$

 Created by Python create_sdf_string function

 26 30  0  0  0  0  0  0  0  0999 V2000
   10.0084   -1.8019   23.4945 C   0  0  0  0  0  0  0  0  0  0  0  0
   10.0005   -4.2520   16.5631 C   0  0  0  0  0  0  0  0  0  0  0  0
   10.2759   -4.0036   17.8845 C   0  0  0  0  0  0  0  0  0  0  0  0
    8.5652    1.5478   25.3778 N   0  0  0  0  0  0  0  0  0  0  0  0
    6.8048   -7.5457   17.8752 C   0  0  0  0  0  0  0  0  0  0  0  0
    6.1721   -8.2186   15.9886 N   0  0  0  0  0  0  0  0  0  0  0  0
   11.1764   -2.6600   19.5604 C   0  0  0  0  0  0  0  0  0  0  0  0
    9.5491   -0.6380   24.1912 C   0  0  0  0  0  0  0  0  0  0  0  0
    7.5337   -6.9256   16.9519 C   0  0  0  0  0  0  0  0  0  0  0  0
    9.6782    0.5671   23.5143 C   0  0  0  0  0  0  0  0  0  0  0  0
    8.4532    0.3482   26.0821 C   0  0  0  0  0  0  0  0  0  0  0  0
   10.4239   -1.7677   22.2230 N   0  0  0  0  0  0  0  0  0  0  0  0
    9.9468   -4.5953   20.1709 C   0  0  0  0  0  0  0  0  0  0  0  0
   10.0366   -3.0590   23.9864 N   0  0  0  0  0  0  0  0  0  0  0  0
    7.1191   -7.3636   15.7739 C   0  0  0  0  0  0  0  0  0  0  0  0
    5.9612   -8.3203   17.2732 N   0  0  0  0  0  0  0  0  0  0  0  0
    8.5296   -5.9814   17.1841 C   0  0  0  0  0  0  0  0  0  0  0  0
    9.1527   -5.2118   16.2116 C   0  0  0  0  0  0  0  0  0  0  0  0
   10.3364   -3.8368   22.9255 O   0  0  0  0  0  0  0  0  0  0  0  0
    9.6947   -4.8407   18.8534 C   0  0  0  0  0  0  0  0  0  0  0  0
    9.1596    1.7042   24.1381 C   0  0  0  0  0  0  0  0  0  0  0  0
   11.0456   -2.9774   18.2694 N   0  0  0  0  0  0  0  0  0  0  0  0
   10.4788   -3.0457   21.8593 C   0  0  0  0  0  0  0  0  0  0  0  0
    8.8693   -5.8099   18.4657 N   0  0  0  0  0  0  0  0  0  0  0  0
    8.9892   -0.7926   25.4573 C   0  0  0  0  0  0  0  0  0  0  0  0
   10.5677   -3.4462   20.5323 C   0  0  0  0  0  0  0  0  0  0  0  0
  1  8  1  0
  1 12  4  0
  1 14  4  0
  2  3  4  0
  2 18  4  0
  3 20  4  0
  3 22  4  0
  4 11  4  0
  4 21  4  0
  5  9  4  0
  5 16  4  0
  6 15  4  0
  6 16  4  0
  7 22  4  0
  7 26  4  0
  8 10  4  0
  8 25  4  0
  9 15  4  0
  9 17  1  0
 10 21  4  0
 11 25  4  0
 12 23  4  0
 13 20  4  0
 13 26  4  0
 14 19  4  0
 17 18  4  0
 17 24  4  0
 19 23  4  0
 20 24  4  0
 23 26  1  0
M  END
$$$$

 Created by Python create_sdf_string function

 26 30  0  0  0  0  0  0  0  0999 V2000
   10.0084   -1.8019   23.4945 C   0  0  0  0  0  0  0  0  0  0  0  0
   10.0005   -4.2520   16.5631 C   0  0  0  0  0  0  0  0  0  0  0  0
   10.2759   -4.0036   17.8845 C   0  0  0  0  0  0  0  0  0  0  0  0
    8.5652    1.5478   25.3778 N   0  0  0  0  0  0  0  0  0  0  0  0
    6.8048   -7.5457   17.8752 C   0  0  0  0  0  0  0  0  0  0  0  0
    6.1721   -8.2186   15.9886 N   0  0  0  0  0  0  0  0  0  0  0  0
   11.1764   -2.6600   19.5604 C   0  0  0  0  0  0  0  0  0  0  0  0
    9.5491   -0.6380   24.1912 C   0  0  0  0  0  0  0  0  0  0  0  0
    7.5337   -6.9256   16.9519 C   0  0  0  0  0  0  0  0  0  0  0  0
    9.6782    0.5671   23.5143 C   0  0  0  0  0  0  0  0  0  0  0  0
    8.4532    0.3482   26.0821 C   0  0  0  0  0  0  0  0  0  0  0  0
   10.4239   -1.7677   22.2230 N   0  0  0  0  0  0  0  0  0  0  0  0
    9.9468   -4.5953   20.1709 C   0  0  0  0  0  0  0  0  0  0  0  0
   10.0366   -3.0590   23.9864 N   0  0  0  0  0  0  0  0  0  0  0  0
    7.1191   -7.3636   15.7739 C   0  0  0  0  0  0  0  0  0  0  0  0
    5.9612   -8.3203   17.2732 N   0  0  0  0  0  0  0  0  0  0  0  0
    8.5296   -5.9814   17.1841 C   0  0  0  0  0  0  0  0  0  0  0  0
    9.1527   -5.2118   16.2116 C   0  0  0  0  0  0  0  0  0  0  0  0
   10.3364   -3.8368   22.9255 O   0  0  0  0  0  0  0  0  0  0  0  0
    9.6947   -4.8407   18.8534 C   0  0  0  0  0  0  0  0  0  0  0  0
    9.1596    1.7042   24.1381 C   0  0  0  0  0  0  0  0  0  0  0  0
   11.0456   -2.9774   18.2694 N   0  0  0  0  0  0  0  0  0  0  0  0
   10.4788   -3.0457   21.8593 C   0  0  0  0  0  0  0  0  0  0  0  0
    8.8693   -5.8099   18.4657 N   0  0  0  0  0  0  0  0  0  0  0  0
    8.9892   -0.7926   25.4573 C   0  0  0  0  0  0  0  0  0  0  0  0
   10.5677   -3.4462   20.5323 C   0  0  0  0  0  0  0  0  0  0  0  0
  1  8  1  0
  1 12  4  0
  1 14  4  0
  2  3  4  0
  2 18  4  0
  3 20  4  0
  3 22  4  0
  4 11  4  0
  4 21  4  0
  5  9  4  0
  5 16  4  0
  6 15  4  0
  6 16  4  0
  7 22  4  0
  7 26  4  0
  8 10  4  0
  8 25  4  0
  9 15  4  0
  9 17  1  0
 10 21  4  0
 11 25  4  0
 12 23  4  0
 13 20  4  0
 13 26  4  0
 14 19  4  0
 17 18  4  0
 17 24  4  0
 19 23  4  0
 20 24  4  0
 23 26  1  0
M  END
$$$$

 Created by Python create_sdf_string function

 26 30  0  0  0  0  0  0  0  0999 V2000
   10.0084   -1.8019   23.4945 C   0  0  0  0  0  0  0  0  0  0  0  0
   10.0005   -4.2520   16.5631 C   0  0  0  0  0  0  0  0  0  0  0  0
   10.2759   -4.0036   17.8845 C   0  0  0  0  0  0  0  0  0  0  0  0
    8.5652    1.5478   25.3778 N   0  0  0  0  0  0  0  0  0  0  0  0
    6.8048   -7.5457   17.8752 C   0  0  0  0  0  0  0  0  0  0  0  0
    6.1721   -8.2186   15.9886 N   0  0  0  0  0  0  0  0  0  0  0  0
   11.1764   -2.6600   19.5604 C   0  0  0  0  0  0  0  0  0  0  0  0
    9.5491   -0.6380   24.1912 C   0  0  0  0  0  0  0  0  0  0  0  0
    7.5337   -6.9256   16.9519 C   0  0  0  0  0  0  0  0  0  0  0  0
    9.6782    0.5671   23.5143 C   0  0  0  0  0  0  0  0  0  0  0  0
    8.4532    0.3482   26.0821 C   0  0  0  0  0  0  0  0  0  0  0  0
   10.4239   -1.7677   22.2230 N   0  0  0  0  0  0  0  0  0  0  0  0
    9.9468   -4.5953   20.1709 C   0  0  0  0  0  0  0  0  0  0  0  0
   10.0366   -3.0590   23.9864 N   0  0  0  0  0  0  0  0  0  0  0  0
    7.1191   -7.3636   15.7739 C   0  0  0  0  0  0  0  0  0  0  0  0
    5.9612   -8.3203   17.2732 N   0  0  0  0  0  0  0  0  0  0  0  0
    8.5296   -5.9814   17.1841 C   0  0  0  0  0  0  0  0  0  0  0  0
    9.1527   -5.2118   16.2116 C   0  0  0  0  0  0  0  0  0  0  0  0
   10.3364   -3.8368   22.9255 O   0  0  0  0  0  0  0  0  0  0  0  0
    9.6947   -4.8407   18.8534 C   0  0  0  0  0  0  0  0  0  0  0  0
    9.1596    1.7042   24.1381 C   0  0  0  0  0  0  0  0  0  0  0  0
   11.0456   -2.9774   18.2694 N   0  0  0  0  0  0  0  0  0  0  0  0
   10.4788   -3.0457   21.8593 C   0  0  0  0  0  0  0  0  0  0  0  0
    8.8693   -5.8099   18.4657 N   0  0  0  0  0  0  0  0  0  0  0  0
    8.9892   -0.7926   25.4573 C   0  0  0  0  0  0  0  0  0  0  0  0
   10.5677   -3.4462   20.5323 C   0  0  0  0  0  0  0  0  0  0  0  0
  1  8  1  0
  1 12  4  0
  1 14  4  0
  2  3  4  0
  2 18  4  0
  3 20  4  0
  3 22  4  0
  4 11  4  0
  4 21  4  0
  5  9  4  0
  5 16  4  0
  6 15  4  0
  6 16  4  0
  7 22  4  0
  7 26  4  0
  8 10  4  0
  8 25  4  0
  9 15  4  0
  9 17  1  0
 10 21  4  0
 11 25  4  0
 12 23  4  0
 13 20  4  0
 13 26  4  0
 14 19  4  0
 17 18  4  0
 17 24  4  0
 19 23  4  0
 20 24  4  0
 23 26  1  0
M  END
$$$$

 Created by Python create_sdf_string function

 26 30  0  0  0  0  0  0  0  0999 V2000
   10.0084   -1.8019   23.4945 C   0  0  0  0  0  0  0  0  0  0  0  0
   10.0005   -4.2520   16.5631 C   0  0  0  0  0  0  0  0  0  0  0  0
   10.2759   -4.0036   17.8845 C   0  0  0  0  0  0  0  0  0  0  0  0
    8.5652    1.5478   25.3778 N   0  0  0  0  0  0  0  0  0  0  0  0
    6.8048   -7.5457   17.8752 C   0  0  0  0  0  0  0  0  0  0  0  0
    6.1721   -8.2186   15.9886 N   0  0  0  0  0  0  0  0  0  0  0  0
   11.1764   -2.6600   19.5604 C   0  0  0  0  0  0  0  0  0  0  0  0
    9.5491   -0.6380   24.1912 C   0  0  0  0  0  0  0  0  0  0  0  0
    7.5337   -6.9256   16.9519 C   0  0  0  0  0  0  0  0  0  0  0  0
    9.6782    0.5671   23.5143 C   0  0  0  0  0  0  0  0  0  0  0  0
    8.4532    0.3482   26.0821 C   0  0  0  0  0  0  0  0  0  0  0  0
   10.4239   -1.7677   22.2230 N   0  0  0  0  0  0  0  0  0  0  0  0
    9.9468   -4.5953   20.1709 C   0  0  0  0  0  0  0  0  0  0  0  0
   10.0366   -3.0590   23.9864 N   0  0  0  0  0  0  0  0  0  0  0  0
    7.1191   -7.3636   15.7739 C   0  0  0  0  0  0  0  0  0  0  0  0
    5.9612   -8.3203   17.2732 N   0  0  0  0  0  0  0  0  0  0  0  0
    8.5296   -5.9814   17.1841 C   0  0  0  0  0  0  0  0  0  0  0  0
    9.1527   -5.2118   16.2116 C   0  0  0  0  0  0  0  0  0  0  0  0
   10.3364   -3.8368   22.9255 O   0  0  0  0  0  0  0  0  0  0  0  0
    9.6947   -4.8407   18.8534 C   0  0  0  0  0  0  0  0  0  0  0  0
    9.1596    1.7042   24.1381 C   0  0  0  0  0  0  0  0  0  0  0  0
   11.0456   -2.9774   18.2694 N   0  0  0  0  0  0  0  0  0  0  0  0
   10.4788   -3.0457   21.8593 C   0  0  0  0  0  0  0  0  0  0  0  0
    8.8693   -5.8099   18.4657 N   0  0  0  0  0  0  0  0  0  0  0  0
    8.9892   -0.7926   25.4573 C   0  0  0  0  0  0  0  0  0  0  0  0
   10.5677   -3.4462   20.5323 C   0  0  0  0  0  0  0  0  0  0  0  0
  1  8  1  0
  1 12  4  0
  1 14  4  0
  2  3  4  0
  2 18  4  0
  3 20  4  0
  3 22  4  0
  4 11  4  0
  4 21  4  0
  5  9  4  0
  5 16  4  0
  6 15  4  0
  6 16  4  0
  7 22  4  0
  7 26  4  0
  8 10  4  0
  8 25  4  0
  9 15  4  0
  9 17  1  0
 10 21  4  0
 11 25  4  0
 12 23  4  0
 13 20  4  0
 13 26  4  0
 14 19  4  0
 17 18  4  0
 17 24  4  0
 19 23  4  0
 20 24  4  0
 23 26  1  0
M  END
$$$$

 Created by Python create_sdf_string function

 26 30  0  0  0  0  0  0  0  0999 V2000
   10.0084   -1.8019   23.4945 C   0  0  0  0  0  0  0  0  0  0  0  0
   10.0005   -4.2520   16.5631 C   0  0  0  0  0  0  0  0  0  0  0  0
   10.2759   -4.0036   17.8845 C   0  0  0  0  0  0  0  0  0  0  0  0
    8.5652    1.5478   25.3778 N   0  0  0  0  0  0  0  0  0  0  0  0
    6.8048   -7.5457   17.8752 C   0  0  0  0  0  0  0  0  0  0  0  0
    6.1721   -8.2186   15.9886 N   0  0  0  0  0  0  0  0  0  0  0  0
   11.1764   -2.6600   19.5604 C   0  0  0  0  0  0  0  0  0  0  0  0
    9.5491   -0.6380   24.1912 C   0  0  0  0  0  0  0  0  0  0  0  0
    7.5337   -6.9256   16.9519 C   0  0  0  0  0  0  0  0  0  0  0  0
    9.6782    0.5671   23.5143 C   0  0  0  0  0  0  0  0  0  0  0  0
    8.4532    0.3482   26.0821 C   0  0  0  0  0  0  0  0  0  0  0  0
   10.4239   -1.7677   22.2230 N   0  0  0  0  0  0  0  0  0  0  0  0
    9.9468   -4.5953   20.1709 C   0  0  0  0  0  0  0  0  0  0  0  0
   10.0366   -3.0590   23.9864 N   0  0  0  0  0  0  0  0  0  0  0  0
    7.1191   -7.3636   15.7739 C   0  0  0  0  0  0  0  0  0  0  0  0
    5.9612   -8.3203   17.2732 N   0  0  0  0  0  0  0  0  0  0  0  0
    8.5296   -5.9814   17.1841 C   0  0  0  0  0  0  0  0  0  0  0  0
    9.1527   -5.2118   16.2116 C   0  0  0  0  0  0  0  0  0  0  0  0
   10.3364   -3.8368   22.9255 O   0  0  0  0  0  0  0  0  0  0  0  0
    9.6947   -4.8407   18.8534 C   0  0  0  0  0  0  0  0  0  0  0  0
    9.1596    1.7042   24.1381 C   0  0  0  0  0  0  0  0  0  0  0  0
   11.0456   -2.9774   18.2694 N   0  0  0  0  0  0  0  0  0  0  0  0
   10.4788   -3.0457   21.8593 C   0  0  0  0  0  0  0  0  0  0  0  0
    8.8693   -5.8099   18.4657 N   0  0  0  0  0  0  0  0  0  0  0  0
    8.9892   -0.7926   25.4573 C   0  0  0  0  0  0  0  0  0  0  0  0
   10.5677   -3.4462   20.5323 C   0  0  0  0  0  0  0  0  0  0  0  0
  1  8  1  0
  1 12  4  0
  1 14  4  0
  2  3  4  0
  2 18  4  0
  3 20  4  0
  3 22  4  0
  4 11  4  0
  4 21  4  0
  5  9  4  0
  5 16  4  0
  6 15  4  0
  6 16  4  0
  7 22  4  0
  7 26  4  0
  8 10  4  0
  8 25  4  0
  9 15  4  0
  9 17  1  0
 10 21  4  0
 11 25  4  0
 12 23  4  0
 13 20  4  0
 13 26  4  0
 14 19  4  0
 17 18  4  0
 17 24  4  0
 19 23  4  0
 20 24  4  0
 23 26  1  0
M  END
$$$$

 Created by Python create_sdf_string function

 26 30  0  0  0  0  0  0  0  0999 V2000
   10.0084   -1.8019   23.4945 C   0  0  0  0  0  0  0  0  0  0  0  0
   10.0005   -4.2520   16.5631 C   0  0  0  0  0  0  0  0  0  0  0  0
   10.2759   -4.0036   17.8845 C   0  0  0  0  0  0  0  0  0  0  0  0
    8.5652    1.5478   25.3778 N   0  0  0  0  0  0  0  0  0  0  0  0
    6.8048   -7.5457   17.8752 C   0  0  0  0  0  0  0  0  0  0  0  0
    6.1721   -8.2186   15.9886 N   0  0  0  0  0  0  0  0  0  0  0  0
   11.1764   -2.6600   19.5604 C   0  0  0  0  0  0  0  0  0  0  0  0
    9.5491   -0.6380   24.1912 C   0  0  0  0  0  0  0  0  0  0  0  0
    7.5337   -6.9256   16.9519 C   0  0  0  0  0  0  0  0  0  0  0  0
    9.6782    0.5671   23.5143 C   0  0  0  0  0  0  0  0  0  0  0  0
    8.4532    0.3482   26.0821 C   0  0  0  0  0  0  0  0  0  0  0  0
   10.4239   -1.7677   22.2230 N   0  0  0  0  0  0  0  0  0  0  0  0
    9.9468   -4.5953   20.1709 C   0  0  0  0  0  0  0  0  0  0  0  0
   10.0366   -3.0590   23.9864 N   0  0  0  0  0  0  0  0  0  0  0  0
    7.1191   -7.3636   15.7739 C   0  0  0  0  0  0  0  0  0  0  0  0
    5.9612   -8.3203   17.2732 N   0  0  0  0  0  0  0  0  0  0  0  0
    8.5296   -5.9814   17.1841 C   0  0  0  0  0  0  0  0  0  0  0  0
    9.1527   -5.2118   16.2116 C   0  0  0  0  0  0  0  0  0  0  0  0
   10.3364   -3.8368   22.9255 O   0  0  0  0  0  0  0  0  0  0  0  0
    9.6947   -4.8407   18.8534 C   0  0  0  0  0  0  0  0  0  0  0  0
    9.1596    1.7042   24.1381 C   0  0  0  0  0  0  0  0  0  0  0  0
   11.0456   -2.9774   18.2694 N   0  0  0  0  0  0  0  0  0  0  0  0
   10.4788   -3.0457   21.8593 C   0  0  0  0  0  0  0  0  0  0  0  0
    8.8693   -5.8099   18.4657 N   0  0  0  0  0  0  0  0  0  0  0  0
    8.9892   -0.7926   25.4573 C   0  0  0  0  0  0  0  0  0  0  0  0
   10.5677   -3.4462   20.5323 C   0  0  0  0  0  0  0  0  0  0  0  0
  1  8  1  0
  1 12  4  0
  1 14  4  0
  2  3  4  0
  2 18  4  0
  3 20  4  0
  3 22  4  0
  4 11  4  0
  4 21  4  0
  5  9  4  0
  5 16  4  0
  6 15  4  0
  6 16  4  0
  7 22  4  0
  7 26  4  0
  8 10  4  0
  8 25  4  0
  9 15  4  0
  9 17  1  0
 10 21  4  0
 11 25  4  0
 12 23  4  0
 13 20  4  0
 13 26  4  0
 14 19  4  0
 17 18  4  0
 17 24  4  0
 19 23  4  0
 20 24  4  0
 23 26  1  0
M  END
$$$$

 Created by Python create_sdf_string function

 26 30  0  0  0  0  0  0  0  0999 V2000
   10.0084   -1.8019   23.4945 C   0  0  0  0  0  0  0  0  0  0  0  0
   10.0005   -4.2520   16.5631 C   0  0  0  0  0  0  0  0  0  0  0  0
   10.2759   -4.0036   17.8845 C   0  0  0  0  0  0  0  0  0  0  0  0
    8.5652    1.5478   25.3778 N   0  0  0  0  0  0  0  0  0  0  0  0
    6.8048   -7.5457   17.8752 C   0  0  0  0  0  0  0  0  0  0  0  0
    6.1721   -8.2186   15.9886 N   0  0  0  0  0  0  0  0  0  0  0  0
   11.1764   -2.6600   19.5604 C   0  0  0  0  0  0  0  0  0  0  0  0
    9.5491   -0.6380   24.1912 C   0  0  0  0  0  0  0  0  0  0  0  0
    7.5337   -6.9256   16.9519 C   0  0  0  0  0  0  0  0  0  0  0  0
    9.6782    0.5671   23.5143 C   0  0  0  0  0  0  0  0  0  0  0  0
    8.4532    0.3482   26.0821 C   0  0  0  0  0  0  0  0  0  0  0  0
   10.4239   -1.7677   22.2230 N   0  0  0  0  0  0  0  0  0  0  0  0
    9.9468   -4.5953   20.1709 C   0  0  0  0  0  0  0  0  0  0  0  0
   10.0366   -3.0590   23.9864 N   0  0  0  0  0  0  0  0  0  0  0  0
    7.1191   -7.3636   15.7739 C   0  0  0  0  0  0  0  0  0  0  0  0
    5.9612   -8.3203   17.2732 N   0  0  0  0  0  0  0  0  0  0  0  0
    8.5296   -5.9814   17.1841 C   0  0  0  0  0  0  0  0  0  0  0  0
    9.1527   -5.2118   16.2116 C   0  0  0  0  0  0  0  0  0  0  0  0
   10.3364   -3.8368   22.9255 O   0  0  0  0  0  0  0  0  0  0  0  0
    9.6947   -4.8407   18.8534 C   0  0  0  0  0  0  0  0  0  0  0  0
    9.1596    1.7042   24.1381 C   0  0  0  0  0  0  0  0  0  0  0  0
   11.0456   -2.9774   18.2694 N   0  0  0  0  0  0  0  0  0  0  0  0
   10.4788   -3.0457   21.8593 C   0  0  0  0  0  0  0  0  0  0  0  0
    8.8693   -5.8099   18.4657 N   0  0  0  0  0  0  0  0  0  0  0  0
    8.9892   -0.7926   25.4573 C   0  0  0  0  0  0  0  0  0  0  0  0
   10.5677   -3.4462   20.5323 C   0  0  0  0  0  0  0  0  0  0  0  0
  1  8  1  0
  1 12  4  0
  1 14  4  0
  2  3  4  0
  2 18  4  0
  3 20  4  0
  3 22  4  0
  4 11  4  0
  4 21  4  0
  5  9  4  0
  5 16  4  0
  6 15  4  0
  6 16  4  0
  7 22  4  0
  7 26  4  0
  8 10  4  0
  8 25  4  0
  9 15  4  0
  9 17  1  0
 10 21  4  0
 11 25  4  0
 12 23  4  0
 13 20  4  0
 13 26  4  0
 14 19  4  0
 17 18  4  0
 17 24  4  0
 19 23  4  0
 20 24  4  0
 23 26  1  0
M  END
$$$$

 Created by Python create_sdf_string function

 26 30  0  0  0  0  0  0  0  0999 V2000
   10.0084   -1.8019   23.4945 C   0  0  0  0  0  0  0  0  0  0  0  0
   10.0005   -4.2520   16.5631 C   0  0  0  0  0  0  0  0  0  0  0  0
   10.2759   -4.0036   17.8845 C   0  0  0  0  0  0  0  0  0  0  0  0
    8.5652    1.5478   25.3778 N   0  0  0  0  0  0  0  0  0  0  0  0
    6.8048   -7.5457   17.8752 C   0  0  0  0  0  0  0  0  0  0  0  0
    6.1721   -8.2186   15.9886 N   0  0  0  0  0  0  0  0  0  0  0  0
   11.1764   -2.6600   19.5604 C   0  0  0  0  0  0  0  0  0  0  0  0
    9.5491   -0.6380   24.1912 C   0  0  0  0  0  0  0  0  0  0  0  0
    7.5337   -6.9256   16.9519 C   0  0  0  0  0  0  0  0  0  0  0  0
    9.6782    0.5671   23.5143 C   0  0  0  0  0  0  0  0  0  0  0  0
    8.4532    0.3482   26.0821 C   0  0  0  0  0  0  0  0  0  0  0  0
   10.4239   -1.7677   22.2230 N   0  0  0  0  0  0  0  0  0  0  0  0
    9.9468   -4.5953   20.1709 C   0  0  0  0  0  0  0  0  0  0  0  0
   10.0366   -3.0590   23.9864 N   0  0  0  0  0  0  0  0  0  0  0  0
    7.1191   -7.3636   15.7739 C   0  0  0  0  0  0  0  0  0  0  0  0
    5.9612   -8.3203   17.2732 N   0  0  0  0  0  0  0  0  0  0  0  0
    8.5296   -5.9814   17.1841 C   0  0  0  0  0  0  0  0  0  0  0  0
    9.1527   -5.2118   16.2116 C   0  0  0  0  0  0  0  0  0  0  0  0
   10.3364   -3.8368   22.9255 O   0  0  0  0  0  0  0  0  0  0  0  0
    9.6947   -4.8407   18.8534 C   0  0  0  0  0  0  0  0  0  0  0  0
    9.1596    1.7042   24.1381 C   0  0  0  0  0  0  0  0  0  0  0  0
   11.0456   -2.9774   18.2694 N   0  0  0  0  0  0  0  0  0  0  0  0
   10.4788   -3.0457   21.8593 C   0  0  0  0  0  0  0  0  0  0  0  0
    8.8693   -5.8099   18.4657 N   0  0  0  0  0  0  0  0  0  0  0  0
    8.9892   -0.7926   25.4573 C   0  0  0  0  0  0  0  0  0  0  0  0
   10.5677   -3.4462   20.5323 C   0  0  0  0  0  0  0  0  0  0  0  0
  1  8  1  0
  1 12  4  0
  1 14  4  0
  2  3  4  0
  2 18  4  0
  3 20  4  0
  3 22  4  0
  4 11  4  0
  4 21  4  0
  5  9  4  0
  5 16  4  0
  6 15  4  0
  6 16  4  0
  7 22  4  0
  7 26  4  0
  8 10  4  0
  8 25  4  0
  9 15  4  0
  9 17  1  0
 10 21  4  0
 11 25  4  0
 12 23  4  0
 13 20  4  0
 13 26  4  0
 14 19  4  0
 17 18  4  0
 17 24  4  0
 19 23  4  0
 20 24  4  0
 23 26  1  0
M  END
$$$$

 Created by Python create_sdf_string function

 26 30  0  0  0  0  0  0  0  0999 V2000
   10.0084   -1.8019   23.4945 C   0  0  0  0  0  0  0  0  0  0  0  0
   10.0005   -4.2520   16.5631 C   0  0  0  0  0  0  0  0  0  0  0  0
   10.2759   -4.0036   17.8845 C   0  0  0  0  0  0  0  0  0  0  0  0
    8.5652    1.5478   25.3778 N   0  0  0  0  0  0  0  0  0  0  0  0
    6.8048   -7.5457   17.8752 C   0  0  0  0  0  0  0  0  0  0  0  0
    6.1721   -8.2186   15.9886 N   0  0  0  0  0  0  0  0  0  0  0  0
   11.1764   -2.6600   19.5604 C   0  0  0  0  0  0  0  0  0  0  0  0
    9.5491   -0.6380   24.1912 C   0  0  0  0  0  0  0  0  0  0  0  0
    7.5337   -6.9256   16.9519 C   0  0  0  0  0  0  0  0  0  0  0  0
    9.6782    0.5671   23.5143 C   0  0  0  0  0  0  0  0  0  0  0  0
    8.4532    0.3482   26.0821 C   0  0  0  0  0  0  0  0  0  0  0  0
   10.4239   -1.7677   22.2230 N   0  0  0  0  0  0  0  0  0  0  0  0
    9.9468   -4.5953   20.1709 C   0  0  0  0  0  0  0  0  0  0  0  0
   10.0366   -3.0590   23.9864 N   0  0  0  0  0  0  0  0  0  0  0  0
    7.1191   -7.3636   15.7739 C   0  0  0  0  0  0  0  0  0  0  0  0
    5.9612   -8.3203   17.2732 N   0  0  0  0  0  0  0  0  0  0  0  0
    8.5296   -5.9814   17.1841 C   0  0  0  0  0  0  0  0  0  0  0  0
    9.1527   -5.2118   16.2116 C   0  0  0  0  0  0  0  0  0  0  0  0
   10.3364   -3.8368   22.9255 O   0  0  0  0  0  0  0  0  0  0  0  0
    9.6947   -4.8407   18.8534 C   0  0  0  0  0  0  0  0  0  0  0  0
    9.1596    1.7042   24.1381 C   0  0  0  0  0  0  0  0  0  0  0  0
   11.0456   -2.9774   18.2694 N   0  0  0  0  0  0  0  0  0  0  0  0
   10.4788   -3.0457   21.8593 C   0  0  0  0  0  0  0  0  0  0  0  0
    8.8693   -5.8099   18.4657 N   0  0  0  0  0  0  0  0  0  0  0  0
    8.9892   -0.7926   25.4573 C   0  0  0  0  0  0  0  0  0  0  0  0
   10.5677   -3.4462   20.5323 C   0  0  0  0  0  0  0  0  0  0  0  0
  1  8  1  0
  1 12  4  0
  1 14  4  0
  2  3  4  0
  2 18  4  0
  3 20  4  0
  3 22  4  0
  4 11  4  0
  4 21  4  0
  5  9  4  0
  5 16  4  0
  6 15  4  0
  6 16  4  0
  7 22  4  0
  7 26  4  0
  8 10  4  0
  8 25  4  0
  9 15  4  0
  9 17  1  0
 10 21  4  0
 11 25  4  0
 12 23  4  0
 13 20  4  0
 13 26  4  0
 14 19  4  0
 17 18  4  0
 17 24  4  0
 19 23  4  0
 20 24  4  0
 23 26  1  0
M  END
$$$$

 Created by Python create_sdf_string function

 26 30  0  0  0  0  0  0  0  0999 V2000
   10.0084   -1.8019   23.4945 C   0  0  0  0  0  0  0  0  0  0  0  0
   10.0005   -4.2520   16.5631 C   0  0  0  0  0  0  0  0  0  0  0  0
   10.2759   -4.0036   17.8845 C   0  0  0  0  0  0  0  0  0  0  0  0
    8.5652    1.5478   25.3778 N   0  0  0  0  0  0  0  0  0  0  0  0
    6.8048   -7.5457   17.8752 C   0  0  0  0  0  0  0  0  0  0  0  0
    6.1721   -8.2186   15.9886 N   0  0  0  0  0  0  0  0  0  0  0  0
   11.1764   -2.6600   19.5604 C   0  0  0  0  0  0  0  0  0  0  0  0
    9.5491   -0.6380   24.1912 C   0  0  0  0  0  0  0  0  0  0  0  0
    7.5337   -6.9256   16.9519 C   0  0  0  0  0  0  0  0  0  0  0  0
    9.6782    0.5671   23.5143 C   0  0  0  0  0  0  0  0  0  0  0  0
    8.4532    0.3482   26.0821 C   0  0  0  0  0  0  0  0  0  0  0  0
   10.4239   -1.7677   22.2230 N   0  0  0  0  0  0  0  0  0  0  0  0
    9.9468   -4.5953   20.1709 C   0  0  0  0  0  0  0  0  0  0  0  0
   10.0366   -3.0590   23.9864 N   0  0  0  0  0  0  0  0  0  0  0  0
    7.1191   -7.3636   15.7739 C   0  0  0  0  0  0  0  0  0  0  0  0
    5.9612   -8.3203   17.2732 N   0  0  0  0  0  0  0  0  0  0  0  0
    8.5296   -5.9814   17.1841 C   0  0  0  0  0  0  0  0  0  0  0  0
    9.1527   -5.2118   16.2116 C   0  0  0  0  0  0  0  0  0  0  0  0
   10.3364   -3.8368   22.9255 O   0  0  0  0  0  0  0  0  0  0  0  0
    9.6947   -4.8407   18.8534 C   0  0  0  0  0  0  0  0  0  0  0  0
    9.1596    1.7042   24.1381 C   0  0  0  0  0  0  0  0  0  0  0  0
   11.0456   -2.9774   18.2694 N   0  0  0  0  0  0  0  0  0  0  0  0
   10.4788   -3.0457   21.8593 C   0  0  0  0  0  0  0  0  0  0  0  0
    8.8693   -5.8099   18.4657 N   0  0  0  0  0  0  0  0  0  0  0  0
    8.9892   -0.7926   25.4573 C   0  0  0  0  0  0  0  0  0  0  0  0
   10.5677   -3.4462   20.5323 C   0  0  0  0  0  0  0  0  0  0  0  0
  1  8  1  0
  1 12  4  0
  1 14  4  0
  2  3  4  0
  2 18  4  0
  3 20  4  0
  3 22  4  0
  4 11  4  0
  4 21  4  0
  5  9  4  0
  5 16  4  0
  6 15  4  0
  6 16  4  0
  7 22  4  0
  7 26  4  0
  8 10  4  0
  8 25  4  0
  9 15  4  0
  9 17  1  0
 10 21  4  0
 11 25  4  0
 12 23  4  0
 13 20  4  0
 13 26  4  0
 14 19  4  0
 17 18  4  0
 17 24  4  0
 19 23  4  0
 20 24  4  0
 23 26  1  0
M  END
$$$$

 Created by Python create_sdf_string function

 26 30  0  0  0  0  0  0  0  0999 V2000
   10.0084   -1.8019   23.4945 C   0  0  0  0  0  0  0  0  0  0  0  0
   10.0005   -4.2520   16.5631 C   0  0  0  0  0  0  0  0  0  0  0  0
   10.2759   -4.0036   17.8845 C   0  0  0  0  0  0  0  0  0  0  0  0
    8.5652    1.5478   25.3778 N   0  0  0  0  0  0  0  0  0  0  0  0
    6.8048   -7.5457   17.8752 C   0  0  0  0  0  0  0  0  0  0  0  0
    6.1721   -8.2186   15.9886 N   0  0  0  0  0  0  0  0  0  0  0  0
   11.1764   -2.6600   19.5604 C   0  0  0  0  0  0  0  0  0  0  0  0
    9.5491   -0.6380   24.1912 C   0  0  0  0  0  0  0  0  0  0  0  0
    7.5337   -6.9256   16.9519 C   0  0  0  0  0  0  0  0  0  0  0  0
    9.6782    0.5671   23.5143 C   0  0  0  0  0  0  0  0  0  0  0  0
    8.4532    0.3482   26.0821 C   0  0  0  0  0  0  0  0  0  0  0  0
   10.4239   -1.7677   22.2230 N   0  0  0  0  0  0  0  0  0  0  0  0
    9.9468   -4.5953   20.1709 C   0  0  0  0  0  0  0  0  0  0  0  0
   10.0366   -3.0590   23.9864 N   0  0  0  0  0  0  0  0  0  0  0  0
    7.1191   -7.3636   15.7739 C   0  0  0  0  0  0  0  0  0  0  0  0
    5.9612   -8.3203   17.2732 N   0  0  0  0  0  0  0  0  0  0  0  0
    8.5296   -5.9814   17.1841 C   0  0  0  0  0  0  0  0  0  0  0  0
    9.1527   -5.2118   16.2116 C   0  0  0  0  0  0  0  0  0  0  0  0
   10.3364   -3.8368   22.9255 O   0  0  0  0  0  0  0  0  0  0  0  0
    9.6947   -4.8407   18.8534 C   0  0  0  0  0  0  0  0  0  0  0  0
    9.1596    1.7042   24.1381 C   0  0  0  0  0  0  0  0  0  0  0  0
   11.0456   -2.9774   18.2694 N   0  0  0  0  0  0  0  0  0  0  0  0
   10.4788   -3.0457   21.8593 C   0  0  0  0  0  0  0  0  0  0  0  0
    8.8693   -5.8099   18.4657 N   0  0  0  0  0  0  0  0  0  0  0  0
    8.9892   -0.7926   25.4573 C   0  0  0  0  0  0  0  0  0  0  0  0
   10.5677   -3.4462   20.5323 C   0  0  0  0  0  0  0  0  0  0  0  0
  1  8  1  0
  1 12  4  0
  1 14  4  0
  2  3  4  0
  2 18  4  0
  3 20  4  0
  3 22  4  0
  4 11  4  0
  4 21  4  0
  5  9  4  0
  5 16  4  0
  6 15  4  0
  6 16  4  0
  7 22  4  0
  7 26  4  0
  8 10  4  0
  8 25  4  0
  9 15  4  0
  9 17  1  0
 10 21  4  0
 11 25  4  0
 12 23  4  0
 13 20  4  0
 13 26  4  0
 14 19  4  0
 17 18  4  0
 17 24  4  0
 19 23  4  0
 20 24  4  0
 23 26  1  0
M  END
$$$$

 Created by Python create_sdf_string function

 26 30  0  0  0  0  0  0  0  0999 V2000
   10.0084   -1.8019   23.4945 C   0  0  0  0  0  0  0  0  0  0  0  0
   10.0005   -4.2520   16.5631 C   0  0  0  0  0  0  0  0  0  0  0  0
   10.2759   -4.0036   17.8845 C   0  0  0  0  0  0  0  0  0  0  0  0
    8.5652    1.5478   25.3778 N   0  0  0  0  0  0  0  0  0  0  0  0
    6.8048   -7.5457   17.8752 C   0  0  0  0  0  0  0  0  0  0  0  0
    6.1721   -8.2186   15.9886 N   0  0  0  0  0  0  0  0  0  0  0  0
   11.1764   -2.6600   19.5604 C   0  0  0  0  0  0  0  0  0  0  0  0
    9.5491   -0.6380   24.1912 C   0  0  0  0  0  0  0  0  0  0  0  0
    7.5337   -6.9256   16.9519 C   0  0  0  0  0  0  0  0  0  0  0  0
    9.6782    0.5671   23.5143 C   0  0  0  0  0  0  0  0  0  0  0  0
    8.4532    0.3482   26.0821 C   0  0  0  0  0  0  0  0  0  0  0  0
   10.4239   -1.7677   22.2230 N   0  0  0  0  0  0  0  0  0  0  0  0
    9.9468   -4.5953   20.1709 C   0  0  0  0  0  0  0  0  0  0  0  0
   10.0366   -3.0590   23.9864 N   0  0  0  0  0  0  0  0  0  0  0  0
    7.1191   -7.3636   15.7739 C   0  0  0  0  0  0  0  0  0  0  0  0
    5.9612   -8.3203   17.2732 N   0  0  0  0  0  0  0  0  0  0  0  0
    8.5296   -5.9814   17.1841 C   0  0  0  0  0  0  0  0  0  0  0  0
    9.1527   -5.2118   16.2116 C   0  0  0  0  0  0  0  0  0  0  0  0
   10.3364   -3.8368   22.9255 O   0  0  0  0  0  0  0  0  0  0  0  0
    9.6947   -4.8407   18.8534 C   0  0  0  0  0  0  0  0  0  0  0  0
    9.1596    1.7042   24.1381 C   0  0  0  0  0  0  0  0  0  0  0  0
   11.0456   -2.9774   18.2694 N   0  0  0  0  0  0  0  0  0  0  0  0
   10.4788   -3.0457   21.8593 C   0  0  0  0  0  0  0  0  0  0  0  0
    8.8693   -5.8099   18.4657 N   0  0  0  0  0  0  0  0  0  0  0  0
    8.9892   -0.7926   25.4573 C   0  0  0  0  0  0  0  0  0  0  0  0
   10.5677   -3.4462   20.5323 C   0  0  0  0  0  0  0  0  0  0  0  0
  1  8  1  0
  1 12  4  0
  1 14  4  0
  2  3  4  0
  2 18  4  0
  3 20  4  0
  3 22  4  0
  4 11  4  0
  4 21  4  0
  5  9  4  0
  5 16  4  0
  6 15  4  0
  6 16  4  0
  7 22  4  0
  7 26  4  0
  8 10  4  0
  8 25  4  0
  9 15  4  0
  9 17  1  0
 10 21  4  0
 11 25  4  0
 12 23  4  0
 13 20  4  0
 13 26  4  0
 14 19  4  0
 17 18  4  0
 17 24  4  0
 19 23  4  0
 20 24  4  0
 23 26  1  0
M  END
$$$$

 Created by Python create_sdf_string function

 26 30  0  0  0  0  0  0  0  0999 V2000
   10.0084   -1.8019   23.4945 C   0  0  0  0  0  0  0  0  0  0  0  0
   10.0005   -4.2520   16.5631 C   0  0  0  0  0  0  0  0  0  0  0  0
   10.2759   -4.0036   17.8845 C   0  0  0  0  0  0  0  0  0  0  0  0
    8.5652    1.5478   25.3778 N   0  0  0  0  0  0  0  0  0  0  0  0
    6.8048   -7.5457   17.8752 C   0  0  0  0  0  0  0  0  0  0  0  0
    6.1721   -8.2186   15.9886 N   0  0  0  0  0  0  0  0  0  0  0  0
   11.1764   -2.6600   19.5604 C   0  0  0  0  0  0  0  0  0  0  0  0
    9.5491   -0.6380   24.1912 C   0  0  0  0  0  0  0  0  0  0  0  0
    7.5337   -6.9256   16.9519 C   0  0  0  0  0  0  0  0  0  0  0  0
    9.6782    0.5671   23.5143 C   0  0  0  0  0  0  0  0  0  0  0  0
    8.4532    0.3482   26.0821 C   0  0  0  0  0  0  0  0  0  0  0  0
   10.4239   -1.7677   22.2230 N   0  0  0  0  0  0  0  0  0  0  0  0
    9.9468   -4.5953   20.1709 C   0  0  0  0  0  0  0  0  0  0  0  0
   10.0366   -3.0590   23.9864 N   0  0  0  0  0  0  0  0  0  0  0  0
    7.1191   -7.3636   15.7739 C   0  0  0  0  0  0  0  0  0  0  0  0
    5.9612   -8.3203   17.2732 N   0  0  0  0  0  0  0  0  0  0  0  0
    8.5296   -5.9814   17.1841 C   0  0  0  0  0  0  0  0  0  0  0  0
    9.1527   -5.2118   16.2116 C   0  0  0  0  0  0  0  0  0  0  0  0
   10.3364   -3.8368   22.9255 O   0  0  0  0  0  0  0  0  0  0  0  0
    9.6947   -4.8407   18.8534 C   0  0  0  0  0  0  0  0  0  0  0  0
    9.1596    1.7042   24.1381 C   0  0  0  0  0  0  0  0  0  0  0  0
   11.0456   -2.9774   18.2694 N   0  0  0  0  0  0  0  0  0  0  0  0
   10.4788   -3.0457   21.8593 C   0  0  0  0  0  0  0  0  0  0  0  0
    8.8693   -5.8099   18.4657 N   0  0  0  0  0  0  0  0  0  0  0  0
    8.9892   -0.7926   25.4573 C   0  0  0  0  0  0  0  0  0  0  0  0
   10.5677   -3.4462   20.5323 C   0  0  0  0  0  0  0  0  0  0  0  0
  1  8  1  0
  1 12  4  0
  1 14  4  0
  2  3  4  0
  2 18  4  0
  3 20  4  0
  3 22  4  0
  4 11  4  0
  4 21  4  0
  5  9  4  0
  5 16  4  0
  6 15  4  0
  6 16  4  0
  7 22  4  0
  7 26  4  0
  8 10  4  0
  8 25  4  0
  9 15  4  0
  9 17  1  0
 10 21  4  0
 11 25  4  0
 12 23  4  0
 13 20  4  0
 13 26  4  0
 14 19  4  0
 17 18  4  0
 17 24  4  0
 19 23  4  0
 20 24  4  0
 23 26  1  0
M  END
$$$$

 Created by Python create_sdf_string function

 26 30  0  0  0  0  0  0  0  0999 V2000
   10.0084   -1.8019   23.4945 C   0  0  0  0  0  0  0  0  0  0  0  0
   10.0005   -4.2520   16.5631 C   0  0  0  0  0  0  0  0  0  0  0  0
   10.2759   -4.0036   17.8845 C   0  0  0  0  0  0  0  0  0  0  0  0
    8.5652    1.5478   25.3778 N   0  0  0  0  0  0  0  0  0  0  0  0
    6.8048   -7.5457   17.8752 C   0  0  0  0  0  0  0  0  0  0  0  0
    6.1721   -8.2186   15.9886 N   0  0  0  0  0  0  0  0  0  0  0  0
   11.1764   -2.6600   19.5604 C   0  0  0  0  0  0  0  0  0  0  0  0
    9.5491   -0.6380   24.1912 C   0  0  0  0  0  0  0  0  0  0  0  0
    7.5337   -6.9256   16.9519 C   0  0  0  0  0  0  0  0  0  0  0  0
    9.6782    0.5671   23.5143 C   0  0  0  0  0  0  0  0  0  0  0  0
    8.4532    0.3482   26.0821 C   0  0  0  0  0  0  0  0  0  0  0  0
   10.4239   -1.7677   22.2230 N   0  0  0  0  0  0  0  0  0  0  0  0
    9.9468   -4.5953   20.1709 C   0  0  0  0  0  0  0  0  0  0  0  0
   10.0366   -3.0590   23.9864 N   0  0  0  0  0  0  0  0  0  0  0  0
    7.1191   -7.3636   15.7739 C   0  0  0  0  0  0  0  0  0  0  0  0
    5.9612   -8.3203   17.2732 N   0  0  0  0  0  0  0  0  0  0  0  0
    8.5296   -5.9814   17.1841 C   0  0  0  0  0  0  0  0  0  0  0  0
    9.1527   -5.2118   16.2116 C   0  0  0  0  0  0  0  0  0  0  0  0
   10.3364   -3.8368   22.9255 O   0  0  0  0  0  0  0  0  0  0  0  0
    9.6947   -4.8407   18.8534 C   0  0  0  0  0  0  0  0  0  0  0  0
    9.1596    1.7042   24.1381 C   0  0  0  0  0  0  0  0  0  0  0  0
   11.0456   -2.9774   18.2694 N   0  0  0  0  0  0  0  0  0  0  0  0
   10.4788   -3.0457   21.8593 C   0  0  0  0  0  0  0  0  0  0  0  0
    8.8693   -5.8099   18.4657 N   0  0  0  0  0  0  0  0  0  0  0  0
    8.9892   -0.7926   25.4573 C   0  0  0  0  0  0  0  0  0  0  0  0
   10.5677   -3.4462   20.5323 C   0  0  0  0  0  0  0  0  0  0  0  0
  1  8  1  0
  1 12  4  0
  1 14  4  0
  2  3  4  0
  2 18  4  0
  3 20  4  0
  3 22  4  0
  4 11  4  0
  4 21  4  0
  5  9  4  0
  5 16  4  0
  6 15  4  0
  6 16  4  0
  7 22  4  0
  7 26  4  0
  8 10  4  0
  8 25  4  0
  9 15  4  0
  9 17  1  0
 10 21  4  0
 11 25  4  0
 12 23  4  0
 13 20  4  0
 13 26  4  0
 14 19  4  0
 17 18  4  0
 17 24  4  0
 19 23  4  0
 20 24  4  0
 23 26  1  0
M  END
$$$$

 Created by Python create_sdf_string function

 26 30  0  0  0  0  0  0  0  0999 V2000
   10.0084   -1.8019   23.4945 C   0  0  0  0  0  0  0  0  0  0  0  0
   10.0005   -4.2520   16.5631 C   0  0  0  0  0  0  0  0  0  0  0  0
   10.2759   -4.0036   17.8845 C   0  0  0  0  0  0  0  0  0  0  0  0
    8.5652    1.5478   25.3778 N   0  0  0  0  0  0  0  0  0  0  0  0
    6.8048   -7.5457   17.8752 C   0  0  0  0  0  0  0  0  0  0  0  0
    6.1721   -8.2186   15.9886 N   0  0  0  0  0  0  0  0  0  0  0  0
   11.1764   -2.6600   19.5604 C   0  0  0  0  0  0  0  0  0  0  0  0
    9.5491   -0.6380   24.1912 C   0  0  0  0  0  0  0  0  0  0  0  0
    7.5337   -6.9256   16.9519 C   0  0  0  0  0  0  0  0  0  0  0  0
    9.6782    0.5671   23.5143 C   0  0  0  0  0  0  0  0  0  0  0  0
    8.4532    0.3482   26.0821 C   0  0  0  0  0  0  0  0  0  0  0  0
   10.4239   -1.7677   22.2230 N   0  0  0  0  0  0  0  0  0  0  0  0
    9.9468   -4.5953   20.1709 C   0  0  0  0  0  0  0  0  0  0  0  0
   10.0366   -3.0590   23.9864 N   0  0  0  0  0  0  0  0  0  0  0  0
    7.1191   -7.3636   15.7739 C   0  0  0  0  0  0  0  0  0  0  0  0
    5.9612   -8.3203   17.2732 N   0  0  0  0  0  0  0  0  0  0  0  0
    8.5296   -5.9814   17.1841 C   0  0  0  0  0  0  0  0  0  0  0  0
    9.1527   -5.2118   16.2116 C   0  0  0  0  0  0  0  0  0  0  0  0
   10.3364   -3.8368   22.9255 O   0  0  0  0  0  0  0  0  0  0  0  0
    9.6947   -4.8407   18.8534 C   0  0  0  0  0  0  0  0  0  0  0  0
    9.1596    1.7042   24.1381 C   0  0  0  0  0  0  0  0  0  0  0  0
   11.0456   -2.9774   18.2694 N   0  0  0  0  0  0  0  0  0  0  0  0
   10.4788   -3.0457   21.8593 C   0  0  0  0  0  0  0  0  0  0  0  0
    8.8693   -5.8099   18.4657 N   0  0  0  0  0  0  0  0  0  0  0  0
    8.9892   -0.7926   25.4573 C   0  0  0  0  0  0  0  0  0  0  0  0
   10.5677   -3.4462   20.5323 C   0  0  0  0  0  0  0  0  0  0  0  0
  1  8  1  0
  1 12  4  0
  1 14  4  0
  2  3  4  0
  2 18  4  0
  3 20  4  0
  3 22  4  0
  4 11  4  0
  4 21  4  0
  5  9  4  0
  5 16  4  0
  6 15  4  0
  6 16  4  0
  7 22  4  0
  7 26  4  0
  8 10  4  0
  8 25  4  0
  9 15  4  0
  9 17  1  0
 10 21  4  0
 11 25  4  0
 12 23  4  0
 13 20  4  0
 13 26  4  0
 14 19  4  0
 17 18  4  0
 17 24  4  0
 19 23  4  0
 20 24  4  0
 23 26  1  0
M  END
$$$$

 Created by Python create_sdf_string function

 26 30  0  0  0  0  0  0  0  0999 V2000
   10.0084   -1.8019   23.4945 C   0  0  0  0  0  0  0  0  0  0  0  0
   10.0005   -4.2520   16.5631 C   0  0  0  0  0  0  0  0  0  0  0  0
   10.2759   -4.0036   17.8845 C   0  0  0  0  0  0  0  0  0  0  0  0
    8.5652    1.5478   25.3778 N   0  0  0  0  0  0  0  0  0  0  0  0
    6.8048   -7.5457   17.8752 C   0  0  0  0  0  0  0  0  0  0  0  0
    6.1721   -8.2186   15.9886 N   0  0  0  0  0  0  0  0  0  0  0  0
   11.1764   -2.6600   19.5604 C   0  0  0  0  0  0  0  0  0  0  0  0
    9.5491   -0.6380   24.1912 C   0  0  0  0  0  0  0  0  0  0  0  0
    7.5337   -6.9256   16.9519 C   0  0  0  0  0  0  0  0  0  0  0  0
    9.6782    0.5671   23.5143 C   0  0  0  0  0  0  0  0  0  0  0  0
    8.4532    0.3482   26.0821 C   0  0  0  0  0  0  0  0  0  0  0  0
   10.4239   -1.7677   22.2230 N   0  0  0  0  0  0  0  0  0  0  0  0
    9.9468   -4.5953   20.1709 C   0  0  0  0  0  0  0  0  0  0  0  0
   10.0366   -3.0590   23.9864 N   0  0  0  0  0  0  0  0  0  0  0  0
    7.1191   -7.3636   15.7739 C   0  0  0  0  0  0  0  0  0  0  0  0
    5.9612   -8.3203   17.2732 N   0  0  0  0  0  0  0  0  0  0  0  0
    8.5296   -5.9814   17.1841 C   0  0  0  0  0  0  0  0  0  0  0  0
    9.1527   -5.2118   16.2116 C   0  0  0  0  0  0  0  0  0  0  0  0
   10.3364   -3.8368   22.9255 O   0  0  0  0  0  0  0  0  0  0  0  0
    9.6947   -4.8407   18.8534 C   0  0  0  0  0  0  0  0  0  0  0  0
    9.1596    1.7042   24.1381 C   0  0  0  0  0  0  0  0  0  0  0  0
   11.0456   -2.9774   18.2694 N   0  0  0  0  0  0  0  0  0  0  0  0
   10.4788   -3.0457   21.8593 C   0  0  0  0  0  0  0  0  0  0  0  0
    8.8693   -5.8099   18.4657 N   0  0  0  0  0  0  0  0  0  0  0  0
    8.9892   -0.7926   25.4573 C   0  0  0  0  0  0  0  0  0  0  0  0
   10.5677   -3.4462   20.5323 C   0  0  0  0  0  0  0  0  0  0  0  0
  1  8  1  0
  1 12  4  0
  1 14  4  0
  2  3  4  0
  2 18  4  0
  3 20  4  0
  3 22  4  0
  4 11  4  0
  4 21  4  0
  5  9  4  0
  5 16  4  0
  6 15  4  0
  6 16  4  0
  7 22  4  0
  7 26  4  0
  8 10  4  0
  8 25  4  0
  9 15  4  0
  9 17  1  0
 10 21  4  0
 11 25  4  0
 12 23  4  0
 13 20  4  0
 13 26  4  0
 14 19  4  0
 17 18  4  0
 17 24  4  0
 19 23  4  0
 20 24  4  0
 23 26  1  0
M  END
$$$$

 Created by Python create_sdf_string function

 26 30  0  0  0  0  0  0  0  0999 V2000
   10.0084   -1.8019   23.4945 C   0  0  0  0  0  0  0  0  0  0  0  0
   10.0005   -4.2520   16.5631 C   0  0  0  0  0  0  0  0  0  0  0  0
   10.2759   -4.0036   17.8845 C   0  0  0  0  0  0  0  0  0  0  0  0
    8.5652    1.5478   25.3778 N   0  0  0  0  0  0  0  0  0  0  0  0
    6.8048   -7.5457   17.8752 C   0  0  0  0  0  0  0  0  0  0  0  0
    6.1721   -8.2186   15.9886 N   0  0  0  0  0  0  0  0  0  0  0  0
   11.1764   -2.6600   19.5604 C   0  0  0  0  0  0  0  0  0  0  0  0
    9.5491   -0.6380   24.1912 C   0  0  0  0  0  0  0  0  0  0  0  0
    7.5337   -6.9256   16.9519 C   0  0  0  0  0  0  0  0  0  0  0  0
    9.6782    0.5671   23.5143 C   0  0  0  0  0  0  0  0  0  0  0  0
    8.4532    0.3482   26.0821 C   0  0  0  0  0  0  0  0  0  0  0  0
   10.4239   -1.7677   22.2230 N   0  0  0  0  0  0  0  0  0  0  0  0
    9.9468   -4.5953   20.1709 C   0  0  0  0  0  0  0  0  0  0  0  0
   10.0366   -3.0590   23.9864 N   0  0  0  0  0  0  0  0  0  0  0  0
    7.1191   -7.3636   15.7739 C   0  0  0  0  0  0  0  0  0  0  0  0
    5.9612   -8.3203   17.2732 N   0  0  0  0  0  0  0  0  0  0  0  0
    8.5296   -5.9814   17.1841 C   0  0  0  0  0  0  0  0  0  0  0  0
    9.1527   -5.2118   16.2116 C   0  0  0  0  0  0  0  0  0  0  0  0
   10.3364   -3.8368   22.9255 O   0  0  0  0  0  0  0  0  0  0  0  0
    9.6947   -4.8407   18.8534 C   0  0  0  0  0  0  0  0  0  0  0  0
    9.1596    1.7042   24.1381 C   0  0  0  0  0  0  0  0  0  0  0  0
   11.0456   -2.9774   18.2694 N   0  0  0  0  0  0  0  0  0  0  0  0
   10.4788   -3.0457   21.8593 C   0  0  0  0  0  0  0  0  0  0  0  0
    8.8693   -5.8099   18.4657 N   0  0  0  0  0  0  0  0  0  0  0  0
    8.9892   -0.7926   25.4573 C   0  0  0  0  0  0  0  0  0  0  0  0
   10.5677   -3.4462   20.5323 C   0  0  0  0  0  0  0  0  0  0  0  0
  1  8  1  0
  1 12  4  0
  1 14  4  0
  2  3  4  0
  2 18  4  0
  3 20  4  0
  3 22  4  0
  4 11  4  0
  4 21  4  0
  5  9  4  0
  5 16  4  0
  6 15  4  0
  6 16  4  0
  7 22  4  0
  7 26  4  0
  8 10  4  0
  8 25  4  0
  9 15  4  0
  9 17  1  0
 10 21  4  0
 11 25  4  0
 12 23  4  0
 13 20  4  0
 13 26  4  0
 14 19  4  0
 17 18  4  0
 17 24  4  0
 19 23  4  0
 20 24  4  0
 23 26  1  0
M  END
$$$$

 Created by Python create_sdf_string function

 26 30  0  0  0  0  0  0  0  0999 V2000
   10.0084   -1.8019   23.4945 C   0  0  0  0  0  0  0  0  0  0  0  0
   10.0005   -4.2520   16.5631 C   0  0  0  0  0  0  0  0  0  0  0  0
   10.2759   -4.0036   17.8845 C   0  0  0  0  0  0  0  0  0  0  0  0
    8.5652    1.5478   25.3778 N   0  0  0  0  0  0  0  0  0  0  0  0
    6.8048   -7.5457   17.8752 C   0  0  0  0  0  0  0  0  0  0  0  0
    6.1721   -8.2186   15.9886 N   0  0  0  0  0  0  0  0  0  0  0  0
   11.1764   -2.6600   19.5604 C   0  0  0  0  0  0  0  0  0  0  0  0
    9.5491   -0.6380   24.1912 C   0  0  0  0  0  0  0  0  0  0  0  0
    7.5337   -6.9256   16.9519 C   0  0  0  0  0  0  0  0  0  0  0  0
    9.6782    0.5671   23.5143 C   0  0  0  0  0  0  0  0  0  0  0  0
    8.4532    0.3482   26.0821 C   0  0  0  0  0  0  0  0  0  0  0  0
   10.4239   -1.7677   22.2230 N   0  0  0  0  0  0  0  0  0  0  0  0
    9.9468   -4.5953   20.1709 C   0  0  0  0  0  0  0  0  0  0  0  0
   10.0366   -3.0590   23.9864 N   0  0  0  0  0  0  0  0  0  0  0  0
    7.1191   -7.3636   15.7739 C   0  0  0  0  0  0  0  0  0  0  0  0
    5.9612   -8.3203   17.2732 N   0  0  0  0  0  0  0  0  0  0  0  0
    8.5296   -5.9814   17.1841 C   0  0  0  0  0  0  0  0  0  0  0  0
    9.1527   -5.2118   16.2116 C   0  0  0  0  0  0  0  0  0  0  0  0
   10.3364   -3.8368   22.9255 O   0  0  0  0  0  0  0  0  0  0  0  0
    9.6947   -4.8407   18.8534 C   0  0  0  0  0  0  0  0  0  0  0  0
    9.1596    1.7042   24.1381 C   0  0  0  0  0  0  0  0  0  0  0  0
   11.0456   -2.9774   18.2694 N   0  0  0  0  0  0  0  0  0  0  0  0
   10.4788   -3.0457   21.8593 C   0  0  0  0  0  0  0  0  0  0  0  0
    8.8693   -5.8099   18.4657 N   0  0  0  0  0  0  0  0  0  0  0  0
    8.9892   -0.7926   25.4573 C   0  0  0  0  0  0  0  0  0  0  0  0
   10.5677   -3.4462   20.5323 C   0  0  0  0  0  0  0  0  0  0  0  0
  1  8  1  0
  1 12  4  0
  1 14  4  0
  2  3  4  0
  2 18  4  0
  3 20  4  0
  3 22  4  0
  4 11  4  0
  4 21  4  0
  5  9  4  0
  5 16  4  0
  6 15  4  0
  6 16  4  0
  7 22  4  0
  7 26  4  0
  8 10  4  0
  8 25  4  0
  9 15  4  0
  9 17  1  0
 10 21  4  0
 11 25  4  0
 12 23  4  0
 13 20  4  0
 13 26  4  0
 14 19  4  0
 17 18  4  0
 17 24  4  0
 19 23  4  0
 20 24  4  0
 23 26  1  0
M  END
$$$$

 Created by Python create_sdf_string function

 26 30  0  0  0  0  0  0  0  0999 V2000
   10.0084   -1.8019   23.4945 C   0  0  0  0  0  0  0  0  0  0  0  0
   10.0005   -4.2520   16.5631 C   0  0  0  0  0  0  0  0  0  0  0  0
   10.2759   -4.0036   17.8845 C   0  0  0  0  0  0  0  0  0  0  0  0
    8.5652    1.5478   25.3778 N   0  0  0  0  0  0  0  0  0  0  0  0
    6.8048   -7.5457   17.8752 C   0  0  0  0  0  0  0  0  0  0  0  0
    6.1721   -8.2186   15.9886 N   0  0  0  0  0  0  0  0  0  0  0  0
   11.1764   -2.6600   19.5604 C   0  0  0  0  0  0  0  0  0  0  0  0
    9.5491   -0.6380   24.1912 C   0  0  0  0  0  0  0  0  0  0  0  0
    7.5337   -6.9256   16.9519 C   0  0  0  0  0  0  0  0  0  0  0  0
    9.6782    0.5671   23.5143 C   0  0  0  0  0  0  0  0  0  0  0  0
    8.4532    0.3482   26.0821 C   0  0  0  0  0  0  0  0  0  0  0  0
   10.4239   -1.7677   22.2230 N   0  0  0  0  0  0  0  0  0  0  0  0
    9.9468   -4.5953   20.1709 C   0  0  0  0  0  0  0  0  0  0  0  0
   10.0366   -3.0590   23.9864 N   0  0  0  0  0  0  0  0  0  0  0  0
    7.1191   -7.3636   15.7739 C   0  0  0  0  0  0  0  0  0  0  0  0
    5.9612   -8.3203   17.2732 N   0  0  0  0  0  0  0  0  0  0  0  0
    8.5296   -5.9814   17.1841 C   0  0  0  0  0  0  0  0  0  0  0  0
    9.1527   -5.2118   16.2116 C   0  0  0  0  0  0  0  0  0  0  0  0
   10.3364   -3.8368   22.9255 O   0  0  0  0  0  0  0  0  0  0  0  0
    9.6947   -4.8407   18.8534 C   0  0  0  0  0  0  0  0  0  0  0  0
    9.1596    1.7042   24.1381 C   0  0  0  0  0  0  0  0  0  0  0  0
   11.0456   -2.9774   18.2694 N   0  0  0  0  0  0  0  0  0  0  0  0
   10.4788   -3.0457   21.8593 C   0  0  0  0  0  0  0  0  0  0  0  0
    8.8693   -5.8099   18.4657 N   0  0  0  0  0  0  0  0  0  0  0  0
    8.9892   -0.7926   25.4573 C   0  0  0  0  0  0  0  0  0  0  0  0
   10.5677   -3.4462   20.5323 C   0  0  0  0  0  0  0  0  0  0  0  0
  1  8  1  0
  1 12  4  0
  1 14  4  0
  2  3  4  0
  2 18  4  0
  3 20  4  0
  3 22  4  0
  4 11  4  0
  4 21  4  0
  5  9  4  0
  5 16  4  0
  6 15  4  0
  6 16  4  0
  7 22  4  0
  7 26  4  0
  8 10  4  0
  8 25  4  0
  9 15  4  0
  9 17  1  0
 10 21  4  0
 11 25  4  0
 12 23  4  0
 13 20  4  0
 13 26  4  0
 14 19  4  0
 17 18  4  0
 17 24  4  0
 19 23  4  0
 20 24  4  0
 23 26  1  0
M  END
$$$$

 Created by Python create_sdf_string function

 26 30  0  0  0  0  0  0  0  0999 V2000
   10.0084   -1.8019   23.4945 C   0  0  0  0  0  0  0  0  0  0  0  0
   10.0005   -4.2520   16.5631 C   0  0  0  0  0  0  0  0  0  0  0  0
   10.2759   -4.0036   17.8845 C   0  0  0  0  0  0  0  0  0  0  0  0
    8.5652    1.5478   25.3778 N   0  0  0  0  0  0  0  0  0  0  0  0
    6.8048   -7.5457   17.8752 C   0  0  0  0  0  0  0  0  0  0  0  0
    6.1721   -8.2186   15.9886 N   0  0  0  0  0  0  0  0  0  0  0  0
   11.1764   -2.6600   19.5604 C   0  0  0  0  0  0  0  0  0  0  0  0
    9.5491   -0.6380   24.1912 C   0  0  0  0  0  0  0  0  0  0  0  0
    7.5337   -6.9256   16.9519 C   0  0  0  0  0  0  0  0  0  0  0  0
    9.6782    0.5671   23.5143 C   0  0  0  0  0  0  0  0  0  0  0  0
    8.4532    0.3482   26.0821 C   0  0  0  0  0  0  0  0  0  0  0  0
   10.4239   -1.7677   22.2230 N   0  0  0  0  0  0  0  0  0  0  0  0
    9.9468   -4.5953   20.1709 C   0  0  0  0  0  0  0  0  0  0  0  0
   10.0366   -3.0590   23.9864 N   0  0  0  0  0  0  0  0  0  0  0  0
    7.1191   -7.3636   15.7739 C   0  0  0  0  0  0  0  0  0  0  0  0
    5.9612   -8.3203   17.2732 N   0  0  0  0  0  0  0  0  0  0  0  0
    8.5296   -5.9814   17.1841 C   0  0  0  0  0  0  0  0  0  0  0  0
    9.1527   -5.2118   16.2116 C   0  0  0  0  0  0  0  0  0  0  0  0
   10.3364   -3.8368   22.9255 O   0  0  0  0  0  0  0  0  0  0  0  0
    9.6947   -4.8407   18.8534 C   0  0  0  0  0  0  0  0  0  0  0  0
    9.1596    1.7042   24.1381 C   0  0  0  0  0  0  0  0  0  0  0  0
   11.0456   -2.9774   18.2694 N   0  0  0  0  0  0  0  0  0  0  0  0
   10.4788   -3.0457   21.8593 C   0  0  0  0  0  0  0  0  0  0  0  0
    8.8693   -5.8099   18.4657 N   0  0  0  0  0  0  0  0  0  0  0  0
    8.9892   -0.7926   25.4573 C   0  0  0  0  0  0  0  0  0  0  0  0
   10.5677   -3.4462   20.5323 C   0  0  0  0  0  0  0  0  0  0  0  0
  1  8  1  0
  1 12  4  0
  1 14  4  0
  2  3  4  0
  2 18  4  0
  3 20  4  0
  3 22  4  0
  4 11  4  0
  4 21  4  0
  5  9  4  0
  5 16  4  0
  6 15  4  0
  6 16  4  0
  7 22  4  0
  7 26  4  0
  8 10  4  0
  8 25  4  0
  9 15  4  0
  9 17  1  0
 10 21  4  0
 11 25  4  0
 12 23  4  0
 13 20  4  0
 13 26  4  0
 14 19  4  0
 17 18  4  0
 17 24  4  0
 19 23  4  0
 20 24  4  0
 23 26  1  0
M  END
$$$$

 Created by Python create_sdf_string function

 26 30  0  0  0  0  0  0  0  0999 V2000
   10.0084   -1.8019   23.4945 C   0  0  0  0  0  0  0  0  0  0  0  0
   10.0005   -4.2520   16.5631 C   0  0  0  0  0  0  0  0  0  0  0  0
   10.2759   -4.0036   17.8845 C   0  0  0  0  0  0  0  0  0  0  0  0
    8.5652    1.5478   25.3778 N   0  0  0  0  0  0  0  0  0  0  0  0
    6.8048   -7.5457   17.8752 C   0  0  0  0  0  0  0  0  0  0  0  0
    6.1721   -8.2186   15.9886 N   0  0  0  0  0  0  0  0  0  0  0  0
   11.1764   -2.6600   19.5604 C   0  0  0  0  0  0  0  0  0  0  0  0
    9.5491   -0.6380   24.1912 C   0  0  0  0  0  0  0  0  0  0  0  0
    7.5337   -6.9256   16.9519 C   0  0  0  0  0  0  0  0  0  0  0  0
    9.6782    0.5671   23.5143 C   0  0  0  0  0  0  0  0  0  0  0  0
    8.4532    0.3482   26.0821 C   0  0  0  0  0  0  0  0  0  0  0  0
   10.4239   -1.7677   22.2230 N   0  0  0  0  0  0  0  0  0  0  0  0
    9.9468   -4.5953   20.1709 C   0  0  0  0  0  0  0  0  0  0  0  0
   10.0366   -3.0590   23.9864 N   0  0  0  0  0  0  0  0  0  0  0  0
    7.1191   -7.3636   15.7739 C   0  0  0  0  0  0  0  0  0  0  0  0
    5.9612   -8.3203   17.2732 N   0  0  0  0  0  0  0  0  0  0  0  0
    8.5296   -5.9814   17.1841 C   0  0  0  0  0  0  0  0  0  0  0  0
    9.1527   -5.2118   16.2116 C   0  0  0  0  0  0  0  0  0  0  0  0
   10.3364   -3.8368   22.9255 O   0  0  0  0  0  0  0  0  0  0  0  0
    9.6947   -4.8407   18.8534 C   0  0  0  0  0  0  0  0  0  0  0  0
    9.1596    1.7042   24.1381 C   0  0  0  0  0  0  0  0  0  0  0  0
   11.0456   -2.9774   18.2694 N   0  0  0  0  0  0  0  0  0  0  0  0
   10.4788   -3.0457   21.8593 C   0  0  0  0  0  0  0  0  0  0  0  0
    8.8693   -5.8099   18.4657 N   0  0  0  0  0  0  0  0  0  0  0  0
    8.9892   -0.7926   25.4573 C   0  0  0  0  0  0  0  0  0  0  0  0
   10.5677   -3.4462   20.5323 C   0  0  0  0  0  0  0  0  0  0  0  0
  1  8  1  0
  1 12  4  0
  1 14  4  0
  2  3  4  0
  2 18  4  0
  3 20  4  0
  3 22  4  0
  4 11  4  0
  4 21  4  0
  5  9  4  0
  5 16  4  0
  6 15  4  0
  6 16  4  0
  7 22  4  0
  7 26  4  0
  8 10  4  0
  8 25  4  0
  9 15  4  0
  9 17  1  0
 10 21  4  0
 11 25  4  0
 12 23  4  0
 13 20  4  0
 13 26  4  0
 14 19  4  0
 17 18  4  0
 17 24  4  0
 19 23  4  0
 20 24  4  0
 23 26  1  0
M  END
$$$$

 Created by Python create_sdf_string function

 26 30  0  0  0  0  0  0  0  0999 V2000
   10.0084   -1.8019   23.4945 C   0  0  0  0  0  0  0  0  0  0  0  0
   10.0005   -4.2520   16.5631 C   0  0  0  0  0  0  0  0  0  0  0  0
   10.2759   -4.0036   17.8845 C   0  0  0  0  0  0  0  0  0  0  0  0
    8.5652    1.5478   25.3778 N   0  0  0  0  0  0  0  0  0  0  0  0
    6.8048   -7.5457   17.8752 C   0  0  0  0  0  0  0  0  0  0  0  0
    6.1721   -8.2186   15.9886 N   0  0  0  0  0  0  0  0  0  0  0  0
   11.1764   -2.6600   19.5604 C   0  0  0  0  0  0  0  0  0  0  0  0
    9.5491   -0.6380   24.1912 C   0  0  0  0  0  0  0  0  0  0  0  0
    7.5337   -6.9256   16.9519 C   0  0  0  0  0  0  0  0  0  0  0  0
    9.6782    0.5671   23.5143 C   0  0  0  0  0  0  0  0  0  0  0  0
    8.4532    0.3482   26.0821 C   0  0  0  0  0  0  0  0  0  0  0  0
   10.4239   -1.7677   22.2230 N   0  0  0  0  0  0  0  0  0  0  0  0
    9.9468   -4.5953   20.1709 C   0  0  0  0  0  0  0  0  0  0  0  0
   10.0366   -3.0590   23.9864 N   0  0  0  0  0  0  0  0  0  0  0  0
    7.1191   -7.3636   15.7739 C   0  0  0  0  0  0  0  0  0  0  0  0
    5.9612   -8.3203   17.2732 N   0  0  0  0  0  0  0  0  0  0  0  0
    8.5296   -5.9814   17.1841 C   0  0  0  0  0  0  0  0  0  0  0  0
    9.1527   -5.2118   16.2116 C   0  0  0  0  0  0  0  0  0  0  0  0
   10.3364   -3.8368   22.9255 O   0  0  0  0  0  0  0  0  0  0  0  0
    9.6947   -4.8407   18.8534 C   0  0  0  0  0  0  0  0  0  0  0  0
    9.1596    1.7042   24.1381 C   0  0  0  0  0  0  0  0  0  0  0  0
   11.0456   -2.9774   18.2694 N   0  0  0  0  0  0  0  0  0  0  0  0
   10.4788   -3.0457   21.8593 C   0  0  0  0  0  0  0  0  0  0  0  0
    8.8693   -5.8099   18.4657 N   0  0  0  0  0  0  0  0  0  0  0  0
    8.9892   -0.7926   25.4573 C   0  0  0  0  0  0  0  0  0  0  0  0
   10.5677   -3.4462   20.5323 C   0  0  0  0  0  0  0  0  0  0  0  0
  1  8  1  0
  1 12  4  0
  1 14  4  0
  2  3  4  0
  2 18  4  0
  3 20  4  0
  3 22  4  0
  4 11  4  0
  4 21  4  0
  5  9  4  0
  5 16  4  0
  6 15  4  0
  6 16  4  0
  7 22  4  0
  7 26  4  0
  8 10  4  0
  8 25  4  0
  9 15  4  0
  9 17  1  0
 10 21  4  0
 11 25  4  0
 12 23  4  0
 13 20  4  0
 13 26  4  0
 14 19  4  0
 17 18  4  0
 17 24  4  0
 19 23  4  0
 20 24  4  0
 23 26  1  0
M  END
$$$$

 Created by Python create_sdf_string function

 26 30  0  0  0  0  0  0  0  0999 V2000
   10.0084   -1.8019   23.4945 C   0  0  0  0  0  0  0  0  0  0  0  0
   10.0005   -4.2520   16.5631 C   0  0  0  0  0  0  0  0  0  0  0  0
   10.2759   -4.0036   17.8845 C   0  0  0  0  0  0  0  0  0  0  0  0
    8.5652    1.5478   25.3778 N   0  0  0  0  0  0  0  0  0  0  0  0
    6.8048   -7.5457   17.8752 C   0  0  0  0  0  0  0  0  0  0  0  0
    6.1721   -8.2186   15.9886 N   0  0  0  0  0  0  0  0  0  0  0  0
   11.1764   -2.6600   19.5604 C   0  0  0  0  0  0  0  0  0  0  0  0
    9.5491   -0.6380   24.1912 C   0  0  0  0  0  0  0  0  0  0  0  0
    7.5337   -6.9256   16.9519 C   0  0  0  0  0  0  0  0  0  0  0  0
    9.6782    0.5671   23.5143 C   0  0  0  0  0  0  0  0  0  0  0  0
    8.4532    0.3482   26.0821 C   0  0  0  0  0  0  0  0  0  0  0  0
   10.4239   -1.7677   22.2230 N   0  0  0  0  0  0  0  0  0  0  0  0
    9.9468   -4.5953   20.1709 C   0  0  0  0  0  0  0  0  0  0  0  0
   10.0366   -3.0590   23.9864 N   0  0  0  0  0  0  0  0  0  0  0  0
    7.1191   -7.3636   15.7739 C   0  0  0  0  0  0  0  0  0  0  0  0
    5.9612   -8.3203   17.2732 N   0  0  0  0  0  0  0  0  0  0  0  0
    8.5296   -5.9814   17.1841 C   0  0  0  0  0  0  0  0  0  0  0  0
    9.1527   -5.2118   16.2116 C   0  0  0  0  0  0  0  0  0  0  0  0
   10.3364   -3.8368   22.9255 O   0  0  0  0  0  0  0  0  0  0  0  0
    9.6947   -4.8407   18.8534 C   0  0  0  0  0  0  0  0  0  0  0  0
    9.1596    1.7042   24.1381 C   0  0  0  0  0  0  0  0  0  0  0  0
   11.0456   -2.9774   18.2694 N   0  0  0  0  0  0  0  0  0  0  0  0
   10.4788   -3.0457   21.8593 C   0  0  0  0  0  0  0  0  0  0  0  0
    8.8693   -5.8099   18.4657 N   0  0  0  0  0  0  0  0  0  0  0  0
    8.9892   -0.7926   25.4573 C   0  0  0  0  0  0  0  0  0  0  0  0
   10.5677   -3.4462   20.5323 C   0  0  0  0  0  0  0  0  0  0  0  0
  1  8  1  0
  1 12  4  0
  1 14  4  0
  2  3  4  0
  2 18  4  0
  3 20  4  0
  3 22  4  0
  4 11  4  0
  4 21  4  0
  5  9  4  0
  5 16  4  0
  6 15  4  0
  6 16  4  0
  7 22  4  0
  7 26  4  0
  8 10  4  0
  8 25  4  0
  9 15  4  0
  9 17  1  0
 10 21  4  0
 11 25  4  0
 12 23  4  0
 13 20  4  0
 13 26  4  0
 14 19  4  0
 17 18  4  0
 17 24  4  0
 19 23  4  0
 20 24  4  0
 23 26  1  0
M  END
$$$$

 Created by Python create_sdf_string function

 26 30  0  0  0  0  0  0  0  0999 V2000
   10.0084   -1.8019   23.4945 C   0  0  0  0  0  0  0  0  0  0  0  0
   10.0005   -4.2520   16.5631 C   0  0  0  0  0  0  0  0  0  0  0  0
   10.2759   -4.0036   17.8845 C   0  0  0  0  0  0  0  0  0  0  0  0
    8.5652    1.5478   25.3778 N   0  0  0  0  0  0  0  0  0  0  0  0
    6.8048   -7.5457   17.8752 C   0  0  0  0  0  0  0  0  0  0  0  0
    6.1721   -8.2186   15.9886 N   0  0  0  0  0  0  0  0  0  0  0  0
   11.1764   -2.6600   19.5604 C   0  0  0  0  0  0  0  0  0  0  0  0
    9.5491   -0.6380   24.1912 C   0  0  0  0  0  0  0  0  0  0  0  0
    7.5337   -6.9256   16.9519 C   0  0  0  0  0  0  0  0  0  0  0  0
    9.6782    0.5671   23.5143 C   0  0  0  0  0  0  0  0  0  0  0  0
    8.4532    0.3482   26.0821 C   0  0  0  0  0  0  0  0  0  0  0  0
   10.4239   -1.7677   22.2230 N   0  0  0  0  0  0  0  0  0  0  0  0
    9.9468   -4.5953   20.1709 C   0  0  0  0  0  0  0  0  0  0  0  0
   10.0366   -3.0590   23.9864 N   0  0  0  0  0  0  0  0  0  0  0  0
    7.1191   -7.3636   15.7739 C   0  0  0  0  0  0  0  0  0  0  0  0
    5.9612   -8.3203   17.2732 N   0  0  0  0  0  0  0  0  0  0  0  0
    8.5296   -5.9814   17.1841 C   0  0  0  0  0  0  0  0  0  0  0  0
    9.1527   -5.2118   16.2116 C   0  0  0  0  0  0  0  0  0  0  0  0
   10.3364   -3.8368   22.9255 O   0  0  0  0  0  0  0  0  0  0  0  0
    9.6947   -4.8407   18.8534 C   0  0  0  0  0  0  0  0  0  0  0  0
    9.1596    1.7042   24.1381 C   0  0  0  0  0  0  0  0  0  0  0  0
   11.0456   -2.9774   18.2694 N   0  0  0  0  0  0  0  0  0  0  0  0
   10.4788   -3.0457   21.8593 C   0  0  0  0  0  0  0  0  0  0  0  0
    8.8693   -5.8099   18.4657 N   0  0  0  0  0  0  0  0  0  0  0  0
    8.9892   -0.7926   25.4573 C   0  0  0  0  0  0  0  0  0  0  0  0
   10.5677   -3.4462   20.5323 C   0  0  0  0  0  0  0  0  0  0  0  0
  1  8  1  0
  1 12  4  0
  1 14  4  0
  2  3  4  0
  2 18  4  0
  3 20  4  0
  3 22  4  0
  4 11  4  0
  4 21  4  0
  5  9  4  0
  5 16  4  0
  6 15  4  0
  6 16  4  0
  7 22  4  0
  7 26  4  0
  8 10  4  0
  8 25  4  0
  9 15  4  0
  9 17  1  0
 10 21  4  0
 11 25  4  0
 12 23  4  0
 13 20  4  0
 13 26  4  0
 14 19  4  0
 17 18  4  0
 17 24  4  0
 19 23  4  0
 20 24  4  0
 23 26  1  0
M  END
$$$$

 Created by Python create_sdf_string function

 26 30  0  0  0  0  0  0  0  0999 V2000
   10.0084   -1.8019   23.4945 C   0  0  0  0  0  0  0  0  0  0  0  0
   10.0005   -4.2520   16.5631 C   0  0  0  0  0  0  0  0  0  0  0  0
   10.2759   -4.0036   17.8845 C   0  0  0  0  0  0  0  0  0  0  0  0
    8.5652    1.5478   25.3778 N   0  0  0  0  0  0  0  0  0  0  0  0
    6.8048   -7.5457   17.8752 C   0  0  0  0  0  0  0  0  0  0  0  0
    6.1721   -8.2186   15.9886 N   0  0  0  0  0  0  0  0  0  0  0  0
   11.1764   -2.6600   19.5604 C   0  0  0  0  0  0  0  0  0  0  0  0
    9.5491   -0.6380   24.1912 C   0  0  0  0  0  0  0  0  0  0  0  0
    7.5337   -6.9256   16.9519 C   0  0  0  0  0  0  0  0  0  0  0  0
    9.6782    0.5671   23.5143 C   0  0  0  0  0  0  0  0  0  0  0  0
    8.4532    0.3482   26.0821 C   0  0  0  0  0  0  0  0  0  0  0  0
   10.4239   -1.7677   22.2230 N   0  0  0  0  0  0  0  0  0  0  0  0
    9.9468   -4.5953   20.1709 C   0  0  0  0  0  0  0  0  0  0  0  0
   10.0366   -3.0590   23.9864 N   0  0  0  0  0  0  0  0  0  0  0  0
    7.1191   -7.3636   15.7739 C   0  0  0  0  0  0  0  0  0  0  0  0
    5.9612   -8.3203   17.2732 N   0  0  0  0  0  0  0  0  0  0  0  0
    8.5296   -5.9814   17.1841 C   0  0  0  0  0  0  0  0  0  0  0  0
    9.1527   -5.2118   16.2116 C   0  0  0  0  0  0  0  0  0  0  0  0
   10.3364   -3.8368   22.9255 O   0  0  0  0  0  0  0  0  0  0  0  0
    9.6947   -4.8407   18.8534 C   0  0  0  0  0  0  0  0  0  0  0  0
    9.1596    1.7042   24.1381 C   0  0  0  0  0  0  0  0  0  0  0  0
   11.0456   -2.9774   18.2694 N   0  0  0  0  0  0  0  0  0  0  0  0
   10.4788   -3.0457   21.8593 C   0  0  0  0  0  0  0  0  0  0  0  0
    8.8693   -5.8099   18.4657 N   0  0  0  0  0  0  0  0  0  0  0  0
    8.9892   -0.7926   25.4573 C   0  0  0  0  0  0  0  0  0  0  0  0
   10.5677   -3.4462   20.5323 C   0  0  0  0  0  0  0  0  0  0  0  0
  1  8  1  0
  1 12  4  0
  1 14  4  0
  2  3  4  0
  2 18  4  0
  3 20  4  0
  3 22  4  0
  4 11  4  0
  4 21  4  0
  5  9  4  0
  5 16  4  0
  6 15  4  0
  6 16  4  0
  7 22  4  0
  7 26  4  0
  8 10  4  0
  8 25  4  0
  9 15  4  0
  9 17  1  0
 10 21  4  0
 11 25  4  0
 12 23  4  0
 13 20  4  0
 13 26  4  0
 14 19  4  0
 17 18  4  0
 17 24  4  0
 19 23  4  0
 20 24  4  0
 23 26  1  0
M  END
$$$$

 Created by Python create_sdf_string function

 26 30  0  0  0  0  0  0  0  0999 V2000
   10.0084   -1.8019   23.4945 C   0  0  0  0  0  0  0  0  0  0  0  0
   10.0005   -4.2520   16.5631 C   0  0  0  0  0  0  0  0  0  0  0  0
   10.2759   -4.0036   17.8845 C   0  0  0  0  0  0  0  0  0  0  0  0
    8.5652    1.5478   25.3778 N   0  0  0  0  0  0  0  0  0  0  0  0
    6.8048   -7.5457   17.8752 C   0  0  0  0  0  0  0  0  0  0  0  0
    6.1721   -8.2186   15.9886 N   0  0  0  0  0  0  0  0  0  0  0  0
   11.1764   -2.6600   19.5604 C   0  0  0  0  0  0  0  0  0  0  0  0
    9.5491   -0.6380   24.1912 C   0  0  0  0  0  0  0  0  0  0  0  0
    7.5337   -6.9256   16.9519 C   0  0  0  0  0  0  0  0  0  0  0  0
    9.6782    0.5671   23.5143 C   0  0  0  0  0  0  0  0  0  0  0  0
    8.4532    0.3482   26.0821 C   0  0  0  0  0  0  0  0  0  0  0  0
   10.4239   -1.7677   22.2230 N   0  0  0  0  0  0  0  0  0  0  0  0
    9.9468   -4.5953   20.1709 C   0  0  0  0  0  0  0  0  0  0  0  0
   10.0366   -3.0590   23.9864 N   0  0  0  0  0  0  0  0  0  0  0  0
    7.1191   -7.3636   15.7739 C   0  0  0  0  0  0  0  0  0  0  0  0
    5.9612   -8.3203   17.2732 N   0  0  0  0  0  0  0  0  0  0  0  0
    8.5296   -5.9814   17.1841 C   0  0  0  0  0  0  0  0  0  0  0  0
    9.1527   -5.2118   16.2116 C   0  0  0  0  0  0  0  0  0  0  0  0
   10.3364   -3.8368   22.9255 O   0  0  0  0  0  0  0  0  0  0  0  0
    9.6947   -4.8407   18.8534 C   0  0  0  0  0  0  0  0  0  0  0  0
    9.1596    1.7042   24.1381 C   0  0  0  0  0  0  0  0  0  0  0  0
   11.0456   -2.9774   18.2694 N   0  0  0  0  0  0  0  0  0  0  0  0
   10.4788   -3.0457   21.8593 C   0  0  0  0  0  0  0  0  0  0  0  0
    8.8693   -5.8099   18.4657 N   0  0  0  0  0  0  0  0  0  0  0  0
    8.9892   -0.7926   25.4573 C   0  0  0  0  0  0  0  0  0  0  0  0
   10.5677   -3.4462   20.5323 C   0  0  0  0  0  0  0  0  0  0  0  0
  1  8  1  0
  1 12  4  0
  1 14  4  0
  2  3  4  0
  2 18  4  0
  3 20  4  0
  3 22  4  0
  4 11  4  0
  4 21  4  0
  5  9  4  0
  5 16  4  0
  6 15  4  0
  6 16  4  0
  7 22  4  0
  7 26  4  0
  8 10  4  0
  8 25  4  0
  9 15  4  0
  9 17  1  0
 10 21  4  0
 11 25  4  0
 12 23  4  0
 13 20  4  0
 13 26  4  0
 14 19  4  0
 17 18  4  0
 17 24  4  0
 19 23  4  0
 20 24  4  0
 23 26  1  0
M  END
$$$$

 Created by Python create_sdf_string function

 26 30  0  0  0  0  0  0  0  0999 V2000
   10.0084   -1.8019   23.4945 C   0  0  0  0  0  0  0  0  0  0  0  0
   10.0005   -4.2520   16.5631 C   0  0  0  0  0  0  0  0  0  0  0  0
   10.2759   -4.0036   17.8845 C   0  0  0  0  0  0  0  0  0  0  0  0
    8.5652    1.5478   25.3778 N   0  0  0  0  0  0  0  0  0  0  0  0
    6.8048   -7.5457   17.8752 C   0  0  0  0  0  0  0  0  0  0  0  0
    6.1721   -8.2186   15.9886 N   0  0  0  0  0  0  0  0  0  0  0  0
   11.1764   -2.6600   19.5604 C   0  0  0  0  0  0  0  0  0  0  0  0
    9.5491   -0.6380   24.1912 C   0  0  0  0  0  0  0  0  0  0  0  0
    7.5337   -6.9256   16.9519 C   0  0  0  0  0  0  0  0  0  0  0  0
    9.6782    0.5671   23.5143 C   0  0  0  0  0  0  0  0  0  0  0  0
    8.4532    0.3482   26.0821 C   0  0  0  0  0  0  0  0  0  0  0  0
   10.4239   -1.7677   22.2230 N   0  0  0  0  0  0  0  0  0  0  0  0
    9.9468   -4.5953   20.1709 C   0  0  0  0  0  0  0  0  0  0  0  0
   10.0366   -3.0590   23.9864 N   0  0  0  0  0  0  0  0  0  0  0  0
    7.1191   -7.3636   15.7739 C   0  0  0  0  0  0  0  0  0  0  0  0
    5.9612   -8.3203   17.2732 N   0  0  0  0  0  0  0  0  0  0  0  0
    8.5296   -5.9814   17.1841 C   0  0  0  0  0  0  0  0  0  0  0  0
    9.1527   -5.2118   16.2116 C   0  0  0  0  0  0  0  0  0  0  0  0
   10.3364   -3.8368   22.9255 O   0  0  0  0  0  0  0  0  0  0  0  0
    9.6947   -4.8407   18.8534 C   0  0  0  0  0  0  0  0  0  0  0  0
    9.1596    1.7042   24.1381 C   0  0  0  0  0  0  0  0  0  0  0  0
   11.0456   -2.9774   18.2694 N   0  0  0  0  0  0  0  0  0  0  0  0
   10.4788   -3.0457   21.8593 C   0  0  0  0  0  0  0  0  0  0  0  0
    8.8693   -5.8099   18.4657 N   0  0  0  0  0  0  0  0  0  0  0  0
    8.9892   -0.7926   25.4573 C   0  0  0  0  0  0  0  0  0  0  0  0
   10.5677   -3.4462   20.5323 C   0  0  0  0  0  0  0  0  0  0  0  0
  1  8  1  0
  1 12  4  0
  1 14  4  0
  2  3  4  0
  2 18  4  0
  3 20  4  0
  3 22  4  0
  4 11  4  0
  4 21  4  0
  5  9  4  0
  5 16  4  0
  6 15  4  0
  6 16  4  0
  7 22  4  0
  7 26  4  0
  8 10  4  0
  8 25  4  0
  9 15  4  0
  9 17  1  0
 10 21  4  0
 11 25  4  0
 12 23  4  0
 13 20  4  0
 13 26  4  0
 14 19  4  0
 17 18  4  0
 17 24  4  0
 19 23  4  0
 20 24  4  0
 23 26  1  0
M  END
$$$$

 Created by Python create_sdf_string function

 26 30  0  0  0  0  0  0  0  0999 V2000
   10.0084   -1.8019   23.4945 C   0  0  0  0  0  0  0  0  0  0  0  0
   10.0005   -4.2520   16.5631 C   0  0  0  0  0  0  0  0  0  0  0  0
   10.2759   -4.0036   17.8845 C   0  0  0  0  0  0  0  0  0  0  0  0
    8.5652    1.5478   25.3778 N   0  0  0  0  0  0  0  0  0  0  0  0
    6.8048   -7.5457   17.8752 C   0  0  0  0  0  0  0  0  0  0  0  0
    6.1721   -8.2186   15.9886 N   0  0  0  0  0  0  0  0  0  0  0  0
   11.1764   -2.6600   19.5604 C   0  0  0  0  0  0  0  0  0  0  0  0
    9.5491   -0.6380   24.1912 C   0  0  0  0  0  0  0  0  0  0  0  0
    7.5337   -6.9256   16.9519 C   0  0  0  0  0  0  0  0  0  0  0  0
    9.6782    0.5671   23.5143 C   0  0  0  0  0  0  0  0  0  0  0  0
    8.4532    0.3482   26.0821 C   0  0  0  0  0  0  0  0  0  0  0  0
   10.4239   -1.7677   22.2230 N   0  0  0  0  0  0  0  0  0  0  0  0
    9.9468   -4.5953   20.1709 C   0  0  0  0  0  0  0  0  0  0  0  0
   10.0366   -3.0590   23.9864 N   0  0  0  0  0  0  0  0  0  0  0  0
    7.1191   -7.3636   15.7739 C   0  0  0  0  0  0  0  0  0  0  0  0
    5.9612   -8.3203   17.2732 N   0  0  0  0  0  0  0  0  0  0  0  0
    8.5296   -5.9814   17.1841 C   0  0  0  0  0  0  0  0  0  0  0  0
    9.1527   -5.2118   16.2116 C   0  0  0  0  0  0  0  0  0  0  0  0
   10.3364   -3.8368   22.9255 O   0  0  0  0  0  0  0  0  0  0  0  0
    9.6947   -4.8407   18.8534 C   0  0  0  0  0  0  0  0  0  0  0  0
    9.1596    1.7042   24.1381 C   0  0  0  0  0  0  0  0  0  0  0  0
   11.0456   -2.9774   18.2694 N   0  0  0  0  0  0  0  0  0  0  0  0
   10.4788   -3.0457   21.8593 C   0  0  0  0  0  0  0  0  0  0  0  0
    8.8693   -5.8099   18.4657 N   0  0  0  0  0  0  0  0  0  0  0  0
    8.9892   -0.7926   25.4573 C   0  0  0  0  0  0  0  0  0  0  0  0
   10.5677   -3.4462   20.5323 C   0  0  0  0  0  0  0  0  0  0  0  0
  1  8  1  0
  1 12  4  0
  1 14  4  0
  2  3  4  0
  2 18  4  0
  3 20  4  0
  3 22  4  0
  4 11  4  0
  4 21  4  0
  5  9  4  0
  5 16  4  0
  6 15  4  0
  6 16  4  0
  7 22  4  0
  7 26  4  0
  8 10  4  0
  8 25  4  0
  9 15  4  0
  9 17  1  0
 10 21  4  0
 11 25  4  0
 12 23  4  0
 13 20  4  0
 13 26  4  0
 14 19  4  0
 17 18  4  0
 17 24  4  0
 19 23  4  0
 20 24  4  0
 23 26  1  0
M  END
$$$$

 Created by Python create_sdf_string function

 26 30  0  0  0  0  0  0  0  0999 V2000
   10.0084   -1.8019   23.4945 C   0  0  0  0  0  0  0  0  0  0  0  0
   10.0005   -4.2520   16.5631 C   0  0  0  0  0  0  0  0  0  0  0  0
   10.2759   -4.0036   17.8845 C   0  0  0  0  0  0  0  0  0  0  0  0
    8.5652    1.5478   25.3778 N   0  0  0  0  0  0  0  0  0  0  0  0
    6.8048   -7.5457   17.8752 C   0  0  0  0  0  0  0  0  0  0  0  0
    6.1721   -8.2186   15.9886 N   0  0  0  0  0  0  0  0  0  0  0  0
   11.1764   -2.6600   19.5604 C   0  0  0  0  0  0  0  0  0  0  0  0
    9.5491   -0.6380   24.1912 C   0  0  0  0  0  0  0  0  0  0  0  0
    7.5337   -6.9256   16.9519 C   0  0  0  0  0  0  0  0  0  0  0  0
    9.6782    0.5671   23.5143 C   0  0  0  0  0  0  0  0  0  0  0  0
    8.4532    0.3482   26.0821 C   0  0  0  0  0  0  0  0  0  0  0  0
   10.4239   -1.7677   22.2230 N   0  0  0  0  0  0  0  0  0  0  0  0
    9.9468   -4.5953   20.1709 C   0  0  0  0  0  0  0  0  0  0  0  0
   10.0366   -3.0590   23.9864 N   0  0  0  0  0  0  0  0  0  0  0  0
    7.1191   -7.3636   15.7739 C   0  0  0  0  0  0  0  0  0  0  0  0
    5.9612   -8.3203   17.2732 N   0  0  0  0  0  0  0  0  0  0  0  0
    8.5296   -5.9814   17.1841 C   0  0  0  0  0  0  0  0  0  0  0  0
    9.1527   -5.2118   16.2116 C   0  0  0  0  0  0  0  0  0  0  0  0
   10.3364   -3.8368   22.9255 O   0  0  0  0  0  0  0  0  0  0  0  0
    9.6947   -4.8407   18.8534 C   0  0  0  0  0  0  0  0  0  0  0  0
    9.1596    1.7042   24.1381 C   0  0  0  0  0  0  0  0  0  0  0  0
   11.0456   -2.9774   18.2694 N   0  0  0  0  0  0  0  0  0  0  0  0
   10.4788   -3.0457   21.8593 C   0  0  0  0  0  0  0  0  0  0  0  0
    8.8693   -5.8099   18.4657 N   0  0  0  0  0  0  0  0  0  0  0  0
    8.9892   -0.7926   25.4573 C   0  0  0  0  0  0  0  0  0  0  0  0
   10.5677   -3.4462   20.5323 C   0  0  0  0  0  0  0  0  0  0  0  0
  1  8  1  0
  1 12  4  0
  1 14  4  0
  2  3  4  0
  2 18  4  0
  3 20  4  0
  3 22  4  0
  4 11  4  0
  4 21  4  0
  5  9  4  0
  5 16  4  0
  6 15  4  0
  6 16  4  0
  7 22  4  0
  7 26  4  0
  8 10  4  0
  8 25  4  0
  9 15  4  0
  9 17  1  0
 10 21  4  0
 11 25  4  0
 12 23  4  0
 13 20  4  0
 13 26  4  0
 14 19  4  0
 17 18  4  0
 17 24  4  0
 19 23  4  0
 20 24  4  0
 23 26  1  0
M  END
$$$$

 Created by Python create_sdf_string function

 26 30  0  0  0  0  0  0  0  0999 V2000
   10.0084   -1.8019   23.4945 C   0  0  0  0  0  0  0  0  0  0  0  0
   10.0005   -4.2520   16.5631 C   0  0  0  0  0  0  0  0  0  0  0  0
   10.2759   -4.0036   17.8845 C   0  0  0  0  0  0  0  0  0  0  0  0
    8.5652    1.5478   25.3778 N   0  0  0  0  0  0  0  0  0  0  0  0
    6.8048   -7.5457   17.8752 C   0  0  0  0  0  0  0  0  0  0  0  0
    6.1721   -8.2186   15.9886 N   0  0  0  0  0  0  0  0  0  0  0  0
   11.1764   -2.6600   19.5604 C   0  0  0  0  0  0  0  0  0  0  0  0
    9.5491   -0.6380   24.1912 C   0  0  0  0  0  0  0  0  0  0  0  0
    7.5337   -6.9256   16.9519 C   0  0  0  0  0  0  0  0  0  0  0  0
    9.6782    0.5671   23.5143 C   0  0  0  0  0  0  0  0  0  0  0  0
    8.4532    0.3482   26.0821 C   0  0  0  0  0  0  0  0  0  0  0  0
   10.4239   -1.7677   22.2230 N   0  0  0  0  0  0  0  0  0  0  0  0
    9.9468   -4.5953   20.1709 C   0  0  0  0  0  0  0  0  0  0  0  0
   10.0366   -3.0590   23.9864 N   0  0  0  0  0  0  0  0  0  0  0  0
    7.1191   -7.3636   15.7739 C   0  0  0  0  0  0  0  0  0  0  0  0
    5.9612   -8.3203   17.2732 N   0  0  0  0  0  0  0  0  0  0  0  0
    8.5296   -5.9814   17.1841 C   0  0  0  0  0  0  0  0  0  0  0  0
    9.1527   -5.2118   16.2116 C   0  0  0  0  0  0  0  0  0  0  0  0
   10.3364   -3.8368   22.9255 O   0  0  0  0  0  0  0  0  0  0  0  0
    9.6947   -4.8407   18.8534 C   0  0  0  0  0  0  0  0  0  0  0  0
    9.1596    1.7042   24.1381 C   0  0  0  0  0  0  0  0  0  0  0  0
   11.0456   -2.9774   18.2694 N   0  0  0  0  0  0  0  0  0  0  0  0
   10.4788   -3.0457   21.8593 C   0  0  0  0  0  0  0  0  0  0  0  0
    8.8693   -5.8099   18.4657 N   0  0  0  0  0  0  0  0  0  0  0  0
    8.9892   -0.7926   25.4573 C   0  0  0  0  0  0  0  0  0  0  0  0
   10.5677   -3.4462   20.5323 C   0  0  0  0  0  0  0  0  0  0  0  0
  1  8  1  0
  1 12  4  0
  1 14  4  0
  2  3  4  0
  2 18  4  0
  3 20  4  0
  3 22  4  0
  4 11  4  0
  4 21  4  0
  5  9  4  0
  5 16  4  0
  6 15  4  0
  6 16  4  0
  7 22  4  0
  7 26  4  0
  8 10  4  0
  8 25  4  0
  9 15  4  0
  9 17  1  0
 10 21  4  0
 11 25  4  0
 12 23  4  0
 13 20  4  0
 13 26  4  0
 14 19  4  0
 17 18  4  0
 17 24  4  0
 19 23  4  0
 20 24  4  0
 23 26  1  0
M  END
$$$$

 Created by Python create_sdf_string function

 26 30  0  0  0  0  0  0  0  0999 V2000
   10.0084   -1.8019   23.4945 C   0  0  0  0  0  0  0  0  0  0  0  0
   10.0005   -4.2520   16.5631 C   0  0  0  0  0  0  0  0  0  0  0  0
   10.2759   -4.0036   17.8845 C   0  0  0  0  0  0  0  0  0  0  0  0
    8.5652    1.5478   25.3778 N   0  0  0  0  0  0  0  0  0  0  0  0
    6.8048   -7.5457   17.8752 C   0  0  0  0  0  0  0  0  0  0  0  0
    6.1721   -8.2186   15.9886 N   0  0  0  0  0  0  0  0  0  0  0  0
   11.1764   -2.6600   19.5604 C   0  0  0  0  0  0  0  0  0  0  0  0
    9.5491   -0.6380   24.1912 C   0  0  0  0  0  0  0  0  0  0  0  0
    7.5337   -6.9256   16.9519 C   0  0  0  0  0  0  0  0  0  0  0  0
    9.6782    0.5671   23.5143 C   0  0  0  0  0  0  0  0  0  0  0  0
    8.4532    0.3482   26.0821 C   0  0  0  0  0  0  0  0  0  0  0  0
   10.4239   -1.7677   22.2230 N   0  0  0  0  0  0  0  0  0  0  0  0
    9.9468   -4.5953   20.1709 C   0  0  0  0  0  0  0  0  0  0  0  0
   10.0366   -3.0590   23.9864 N   0  0  0  0  0  0  0  0  0  0  0  0
    7.1191   -7.3636   15.7739 C   0  0  0  0  0  0  0  0  0  0  0  0
    5.9612   -8.3203   17.2732 N   0  0  0  0  0  0  0  0  0  0  0  0
    8.5296   -5.9814   17.1841 C   0  0  0  0  0  0  0  0  0  0  0  0
    9.1527   -5.2118   16.2116 C   0  0  0  0  0  0  0  0  0  0  0  0
   10.3364   -3.8368   22.9255 O   0  0  0  0  0  0  0  0  0  0  0  0
    9.6947   -4.8407   18.8534 C   0  0  0  0  0  0  0  0  0  0  0  0
    9.1596    1.7042   24.1381 C   0  0  0  0  0  0  0  0  0  0  0  0
   11.0456   -2.9774   18.2694 N   0  0  0  0  0  0  0  0  0  0  0  0
   10.4788   -3.0457   21.8593 C   0  0  0  0  0  0  0  0  0  0  0  0
    8.8693   -5.8099   18.4657 N   0  0  0  0  0  0  0  0  0  0  0  0
    8.9892   -0.7926   25.4573 C   0  0  0  0  0  0  0  0  0  0  0  0
   10.5677   -3.4462   20.5323 C   0  0  0  0  0  0  0  0  0  0  0  0
  1  8  1  0
  1 12  4  0
  1 14  4  0
  2  3  4  0
  2 18  4  0
  3 20  4  0
  3 22  4  0
  4 11  4  0
  4 21  4  0
  5  9  4  0
  5 16  4  0
  6 15  4  0
  6 16  4  0
  7 22  4  0
  7 26  4  0
  8 10  4  0
  8 25  4  0
  9 15  4  0
  9 17  1  0
 10 21  4  0
 11 25  4  0
 12 23  4  0
 13 20  4  0
 13 26  4  0
 14 19  4  0
 17 18  4  0
 17 24  4  0
 19 23  4  0
 20 24  4  0
 23 26  1  0
M  END
$$$$

 Created by Python create_sdf_string function

 26 30  0  0  0  0  0  0  0  0999 V2000
   10.0084   -1.8019   23.4945 C   0  0  0  0  0  0  0  0  0  0  0  0
   10.0005   -4.2520   16.5631 C   0  0  0  0  0  0  0  0  0  0  0  0
   10.2759   -4.0036   17.8845 C   0  0  0  0  0  0  0  0  0  0  0  0
    8.5652    1.5478   25.3778 N   0  0  0  0  0  0  0  0  0  0  0  0
    6.8048   -7.5457   17.8752 C   0  0  0  0  0  0  0  0  0  0  0  0
    6.1721   -8.2186   15.9886 N   0  0  0  0  0  0  0  0  0  0  0  0
   11.1764   -2.6600   19.5604 C   0  0  0  0  0  0  0  0  0  0  0  0
    9.5491   -0.6380   24.1912 C   0  0  0  0  0  0  0  0  0  0  0  0
    7.5337   -6.9256   16.9519 C   0  0  0  0  0  0  0  0  0  0  0  0
    9.6782    0.5671   23.5143 C   0  0  0  0  0  0  0  0  0  0  0  0
    8.4532    0.3482   26.0821 C   0  0  0  0  0  0  0  0  0  0  0  0
   10.4239   -1.7677   22.2230 N   0  0  0  0  0  0  0  0  0  0  0  0
    9.9468   -4.5953   20.1709 C   0  0  0  0  0  0  0  0  0  0  0  0
   10.0366   -3.0590   23.9864 N   0  0  0  0  0  0  0  0  0  0  0  0
    7.1191   -7.3636   15.7739 C   0  0  0  0  0  0  0  0  0  0  0  0
    5.9612   -8.3203   17.2732 N   0  0  0  0  0  0  0  0  0  0  0  0
    8.5296   -5.9814   17.1841 C   0  0  0  0  0  0  0  0  0  0  0  0
    9.1527   -5.2118   16.2116 C   0  0  0  0  0  0  0  0  0  0  0  0
   10.3364   -3.8368   22.9255 O   0  0  0  0  0  0  0  0  0  0  0  0
    9.6947   -4.8407   18.8534 C   0  0  0  0  0  0  0  0  0  0  0  0
    9.1596    1.7042   24.1381 C   0  0  0  0  0  0  0  0  0  0  0  0
   11.0456   -2.9774   18.2694 N   0  0  0  0  0  0  0  0  0  0  0  0
   10.4788   -3.0457   21.8593 C   0  0  0  0  0  0  0  0  0  0  0  0
    8.8693   -5.8099   18.4657 N   0  0  0  0  0  0  0  0  0  0  0  0
    8.9892   -0.7926   25.4573 C   0  0  0  0  0  0  0  0  0  0  0  0
   10.5677   -3.4462   20.5323 C   0  0  0  0  0  0  0  0  0  0  0  0
  1  8  1  0
  1 12  4  0
  1 14  4  0
  2  3  4  0
  2 18  4  0
  3 20  4  0
  3 22  4  0
  4 11  4  0
  4 21  4  0
  5  9  4  0
  5 16  4  0
  6 15  4  0
  6 16  4  0
  7 22  4  0
  7 26  4  0
  8 10  4  0
  8 25  4  0
  9 15  4  0
  9 17  1  0
 10 21  4  0
 11 25  4  0
 12 23  4  0
 13 20  4  0
 13 26  4  0
 14 19  4  0
 17 18  4  0
 17 24  4  0
 19 23  4  0
 20 24  4  0
 23 26  1  0
M  END
$$$$

 Created by Python create_sdf_string function

 26 30  0  0  0  0  0  0  0  0999 V2000
   10.0084   -1.8019   23.4945 C   0  0  0  0  0  0  0  0  0  0  0  0
   10.0005   -4.2520   16.5631 C   0  0  0  0  0  0  0  0  0  0  0  0
   10.2759   -4.0036   17.8845 C   0  0  0  0  0  0  0  0  0  0  0  0
    8.5652    1.5478   25.3778 N   0  0  0  0  0  0  0  0  0  0  0  0
    6.8048   -7.5457   17.8752 C   0  0  0  0  0  0  0  0  0  0  0  0
    6.1721   -8.2186   15.9886 N   0  0  0  0  0  0  0  0  0  0  0  0
   11.1764   -2.6600   19.5604 C   0  0  0  0  0  0  0  0  0  0  0  0
    9.5491   -0.6380   24.1912 C   0  0  0  0  0  0  0  0  0  0  0  0
    7.5337   -6.9256   16.9519 C   0  0  0  0  0  0  0  0  0  0  0  0
    9.6782    0.5671   23.5143 C   0  0  0  0  0  0  0  0  0  0  0  0
    8.4532    0.3482   26.0821 C   0  0  0  0  0  0  0  0  0  0  0  0
   10.4239   -1.7677   22.2230 N   0  0  0  0  0  0  0  0  0  0  0  0
    9.9468   -4.5953   20.1709 C   0  0  0  0  0  0  0  0  0  0  0  0
   10.0366   -3.0590   23.9864 N   0  0  0  0  0  0  0  0  0  0  0  0
    7.1191   -7.3636   15.7739 C   0  0  0  0  0  0  0  0  0  0  0  0
    5.9612   -8.3203   17.2732 N   0  0  0  0  0  0  0  0  0  0  0  0
    8.5296   -5.9814   17.1841 C   0  0  0  0  0  0  0  0  0  0  0  0
    9.1527   -5.2118   16.2116 C   0  0  0  0  0  0  0  0  0  0  0  0
   10.3364   -3.8368   22.9255 O   0  0  0  0  0  0  0  0  0  0  0  0
    9.6947   -4.8407   18.8534 C   0  0  0  0  0  0  0  0  0  0  0  0
    9.1596    1.7042   24.1381 C   0  0  0  0  0  0  0  0  0  0  0  0
   11.0456   -2.9774   18.2694 N   0  0  0  0  0  0  0  0  0  0  0  0
   10.4788   -3.0457   21.8593 C   0  0  0  0  0  0  0  0  0  0  0  0
    8.8693   -5.8099   18.4657 N   0  0  0  0  0  0  0  0  0  0  0  0
    8.9892   -0.7926   25.4573 C   0  0  0  0  0  0  0  0  0  0  0  0
   10.5677   -3.4462   20.5323 C   0  0  0  0  0  0  0  0  0  0  0  0
  1  8  1  0
  1 12  4  0
  1 14  4  0
  2  3  4  0
  2 18  4  0
  3 20  4  0
  3 22  4  0
  4 11  4  0
  4 21  4  0
  5  9  4  0
  5 16  4  0
  6 15  4  0
  6 16  4  0
  7 22  4  0
  7 26  4  0
  8 10  4  0
  8 25  4  0
  9 15  4  0
  9 17  1  0
 10 21  4  0
 11 25  4  0
 12 23  4  0
 13 20  4  0
 13 26  4  0
 14 19  4  0
 17 18  4  0
 17 24  4  0
 19 23  4  0
 20 24  4  0
 23 26  1  0
M  END
$$$$

 Created by Python create_sdf_string function

 26 30  0  0  0  0  0  0  0  0999 V2000
   10.0084   -1.8019   23.4945 C   0  0  0  0  0  0  0  0  0  0  0  0
   10.0005   -4.2520   16.5631 C   0  0  0  0  0  0  0  0  0  0  0  0
   10.2759   -4.0036   17.8845 C   0  0  0  0  0  0  0  0  0  0  0  0
    8.5652    1.5478   25.3778 N   0  0  0  0  0  0  0  0  0  0  0  0
    6.8048   -7.5457   17.8752 C   0  0  0  0  0  0  0  0  0  0  0  0
    6.1721   -8.2186   15.9886 N   0  0  0  0  0  0  0  0  0  0  0  0
   11.1764   -2.6600   19.5604 C   0  0  0  0  0  0  0  0  0  0  0  0
    9.5491   -0.6380   24.1912 C   0  0  0  0  0  0  0  0  0  0  0  0
    7.5337   -6.9256   16.9519 C   0  0  0  0  0  0  0  0  0  0  0  0
    9.6782    0.5671   23.5143 C   0  0  0  0  0  0  0  0  0  0  0  0
    8.4532    0.3482   26.0821 C   0  0  0  0  0  0  0  0  0  0  0  0
   10.4239   -1.7677   22.2230 N   0  0  0  0  0  0  0  0  0  0  0  0
    9.9468   -4.5953   20.1709 C   0  0  0  0  0  0  0  0  0  0  0  0
   10.0366   -3.0590   23.9864 N   0  0  0  0  0  0  0  0  0  0  0  0
    7.1191   -7.3636   15.7739 C   0  0  0  0  0  0  0  0  0  0  0  0
    5.9612   -8.3203   17.2732 N   0  0  0  0  0  0  0  0  0  0  0  0
    8.5296   -5.9814   17.1841 C   0  0  0  0  0  0  0  0  0  0  0  0
    9.1527   -5.2118   16.2116 C   0  0  0  0  0  0  0  0  0  0  0  0
   10.3364   -3.8368   22.9255 O   0  0  0  0  0  0  0  0  0  0  0  0
    9.6947   -4.8407   18.8534 C   0  0  0  0  0  0  0  0  0  0  0  0
    9.1596    1.7042   24.1381 C   0  0  0  0  0  0  0  0  0  0  0  0
   11.0456   -2.9774   18.2694 N   0  0  0  0  0  0  0  0  0  0  0  0
   10.4788   -3.0457   21.8593 C   0  0  0  0  0  0  0  0  0  0  0  0
    8.8693   -5.8099   18.4657 N   0  0  0  0  0  0  0  0  0  0  0  0
    8.9892   -0.7926   25.4573 C   0  0  0  0  0  0  0  0  0  0  0  0
   10.5677   -3.4462   20.5323 C   0  0  0  0  0  0  0  0  0  0  0  0
  1  8  1  0
  1 12  4  0
  1 14  4  0
  2  3  4  0
  2 18  4  0
  3 20  4  0
  3 22  4  0
  4 11  4  0
  4 21  4  0
  5  9  4  0
  5 16  4  0
  6 15  4  0
  6 16  4  0
  7 22  4  0
  7 26  4  0
  8 10  4  0
  8 25  4  0
  9 15  4  0
  9 17  1  0
 10 21  4  0
 11 25  4  0
 12 23  4  0
 13 20  4  0
 13 26  4  0
 14 19  4  0
 17 18  4  0
 17 24  4  0
 19 23  4  0
 20 24  4  0
 23 26  1  0
M  END
$$$$

 Created by Python create_sdf_string function

 26 30  0  0  0  0  0  0  0  0999 V2000
   10.0084   -1.8019   23.4945 C   0  0  0  0  0  0  0  0  0  0  0  0
   10.0005   -4.2520   16.5631 C   0  0  0  0  0  0  0  0  0  0  0  0
   10.2759   -4.0036   17.8845 C   0  0  0  0  0  0  0  0  0  0  0  0
    8.5652    1.5478   25.3778 N   0  0  0  0  0  0  0  0  0  0  0  0
    6.8048   -7.5457   17.8752 C   0  0  0  0  0  0  0  0  0  0  0  0
    6.1721   -8.2186   15.9886 N   0  0  0  0  0  0  0  0  0  0  0  0
   11.1764   -2.6600   19.5604 C   0  0  0  0  0  0  0  0  0  0  0  0
    9.5491   -0.6380   24.1912 C   0  0  0  0  0  0  0  0  0  0  0  0
    7.5337   -6.9256   16.9519 C   0  0  0  0  0  0  0  0  0  0  0  0
    9.6782    0.5671   23.5143 C   0  0  0  0  0  0  0  0  0  0  0  0
    8.4532    0.3482   26.0821 C   0  0  0  0  0  0  0  0  0  0  0  0
   10.4239   -1.7677   22.2230 N   0  0  0  0  0  0  0  0  0  0  0  0
    9.9468   -4.5953   20.1709 C   0  0  0  0  0  0  0  0  0  0  0  0
   10.0366   -3.0590   23.9864 N   0  0  0  0  0  0  0  0  0  0  0  0
    7.1191   -7.3636   15.7739 C   0  0  0  0  0  0  0  0  0  0  0  0
    5.9612   -8.3203   17.2732 N   0  0  0  0  0  0  0  0  0  0  0  0
    8.5296   -5.9814   17.1841 C   0  0  0  0  0  0  0  0  0  0  0  0
    9.1527   -5.2118   16.2116 C   0  0  0  0  0  0  0  0  0  0  0  0
   10.3364   -3.8368   22.9255 O   0  0  0  0  0  0  0  0  0  0  0  0
    9.6947   -4.8407   18.8534 C   0  0  0  0  0  0  0  0  0  0  0  0
    9.1596    1.7042   24.1381 C   0  0  0  0  0  0  0  0  0  0  0  0
   11.0456   -2.9774   18.2694 N   0  0  0  0  0  0  0  0  0  0  0  0
   10.4788   -3.0457   21.8593 C   0  0  0  0  0  0  0  0  0  0  0  0
    8.8693   -5.8099   18.4657 N   0  0  0  0  0  0  0  0  0  0  0  0
    8.9892   -0.7926   25.4573 C   0  0  0  0  0  0  0  0  0  0  0  0
   10.5677   -3.4462   20.5323 C   0  0  0  0  0  0  0  0  0  0  0  0
  1  8  1  0
  1 12  4  0
  1 14  4  0
  2  3  4  0
  2 18  4  0
  3 20  4  0
  3 22  4  0
  4 11  4  0
  4 21  4  0
  5  9  4  0
  5 16  4  0
  6 15  4  0
  6 16  4  0
  7 22  4  0
  7 26  4  0
  8 10  4  0
  8 25  4  0
  9 15  4  0
  9 17  1  0
 10 21  4  0
 11 25  4  0
 12 23  4  0
 13 20  4  0
 13 26  4  0
 14 19  4  0
 17 18  4  0
 17 24  4  0
 19 23  4  0
 20 24  4  0
 23 26  1  0
M  END
$$$$

 Created by Python create_sdf_string function

 26 30  0  0  0  0  0  0  0  0999 V2000
   10.0084   -1.8019   23.4945 C   0  0  0  0  0  0  0  0  0  0  0  0
   10.0005   -4.2520   16.5631 C   0  0  0  0  0  0  0  0  0  0  0  0
   10.2759   -4.0036   17.8845 C   0  0  0  0  0  0  0  0  0  0  0  0
    8.5652    1.5478   25.3778 N   0  0  0  0  0  0  0  0  0  0  0  0
    6.8048   -7.5457   17.8752 C   0  0  0  0  0  0  0  0  0  0  0  0
    6.1721   -8.2186   15.9886 N   0  0  0  0  0  0  0  0  0  0  0  0
   11.1764   -2.6600   19.5604 C   0  0  0  0  0  0  0  0  0  0  0  0
    9.5491   -0.6380   24.1912 C   0  0  0  0  0  0  0  0  0  0  0  0
    7.5337   -6.9256   16.9519 C   0  0  0  0  0  0  0  0  0  0  0  0
    9.6782    0.5671   23.5143 C   0  0  0  0  0  0  0  0  0  0  0  0
    8.4532    0.3482   26.0821 C   0  0  0  0  0  0  0  0  0  0  0  0
   10.4239   -1.7677   22.2230 N   0  0  0  0  0  0  0  0  0  0  0  0
    9.9468   -4.5953   20.1709 C   0  0  0  0  0  0  0  0  0  0  0  0
   10.0366   -3.0590   23.9864 N   0  0  0  0  0  0  0  0  0  0  0  0
    7.1191   -7.3636   15.7739 C   0  0  0  0  0  0  0  0  0  0  0  0
    5.9612   -8.3203   17.2732 N   0  0  0  0  0  0  0  0  0  0  0  0
    8.5296   -5.9814   17.1841 C   0  0  0  0  0  0  0  0  0  0  0  0
    9.1527   -5.2118   16.2116 C   0  0  0  0  0  0  0  0  0  0  0  0
   10.3364   -3.8368   22.9255 O   0  0  0  0  0  0  0  0  0  0  0  0
    9.6947   -4.8407   18.8534 C   0  0  0  0  0  0  0  0  0  0  0  0
    9.1596    1.7042   24.1381 C   0  0  0  0  0  0  0  0  0  0  0  0
   11.0456   -2.9774   18.2694 N   0  0  0  0  0  0  0  0  0  0  0  0
   10.4788   -3.0457   21.8593 C   0  0  0  0  0  0  0  0  0  0  0  0
    8.8693   -5.8099   18.4657 N   0  0  0  0  0  0  0  0  0  0  0  0
    8.9892   -0.7926   25.4573 C   0  0  0  0  0  0  0  0  0  0  0  0
   10.5677   -3.4462   20.5323 C   0  0  0  0  0  0  0  0  0  0  0  0
  1  8  1  0
  1 12  4  0
  1 14  4  0
  2  3  4  0
  2 18  4  0
  3 20  4  0
  3 22  4  0
  4 11  4  0
  4 21  4  0
  5  9  4  0
  5 16  4  0
  6 15  4  0
  6 16  4  0
  7 22  4  0
  7 26  4  0
  8 10  4  0
  8 25  4  0
  9 15  4  0
  9 17  1  0
 10 21  4  0
 11 25  4  0
 12 23  4  0
 13 20  4  0
 13 26  4  0
 14 19  4  0
 17 18  4  0
 17 24  4  0
 19 23  4  0
 20 24  4  0
 23 26  1  0
M  END
$$$$

 Created by Python create_sdf_string function

 26 30  0  0  0  0  0  0  0  0999 V2000
   10.0084   -1.8019   23.4945 C   0  0  0  0  0  0  0  0  0  0  0  0
   10.0005   -4.2520   16.5631 C   0  0  0  0  0  0  0  0  0  0  0  0
   10.2759   -4.0036   17.8845 C   0  0  0  0  0  0  0  0  0  0  0  0
    8.5652    1.5478   25.3778 N   0  0  0  0  0  0  0  0  0  0  0  0
    6.8048   -7.5457   17.8752 C   0  0  0  0  0  0  0  0  0  0  0  0
    6.1721   -8.2186   15.9886 N   0  0  0  0  0  0  0  0  0  0  0  0
   11.1764   -2.6600   19.5604 C   0  0  0  0  0  0  0  0  0  0  0  0
    9.5491   -0.6380   24.1912 C   0  0  0  0  0  0  0  0  0  0  0  0
    7.5337   -6.9256   16.9519 C   0  0  0  0  0  0  0  0  0  0  0  0
    9.6782    0.5671   23.5143 C   0  0  0  0  0  0  0  0  0  0  0  0
    8.4532    0.3482   26.0821 C   0  0  0  0  0  0  0  0  0  0  0  0
   10.4239   -1.7677   22.2230 N   0  0  0  0  0  0  0  0  0  0  0  0
    9.9468   -4.5953   20.1709 C   0  0  0  0  0  0  0  0  0  0  0  0
   10.0366   -3.0590   23.9864 N   0  0  0  0  0  0  0  0  0  0  0  0
    7.1191   -7.3636   15.7739 C   0  0  0  0  0  0  0  0  0  0  0  0
    5.9612   -8.3203   17.2732 N   0  0  0  0  0  0  0  0  0  0  0  0
    8.5296   -5.9814   17.1841 C   0  0  0  0  0  0  0  0  0  0  0  0
    9.1527   -5.2118   16.2116 C   0  0  0  0  0  0  0  0  0  0  0  0
   10.3364   -3.8368   22.9255 O   0  0  0  0  0  0  0  0  0  0  0  0
    9.6947   -4.8407   18.8534 C   0  0  0  0  0  0  0  0  0  0  0  0
    9.1596    1.7042   24.1381 C   0  0  0  0  0  0  0  0  0  0  0  0
   11.0456   -2.9774   18.2694 N   0  0  0  0  0  0  0  0  0  0  0  0
   10.4788   -3.0457   21.8593 C   0  0  0  0  0  0  0  0  0  0  0  0
    8.8693   -5.8099   18.4657 N   0  0  0  0  0  0  0  0  0  0  0  0
    8.9892   -0.7926   25.4573 C   0  0  0  0  0  0  0  0  0  0  0  0
   10.5677   -3.4462   20.5323 C   0  0  0  0  0  0  0  0  0  0  0  0
  1  8  1  0
  1 12  4  0
  1 14  4  0
  2  3  4  0
  2 18  4  0
  3 20  4  0
  3 22  4  0
  4 11  4  0
  4 21  4  0
  5  9  4  0
  5 16  4  0
  6 15  4  0
  6 16  4  0
  7 22  4  0
  7 26  4  0
  8 10  4  0
  8 25  4  0
  9 15  4  0
  9 17  1  0
 10 21  4  0
 11 25  4  0
 12 23  4  0
 13 20  4  0
 13 26  4  0
 14 19  4  0
 17 18  4  0
 17 24  4  0
 19 23  4  0
 20 24  4  0
 23 26  1  0
M  END
$$$$

 Created by Python create_sdf_string function

 26 30  0  0  0  0  0  0  0  0999 V2000
   10.0084   -1.8019   23.4945 C   0  0  0  0  0  0  0  0  0  0  0  0
   10.0005   -4.2520   16.5631 C   0  0  0  0  0  0  0  0  0  0  0  0
   10.2759   -4.0036   17.8845 C   0  0  0  0  0  0  0  0  0  0  0  0
    8.5652    1.5478   25.3778 N   0  0  0  0  0  0  0  0  0  0  0  0
    6.8048   -7.5457   17.8752 C   0  0  0  0  0  0  0  0  0  0  0  0
    6.1721   -8.2186   15.9886 N   0  0  0  0  0  0  0  0  0  0  0  0
   11.1764   -2.6600   19.5604 C   0  0  0  0  0  0  0  0  0  0  0  0
    9.5491   -0.6380   24.1912 C   0  0  0  0  0  0  0  0  0  0  0  0
    7.5337   -6.9256   16.9519 C   0  0  0  0  0  0  0  0  0  0  0  0
    9.6782    0.5671   23.5143 C   0  0  0  0  0  0  0  0  0  0  0  0
    8.4532    0.3482   26.0821 C   0  0  0  0  0  0  0  0  0  0  0  0
   10.4239   -1.7677   22.2230 N   0  0  0  0  0  0  0  0  0  0  0  0
    9.9468   -4.5953   20.1709 C   0  0  0  0  0  0  0  0  0  0  0  0
   10.0366   -3.0590   23.9864 N   0  0  0  0  0  0  0  0  0  0  0  0
    7.1191   -7.3636   15.7739 C   0  0  0  0  0  0  0  0  0  0  0  0
    5.9612   -8.3203   17.2732 N   0  0  0  0  0  0  0  0  0  0  0  0
    8.5296   -5.9814   17.1841 C   0  0  0  0  0  0  0  0  0  0  0  0
    9.1527   -5.2118   16.2116 C   0  0  0  0  0  0  0  0  0  0  0  0
   10.3364   -3.8368   22.9255 O   0  0  0  0  0  0  0  0  0  0  0  0
    9.6947   -4.8407   18.8534 C   0  0  0  0  0  0  0  0  0  0  0  0
    9.1596    1.7042   24.1381 C   0  0  0  0  0  0  0  0  0  0  0  0
   11.0456   -2.9774   18.2694 N   0  0  0  0  0  0  0  0  0  0  0  0
   10.4788   -3.0457   21.8593 C   0  0  0  0  0  0  0  0  0  0  0  0
    8.8693   -5.8099   18.4657 N   0  0  0  0  0  0  0  0  0  0  0  0
    8.9892   -0.7926   25.4573 C   0  0  0  0  0  0  0  0  0  0  0  0
   10.5677   -3.4462   20.5323 C   0  0  0  0  0  0  0  0  0  0  0  0
  1  8  1  0
  1 12  4  0
  1 14  4  0
  2  3  4  0
  2 18  4  0
  3 20  4  0
  3 22  4  0
  4 11  4  0
  4 21  4  0
  5  9  4  0
  5 16  4  0
  6 15  4  0
  6 16  4  0
  7 22  4  0
  7 26  4  0
  8 10  4  0
  8 25  4  0
  9 15  4  0
  9 17  1  0
 10 21  4  0
 11 25  4  0
 12 23  4  0
 13 20  4  0
 13 26  4  0
 14 19  4  0
 17 18  4  0
 17 24  4  0
 19 23  4  0
 20 24  4  0
 23 26  1  0
M  END
$$$$

 Created by Python create_sdf_string function

 26 30  0  0  0  0  0  0  0  0999 V2000
   10.0084   -1.8019   23.4945 C   0  0  0  0  0  0  0  0  0  0  0  0
   10.0005   -4.2520   16.5631 C   0  0  0  0  0  0  0  0  0  0  0  0
   10.2759   -4.0036   17.8845 C   0  0  0  0  0  0  0  0  0  0  0  0
    8.5652    1.5478   25.3778 N   0  0  0  0  0  0  0  0  0  0  0  0
    6.8048   -7.5457   17.8752 C   0  0  0  0  0  0  0  0  0  0  0  0
    6.1721   -8.2186   15.9886 N   0  0  0  0  0  0  0  0  0  0  0  0
   11.1764   -2.6600   19.5604 C   0  0  0  0  0  0  0  0  0  0  0  0
    9.5491   -0.6380   24.1912 C   0  0  0  0  0  0  0  0  0  0  0  0
    7.5337   -6.9256   16.9519 C   0  0  0  0  0  0  0  0  0  0  0  0
    9.6782    0.5671   23.5143 C   0  0  0  0  0  0  0  0  0  0  0  0
    8.4532    0.3482   26.0821 C   0  0  0  0  0  0  0  0  0  0  0  0
   10.4239   -1.7677   22.2230 N   0  0  0  0  0  0  0  0  0  0  0  0
    9.9468   -4.5953   20.1709 C   0  0  0  0  0  0  0  0  0  0  0  0
   10.0366   -3.0590   23.9864 N   0  0  0  0  0  0  0  0  0  0  0  0
    7.1191   -7.3636   15.7739 C   0  0  0  0  0  0  0  0  0  0  0  0
    5.9612   -8.3203   17.2732 N   0  0  0  0  0  0  0  0  0  0  0  0
    8.5296   -5.9814   17.1841 C   0  0  0  0  0  0  0  0  0  0  0  0
    9.1527   -5.2118   16.2116 C   0  0  0  0  0  0  0  0  0  0  0  0
   10.3364   -3.8368   22.9255 O   0  0  0  0  0  0  0  0  0  0  0  0
    9.6947   -4.8407   18.8534 C   0  0  0  0  0  0  0  0  0  0  0  0
    9.1596    1.7042   24.1381 C   0  0  0  0  0  0  0  0  0  0  0  0
   11.0456   -2.9774   18.2694 N   0  0  0  0  0  0  0  0  0  0  0  0
   10.4788   -3.0457   21.8593 C   0  0  0  0  0  0  0  0  0  0  0  0
    8.8693   -5.8099   18.4657 N   0  0  0  0  0  0  0  0  0  0  0  0
    8.9892   -0.7926   25.4573 C   0  0  0  0  0  0  0  0  0  0  0  0
   10.5677   -3.4462   20.5323 C   0  0  0  0  0  0  0  0  0  0  0  0
  1  8  1  0
  1 12  4  0
  1 14  4  0
  2  3  4  0
  2 18  4  0
  3 20  4  0
  3 22  4  0
  4 11  4  0
  4 21  4  0
  5  9  4  0
  5 16  4  0
  6 15  4  0
  6 16  4  0
  7 22  4  0
  7 26  4  0
  8 10  4  0
  8 25  4  0
  9 15  4  0
  9 17  1  0
 10 21  4  0
 11 25  4  0
 12 23  4  0
 13 20  4  0
 13 26  4  0
 14 19  4  0
 17 18  4  0
 17 24  4  0
 19 23  4  0
 20 24  4  0
 23 26  1  0
M  END
$$$$

 Created by Python create_sdf_string function

 26 30  0  0  0  0  0  0  0  0999 V2000
   10.0084   -1.8019   23.4945 C   0  0  0  0  0  0  0  0  0  0  0  0
   10.0005   -4.2520   16.5631 C   0  0  0  0  0  0  0  0  0  0  0  0
   10.2759   -4.0036   17.8845 C   0  0  0  0  0  0  0  0  0  0  0  0
    8.5652    1.5478   25.3778 N   0  0  0  0  0  0  0  0  0  0  0  0
    6.8048   -7.5457   17.8752 C   0  0  0  0  0  0  0  0  0  0  0  0
    6.1721   -8.2186   15.9886 N   0  0  0  0  0  0  0  0  0  0  0  0
   11.1764   -2.6600   19.5604 C   0  0  0  0  0  0  0  0  0  0  0  0
    9.5491   -0.6380   24.1912 C   0  0  0  0  0  0  0  0  0  0  0  0
    7.5337   -6.9256   16.9519 C   0  0  0  0  0  0  0  0  0  0  0  0
    9.6782    0.5671   23.5143 C   0  0  0  0  0  0  0  0  0  0  0  0
    8.4532    0.3482   26.0821 C   0  0  0  0  0  0  0  0  0  0  0  0
   10.4239   -1.7677   22.2230 N   0  0  0  0  0  0  0  0  0  0  0  0
    9.9468   -4.5953   20.1709 C   0  0  0  0  0  0  0  0  0  0  0  0
   10.0366   -3.0590   23.9864 N   0  0  0  0  0  0  0  0  0  0  0  0
    7.1191   -7.3636   15.7739 C   0  0  0  0  0  0  0  0  0  0  0  0
    5.9612   -8.3203   17.2732 N   0  0  0  0  0  0  0  0  0  0  0  0
    8.5296   -5.9814   17.1841 C   0  0  0  0  0  0  0  0  0  0  0  0
    9.1527   -5.2118   16.2116 C   0  0  0  0  0  0  0  0  0  0  0  0
   10.3364   -3.8368   22.9255 O   0  0  0  0  0  0  0  0  0  0  0  0
    9.6947   -4.8407   18.8534 C   0  0  0  0  0  0  0  0  0  0  0  0
    9.1596    1.7042   24.1381 C   0  0  0  0  0  0  0  0  0  0  0  0
   11.0456   -2.9774   18.2694 N   0  0  0  0  0  0  0  0  0  0  0  0
   10.4788   -3.0457   21.8593 C   0  0  0  0  0  0  0  0  0  0  0  0
    8.8693   -5.8099   18.4657 N   0  0  0  0  0  0  0  0  0  0  0  0
    8.9892   -0.7926   25.4573 C   0  0  0  0  0  0  0  0  0  0  0  0
   10.5677   -3.4462   20.5323 C   0  0  0  0  0  0  0  0  0  0  0  0
  1  8  1  0
  1 12  4  0
  1 14  4  0
  2  3  4  0
  2 18  4  0
  3 20  4  0
  3 22  4  0
  4 11  4  0
  4 21  4  0
  5  9  4  0
  5 16  4  0
  6 15  4  0
  6 16  4  0
  7 22  4  0
  7 26  4  0
  8 10  4  0
  8 25  4  0
  9 15  4  0
  9 17  1  0
 10 21  4  0
 11 25  4  0
 12 23  4  0
 13 20  4  0
 13 26  4  0
 14 19  4  0
 17 18  4  0
 17 24  4  0
 19 23  4  0
 20 24  4  0
 23 26  1  0
M  END
$$$$

 Created by Python create_sdf_string function

 26 30  0  0  0  0  0  0  0  0999 V2000
   10.0084   -1.8019   23.4945 C   0  0  0  0  0  0  0  0  0  0  0  0
   10.0005   -4.2520   16.5631 C   0  0  0  0  0  0  0  0  0  0  0  0
   10.2759   -4.0036   17.8845 C   0  0  0  0  0  0  0  0  0  0  0  0
    8.5652    1.5478   25.3778 N   0  0  0  0  0  0  0  0  0  0  0  0
    6.8048   -7.5457   17.8752 C   0  0  0  0  0  0  0  0  0  0  0  0
    6.1721   -8.2186   15.9886 N   0  0  0  0  0  0  0  0  0  0  0  0
   11.1764   -2.6600   19.5604 C   0  0  0  0  0  0  0  0  0  0  0  0
    9.5491   -0.6380   24.1912 C   0  0  0  0  0  0  0  0  0  0  0  0
    7.5337   -6.9256   16.9519 C   0  0  0  0  0  0  0  0  0  0  0  0
    9.6782    0.5671   23.5143 C   0  0  0  0  0  0  0  0  0  0  0  0
    8.4532    0.3482   26.0821 C   0  0  0  0  0  0  0  0  0  0  0  0
   10.4239   -1.7677   22.2230 N   0  0  0  0  0  0  0  0  0  0  0  0
    9.9468   -4.5953   20.1709 C   0  0  0  0  0  0  0  0  0  0  0  0
   10.0366   -3.0590   23.9864 N   0  0  0  0  0  0  0  0  0  0  0  0
    7.1191   -7.3636   15.7739 C   0  0  0  0  0  0  0  0  0  0  0  0
    5.9612   -8.3203   17.2732 N   0  0  0  0  0  0  0  0  0  0  0  0
    8.5296   -5.9814   17.1841 C   0  0  0  0  0  0  0  0  0  0  0  0
    9.1527   -5.2118   16.2116 C   0  0  0  0  0  0  0  0  0  0  0  0
   10.3364   -3.8368   22.9255 O   0  0  0  0  0  0  0  0  0  0  0  0
    9.6947   -4.8407   18.8534 C   0  0  0  0  0  0  0  0  0  0  0  0
    9.1596    1.7042   24.1381 C   0  0  0  0  0  0  0  0  0  0  0  0
   11.0456   -2.9774   18.2694 N   0  0  0  0  0  0  0  0  0  0  0  0
   10.4788   -3.0457   21.8593 C   0  0  0  0  0  0  0  0  0  0  0  0
    8.8693   -5.8099   18.4657 N   0  0  0  0  0  0  0  0  0  0  0  0
    8.9892   -0.7926   25.4573 C   0  0  0  0  0  0  0  0  0  0  0  0
   10.5677   -3.4462   20.5323 C   0  0  0  0  0  0  0  0  0  0  0  0
  1  8  1  0
  1 12  4  0
  1 14  4  0
  2  3  4  0
  2 18  4  0
  3 20  4  0
  3 22  4  0
  4 11  4  0
  4 21  4  0
  5  9  4  0
  5 16  4  0
  6 15  4  0
  6 16  4  0
  7 22  4  0
  7 26  4  0
  8 10  4  0
  8 25  4  0
  9 15  4  0
  9 17  1  0
 10 21  4  0
 11 25  4  0
 12 23  4  0
 13 20  4  0
 13 26  4  0
 14 19  4  0
 17 18  4  0
 17 24  4  0
 19 23  4  0
 20 24  4  0
 23 26  1  0
M  END
$$$$

 Created by Python create_sdf_string function

 26 30  0  0  0  0  0  0  0  0999 V2000
   10.0084   -1.8019   23.4945 C   0  0  0  0  0  0  0  0  0  0  0  0
   10.0005   -4.2520   16.5631 C   0  0  0  0  0  0  0  0  0  0  0  0
   10.2759   -4.0036   17.8845 C   0  0  0  0  0  0  0  0  0  0  0  0
    8.5652    1.5478   25.3778 N   0  0  0  0  0  0  0  0  0  0  0  0
    6.8048   -7.5457   17.8752 C   0  0  0  0  0  0  0  0  0  0  0  0
    6.1721   -8.2186   15.9886 N   0  0  0  0  0  0  0  0  0  0  0  0
   11.1764   -2.6600   19.5604 C   0  0  0  0  0  0  0  0  0  0  0  0
    9.5491   -0.6380   24.1912 C   0  0  0  0  0  0  0  0  0  0  0  0
    7.5337   -6.9256   16.9519 C   0  0  0  0  0  0  0  0  0  0  0  0
    9.6782    0.5671   23.5143 C   0  0  0  0  0  0  0  0  0  0  0  0
    8.4532    0.3482   26.0821 C   0  0  0  0  0  0  0  0  0  0  0  0
   10.4239   -1.7677   22.2230 N   0  0  0  0  0  0  0  0  0  0  0  0
    9.9468   -4.5953   20.1709 C   0  0  0  0  0  0  0  0  0  0  0  0
   10.0366   -3.0590   23.9864 N   0  0  0  0  0  0  0  0  0  0  0  0
    7.1191   -7.3636   15.7739 C   0  0  0  0  0  0  0  0  0  0  0  0
    5.9612   -8.3203   17.2732 N   0  0  0  0  0  0  0  0  0  0  0  0
    8.5296   -5.9814   17.1841 C   0  0  0  0  0  0  0  0  0  0  0  0
    9.1527   -5.2118   16.2116 C   0  0  0  0  0  0  0  0  0  0  0  0
   10.3364   -3.8368   22.9255 O   0  0  0  0  0  0  0  0  0  0  0  0
    9.6947   -4.8407   18.8534 C   0  0  0  0  0  0  0  0  0  0  0  0
    9.1596    1.7042   24.1381 C   0  0  0  0  0  0  0  0  0  0  0  0
   11.0456   -2.9774   18.2694 N   0  0  0  0  0  0  0  0  0  0  0  0
   10.4788   -3.0457   21.8593 C   0  0  0  0  0  0  0  0  0  0  0  0
    8.8693   -5.8099   18.4657 N   0  0  0  0  0  0  0  0  0  0  0  0
    8.9892   -0.7926   25.4573 C   0  0  0  0  0  0  0  0  0  0  0  0
   10.5677   -3.4462   20.5323 C   0  0  0  0  0  0  0  0  0  0  0  0
  1  8  1  0
  1 12  4  0
  1 14  4  0
  2  3  4  0
  2 18  4  0
  3 20  4  0
  3 22  4  0
  4 11  4  0
  4 21  4  0
  5  9  4  0
  5 16  4  0
  6 15  4  0
  6 16  4  0
  7 22  4  0
  7 26  4  0
  8 10  4  0
  8 25  4  0
  9 15  4  0
  9 17  1  0
 10 21  4  0
 11 25  4  0
 12 23  4  0
 13 20  4  0
 13 26  4  0
 14 19  4  0
 17 18  4  0
 17 24  4  0
 19 23  4  0
 20 24  4  0
 23 26  1  0
M  END
$$$$

 Created by Python create_sdf_string function

 26 30  0  0  0  0  0  0  0  0999 V2000
   10.0084   -1.8019   23.4945 C   0  0  0  0  0  0  0  0  0  0  0  0
   10.0005   -4.2520   16.5631 C   0  0  0  0  0  0  0  0  0  0  0  0
   10.2759   -4.0036   17.8845 C   0  0  0  0  0  0  0  0  0  0  0  0
    8.5652    1.5478   25.3778 N   0  0  0  0  0  0  0  0  0  0  0  0
    6.8048   -7.5457   17.8752 C   0  0  0  0  0  0  0  0  0  0  0  0
    6.1721   -8.2186   15.9886 N   0  0  0  0  0  0  0  0  0  0  0  0
   11.1764   -2.6600   19.5604 C   0  0  0  0  0  0  0  0  0  0  0  0
    9.5491   -0.6380   24.1912 C   0  0  0  0  0  0  0  0  0  0  0  0
    7.5337   -6.9256   16.9519 C   0  0  0  0  0  0  0  0  0  0  0  0
    9.6782    0.5671   23.5143 C   0  0  0  0  0  0  0  0  0  0  0  0
    8.4532    0.3482   26.0821 C   0  0  0  0  0  0  0  0  0  0  0  0
   10.4239   -1.7677   22.2230 N   0  0  0  0  0  0  0  0  0  0  0  0
    9.9468   -4.5953   20.1709 C   0  0  0  0  0  0  0  0  0  0  0  0
   10.0366   -3.0590   23.9864 N   0  0  0  0  0  0  0  0  0  0  0  0
    7.1191   -7.3636   15.7739 C   0  0  0  0  0  0  0  0  0  0  0  0
    5.9612   -8.3203   17.2732 N   0  0  0  0  0  0  0  0  0  0  0  0
    8.5296   -5.9814   17.1841 C   0  0  0  0  0  0  0  0  0  0  0  0
    9.1527   -5.2118   16.2116 C   0  0  0  0  0  0  0  0  0  0  0  0
   10.3364   -3.8368   22.9255 O   0  0  0  0  0  0  0  0  0  0  0  0
    9.6947   -4.8407   18.8534 C   0  0  0  0  0  0  0  0  0  0  0  0
    9.1596    1.7042   24.1381 C   0  0  0  0  0  0  0  0  0  0  0  0
   11.0456   -2.9774   18.2694 N   0  0  0  0  0  0  0  0  0  0  0  0
   10.4788   -3.0457   21.8593 C   0  0  0  0  0  0  0  0  0  0  0  0
    8.8693   -5.8099   18.4657 N   0  0  0  0  0  0  0  0  0  0  0  0
    8.9892   -0.7926   25.4573 C   0  0  0  0  0  0  0  0  0  0  0  0
   10.5677   -3.4462   20.5323 C   0  0  0  0  0  0  0  0  0  0  0  0
  1  8  1  0
  1 12  4  0
  1 14  4  0
  2  3  4  0
  2 18  4  0
  3 20  4  0
  3 22  4  0
  4 11  4  0
  4 21  4  0
  5  9  4  0
  5 16  4  0
  6 15  4  0
  6 16  4  0
  7 22  4  0
  7 26  4  0
  8 10  4  0
  8 25  4  0
  9 15  4  0
  9 17  1  0
 10 21  4  0
 11 25  4  0
 12 23  4  0
 13 20  4  0
 13 26  4  0
 14 19  4  0
 17 18  4  0
 17 24  4  0
 19 23  4  0
 20 24  4  0
 23 26  1  0
M  END
$$$$

 Created by Python create_sdf_string function

 26 30  0  0  0  0  0  0  0  0999 V2000
   10.0084   -1.8019   23.4945 C   0  0  0  0  0  0  0  0  0  0  0  0
   10.0005   -4.2520   16.5631 C   0  0  0  0  0  0  0  0  0  0  0  0
   10.2759   -4.0036   17.8845 C   0  0  0  0  0  0  0  0  0  0  0  0
    8.5652    1.5478   25.3778 N   0  0  0  0  0  0  0  0  0  0  0  0
    6.8048   -7.5457   17.8752 C   0  0  0  0  0  0  0  0  0  0  0  0
    6.1721   -8.2186   15.9886 N   0  0  0  0  0  0  0  0  0  0  0  0
   11.1764   -2.6600   19.5604 C   0  0  0  0  0  0  0  0  0  0  0  0
    9.5491   -0.6380   24.1912 C   0  0  0  0  0  0  0  0  0  0  0  0
    7.5337   -6.9256   16.9519 C   0  0  0  0  0  0  0  0  0  0  0  0
    9.6782    0.5671   23.5143 C   0  0  0  0  0  0  0  0  0  0  0  0
    8.4532    0.3482   26.0821 C   0  0  0  0  0  0  0  0  0  0  0  0
   10.4239   -1.7677   22.2230 N   0  0  0  0  0  0  0  0  0  0  0  0
    9.9468   -4.5953   20.1709 C   0  0  0  0  0  0  0  0  0  0  0  0
   10.0366   -3.0590   23.9864 N   0  0  0  0  0  0  0  0  0  0  0  0
    7.1191   -7.3636   15.7739 C   0  0  0  0  0  0  0  0  0  0  0  0
    5.9612   -8.3203   17.2732 N   0  0  0  0  0  0  0  0  0  0  0  0
    8.5296   -5.9814   17.1841 C   0  0  0  0  0  0  0  0  0  0  0  0
    9.1527   -5.2118   16.2116 C   0  0  0  0  0  0  0  0  0  0  0  0
   10.3364   -3.8368   22.9255 O   0  0  0  0  0  0  0  0  0  0  0  0
    9.6947   -4.8407   18.8534 C   0  0  0  0  0  0  0  0  0  0  0  0
    9.1596    1.7042   24.1381 C   0  0  0  0  0  0  0  0  0  0  0  0
   11.0456   -2.9774   18.2694 N   0  0  0  0  0  0  0  0  0  0  0  0
   10.4788   -3.0457   21.8593 C   0  0  0  0  0  0  0  0  0  0  0  0
    8.8693   -5.8099   18.4657 N   0  0  0  0  0  0  0  0  0  0  0  0
    8.9892   -0.7926   25.4573 C   0  0  0  0  0  0  0  0  0  0  0  0
   10.5677   -3.4462   20.5323 C   0  0  0  0  0  0  0  0  0  0  0  0
  1  8  1  0
  1 12  4  0
  1 14  4  0
  2  3  4  0
  2 18  4  0
  3 20  4  0
  3 22  4  0
  4 11  4  0
  4 21  4  0
  5  9  4  0
  5 16  4  0
  6 15  4  0
  6 16  4  0
  7 22  4  0
  7 26  4  0
  8 10  4  0
  8 25  4  0
  9 15  4  0
  9 17  1  0
 10 21  4  0
 11 25  4  0
 12 23  4  0
 13 20  4  0
 13 26  4  0
 14 19  4  0
 17 18  4  0
 17 24  4  0
 19 23  4  0
 20 24  4  0
 23 26  1  0
M  END
$$$$

 Created by Python create_sdf_string function

 26 30  0  0  0  0  0  0  0  0999 V2000
   10.0084   -1.8019   23.4945 C   0  0  0  0  0  0  0  0  0  0  0  0
   10.0005   -4.2520   16.5631 C   0  0  0  0  0  0  0  0  0  0  0  0
   10.2759   -4.0036   17.8845 C   0  0  0  0  0  0  0  0  0  0  0  0
    8.5652    1.5478   25.3778 N   0  0  0  0  0  0  0  0  0  0  0  0
    6.8048   -7.5457   17.8752 C   0  0  0  0  0  0  0  0  0  0  0  0
    6.1721   -8.2186   15.9886 N   0  0  0  0  0  0  0  0  0  0  0  0
   11.1764   -2.6600   19.5604 C   0  0  0  0  0  0  0  0  0  0  0  0
    9.5491   -0.6380   24.1912 C   0  0  0  0  0  0  0  0  0  0  0  0
    7.5337   -6.9256   16.9519 C   0  0  0  0  0  0  0  0  0  0  0  0
    9.6782    0.5671   23.5143 C   0  0  0  0  0  0  0  0  0  0  0  0
    8.4532    0.3482   26.0821 C   0  0  0  0  0  0  0  0  0  0  0  0
   10.4239   -1.7677   22.2230 N   0  0  0  0  0  0  0  0  0  0  0  0
    9.9468   -4.5953   20.1709 C   0  0  0  0  0  0  0  0  0  0  0  0
   10.0366   -3.0590   23.9864 N   0  0  0  0  0  0  0  0  0  0  0  0
    7.1191   -7.3636   15.7739 C   0  0  0  0  0  0  0  0  0  0  0  0
    5.9612   -8.3203   17.2732 N   0  0  0  0  0  0  0  0  0  0  0  0
    8.5296   -5.9814   17.1841 C   0  0  0  0  0  0  0  0  0  0  0  0
    9.1527   -5.2118   16.2116 C   0  0  0  0  0  0  0  0  0  0  0  0
   10.3364   -3.8368   22.9255 O   0  0  0  0  0  0  0  0  0  0  0  0
    9.6947   -4.8407   18.8534 C   0  0  0  0  0  0  0  0  0  0  0  0
    9.1596    1.7042   24.1381 C   0  0  0  0  0  0  0  0  0  0  0  0
   11.0456   -2.9774   18.2694 N   0  0  0  0  0  0  0  0  0  0  0  0
   10.4788   -3.0457   21.8593 C   0  0  0  0  0  0  0  0  0  0  0  0
    8.8693   -5.8099   18.4657 N   0  0  0  0  0  0  0  0  0  0  0  0
    8.9892   -0.7926   25.4573 C   0  0  0  0  0  0  0  0  0  0  0  0
   10.5677   -3.4462   20.5323 C   0  0  0  0  0  0  0  0  0  0  0  0
  1  8  1  0
  1 12  4  0
  1 14  4  0
  2  3  4  0
  2 18  4  0
  3 20  4  0
  3 22  4  0
  4 11  4  0
  4 21  4  0
  5  9  4  0
  5 16  4  0
  6 15  4  0
  6 16  4  0
  7 22  4  0
  7 26  4  0
  8 10  4  0
  8 25  4  0
  9 15  4  0
  9 17  1  0
 10 21  4  0
 11 25  4  0
 12 23  4  0
 13 20  4  0
 13 26  4  0
 14 19  4  0
 17 18  4  0
 17 24  4  0
 19 23  4  0
 20 24  4  0
 23 26  1  0
M  END
$$$$

 Created by Python create_sdf_string function

 26 30  0  0  0  0  0  0  0  0999 V2000
   10.0084   -1.8019   23.4945 C   0  0  0  0  0  0  0  0  0  0  0  0
   10.0005   -4.2520   16.5631 C   0  0  0  0  0  0  0  0  0  0  0  0
   10.2759   -4.0036   17.8845 C   0  0  0  0  0  0  0  0  0  0  0  0
    8.5652    1.5478   25.3778 N   0  0  0  0  0  0  0  0  0  0  0  0
    6.8048   -7.5457   17.8752 C   0  0  0  0  0  0  0  0  0  0  0  0
    6.1721   -8.2186   15.9886 N   0  0  0  0  0  0  0  0  0  0  0  0
   11.1764   -2.6600   19.5604 C   0  0  0  0  0  0  0  0  0  0  0  0
    9.5491   -0.6380   24.1912 C   0  0  0  0  0  0  0  0  0  0  0  0
    7.5337   -6.9256   16.9519 C   0  0  0  0  0  0  0  0  0  0  0  0
    9.6782    0.5671   23.5143 C   0  0  0  0  0  0  0  0  0  0  0  0
    8.4532    0.3482   26.0821 C   0  0  0  0  0  0  0  0  0  0  0  0
   10.4239   -1.7677   22.2230 N   0  0  0  0  0  0  0  0  0  0  0  0
    9.9468   -4.5953   20.1709 C   0  0  0  0  0  0  0  0  0  0  0  0
   10.0366   -3.0590   23.9864 N   0  0  0  0  0  0  0  0  0  0  0  0
    7.1191   -7.3636   15.7739 C   0  0  0  0  0  0  0  0  0  0  0  0
    5.9612   -8.3203   17.2732 N   0  0  0  0  0  0  0  0  0  0  0  0
    8.5296   -5.9814   17.1841 C   0  0  0  0  0  0  0  0  0  0  0  0
    9.1527   -5.2118   16.2116 C   0  0  0  0  0  0  0  0  0  0  0  0
   10.3364   -3.8368   22.9255 O   0  0  0  0  0  0  0  0  0  0  0  0
    9.6947   -4.8407   18.8534 C   0  0  0  0  0  0  0  0  0  0  0  0
    9.1596    1.7042   24.1381 C   0  0  0  0  0  0  0  0  0  0  0  0
   11.0456   -2.9774   18.2694 N   0  0  0  0  0  0  0  0  0  0  0  0
   10.4788   -3.0457   21.8593 C   0  0  0  0  0  0  0  0  0  0  0  0
    8.8693   -5.8099   18.4657 N   0  0  0  0  0  0  0  0  0  0  0  0
    8.9892   -0.7926   25.4573 C   0  0  0  0  0  0  0  0  0  0  0  0
   10.5677   -3.4462   20.5323 C   0  0  0  0  0  0  0  0  0  0  0  0
  1  8  1  0
  1 12  4  0
  1 14  4  0
  2  3  4  0
  2 18  4  0
  3 20  4  0
  3 22  4  0
  4 11  4  0
  4 21  4  0
  5  9  4  0
  5 16  4  0
  6 15  4  0
  6 16  4  0
  7 22  4  0
  7 26  4  0
  8 10  4  0
  8 25  4  0
  9 15  4  0
  9 17  1  0
 10 21  4  0
 11 25  4  0
 12 23  4  0
 13 20  4  0
 13 26  4  0
 14 19  4  0
 17 18  4  0
 17 24  4  0
 19 23  4  0
 20 24  4  0
 23 26  1  0
M  END
$$$$

 Created by Python create_sdf_string function

 26 30  0  0  0  0  0  0  0  0999 V2000
   10.0084   -1.8019   23.4945 C   0  0  0  0  0  0  0  0  0  0  0  0
   10.0005   -4.2520   16.5631 C   0  0  0  0  0  0  0  0  0  0  0  0
   10.2759   -4.0036   17.8845 C   0  0  0  0  0  0  0  0  0  0  0  0
    8.5652    1.5478   25.3778 N   0  0  0  0  0  0  0  0  0  0  0  0
    6.8048   -7.5457   17.8752 C   0  0  0  0  0  0  0  0  0  0  0  0
    6.1721   -8.2186   15.9886 N   0  0  0  0  0  0  0  0  0  0  0  0
   11.1764   -2.6600   19.5604 C   0  0  0  0  0  0  0  0  0  0  0  0
    9.5491   -0.6380   24.1912 C   0  0  0  0  0  0  0  0  0  0  0  0
    7.5337   -6.9256   16.9519 C   0  0  0  0  0  0  0  0  0  0  0  0
    9.6782    0.5671   23.5143 C   0  0  0  0  0  0  0  0  0  0  0  0
    8.4532    0.3482   26.0821 C   0  0  0  0  0  0  0  0  0  0  0  0
   10.4239   -1.7677   22.2230 N   0  0  0  0  0  0  0  0  0  0  0  0
    9.9468   -4.5953   20.1709 C   0  0  0  0  0  0  0  0  0  0  0  0
   10.0366   -3.0590   23.9864 N   0  0  0  0  0  0  0  0  0  0  0  0
    7.1191   -7.3636   15.7739 C   0  0  0  0  0  0  0  0  0  0  0  0
    5.9612   -8.3203   17.2732 N   0  0  0  0  0  0  0  0  0  0  0  0
    8.5296   -5.9814   17.1841 C   0  0  0  0  0  0  0  0  0  0  0  0
    9.1527   -5.2118   16.2116 C   0  0  0  0  0  0  0  0  0  0  0  0
   10.3364   -3.8368   22.9255 O   0  0  0  0  0  0  0  0  0  0  0  0
    9.6947   -4.8407   18.8534 C   0  0  0  0  0  0  0  0  0  0  0  0
    9.1596    1.7042   24.1381 C   0  0  0  0  0  0  0  0  0  0  0  0
   11.0456   -2.9774   18.2694 N   0  0  0  0  0  0  0  0  0  0  0  0
   10.4788   -3.0457   21.8593 C   0  0  0  0  0  0  0  0  0  0  0  0
    8.8693   -5.8099   18.4657 N   0  0  0  0  0  0  0  0  0  0  0  0
    8.9892   -0.7926   25.4573 C   0  0  0  0  0  0  0  0  0  0  0  0
   10.5677   -3.4462   20.5323 C   0  0  0  0  0  0  0  0  0  0  0  0
  1  8  1  0
  1 12  4  0
  1 14  4  0
  2  3  4  0
  2 18  4  0
  3 20  4  0
  3 22  4  0
  4 11  4  0
  4 21  4  0
  5  9  4  0
  5 16  4  0
  6 15  4  0
  6 16  4  0
  7 22  4  0
  7 26  4  0
  8 10  4  0
  8 25  4  0
  9 15  4  0
  9 17  1  0
 10 21  4  0
 11 25  4  0
 12 23  4  0
 13 20  4  0
 13 26  4  0
 14 19  4  0
 17 18  4  0
 17 24  4  0
 19 23  4  0
 20 24  4  0
 23 26  1  0
M  END
$$$$

 Created by Python create_sdf_string function

 26 30  0  0  0  0  0  0  0  0999 V2000
   10.0084   -1.8019   23.4945 C   0  0  0  0  0  0  0  0  0  0  0  0
   10.0005   -4.2520   16.5631 C   0  0  0  0  0  0  0  0  0  0  0  0
   10.2759   -4.0036   17.8845 C   0  0  0  0  0  0  0  0  0  0  0  0
    8.5652    1.5478   25.3778 N   0  0  0  0  0  0  0  0  0  0  0  0
    6.8048   -7.5457   17.8752 C   0  0  0  0  0  0  0  0  0  0  0  0
    6.1721   -8.2186   15.9886 N   0  0  0  0  0  0  0  0  0  0  0  0
   11.1764   -2.6600   19.5604 C   0  0  0  0  0  0  0  0  0  0  0  0
    9.5491   -0.6380   24.1912 C   0  0  0  0  0  0  0  0  0  0  0  0
    7.5337   -6.9256   16.9519 C   0  0  0  0  0  0  0  0  0  0  0  0
    9.6782    0.5671   23.5143 C   0  0  0  0  0  0  0  0  0  0  0  0
    8.4532    0.3482   26.0821 C   0  0  0  0  0  0  0  0  0  0  0  0
   10.4239   -1.7677   22.2230 N   0  0  0  0  0  0  0  0  0  0  0  0
    9.9468   -4.5953   20.1709 C   0  0  0  0  0  0  0  0  0  0  0  0
   10.0366   -3.0590   23.9864 N   0  0  0  0  0  0  0  0  0  0  0  0
    7.1191   -7.3636   15.7739 C   0  0  0  0  0  0  0  0  0  0  0  0
    5.9612   -8.3203   17.2732 N   0  0  0  0  0  0  0  0  0  0  0  0
    8.5296   -5.9814   17.1841 C   0  0  0  0  0  0  0  0  0  0  0  0
    9.1527   -5.2118   16.2116 C   0  0  0  0  0  0  0  0  0  0  0  0
   10.3364   -3.8368   22.9255 O   0  0  0  0  0  0  0  0  0  0  0  0
    9.6947   -4.8407   18.8534 C   0  0  0  0  0  0  0  0  0  0  0  0
    9.1596    1.7042   24.1381 C   0  0  0  0  0  0  0  0  0  0  0  0
   11.0456   -2.9774   18.2694 N   0  0  0  0  0  0  0  0  0  0  0  0
   10.4788   -3.0457   21.8593 C   0  0  0  0  0  0  0  0  0  0  0  0
    8.8693   -5.8099   18.4657 N   0  0  0  0  0  0  0  0  0  0  0  0
    8.9892   -0.7926   25.4573 C   0  0  0  0  0  0  0  0  0  0  0  0
   10.5677   -3.4462   20.5323 C   0  0  0  0  0  0  0  0  0  0  0  0
  1  8  1  0
  1 12  4  0
  1 14  4  0
  2  3  4  0
  2 18  4  0
  3 20  4  0
  3 22  4  0
  4 11  4  0
  4 21  4  0
  5  9  4  0
  5 16  4  0
  6 15  4  0
  6 16  4  0
  7 22  4  0
  7 26  4  0
  8 10  4  0
  8 25  4  0
  9 15  4  0
  9 17  1  0
 10 21  4  0
 11 25  4  0
 12 23  4  0
 13 20  4  0
 13 26  4  0
 14 19  4  0
 17 18  4  0
 17 24  4  0
 19 23  4  0
 20 24  4  0
 23 26  1  0
M  END
$$$$

 Created by Python create_sdf_string function

 26 30  0  0  0  0  0  0  0  0999 V2000
   10.0084   -1.8019   23.4945 C   0  0  0  0  0  0  0  0  0  0  0  0
   10.0005   -4.2520   16.5631 C   0  0  0  0  0  0  0  0  0  0  0  0
   10.2759   -4.0036   17.8845 C   0  0  0  0  0  0  0  0  0  0  0  0
    8.5652    1.5478   25.3778 N   0  0  0  0  0  0  0  0  0  0  0  0
    6.8048   -7.5457   17.8752 C   0  0  0  0  0  0  0  0  0  0  0  0
    6.1721   -8.2186   15.9886 N   0  0  0  0  0  0  0  0  0  0  0  0
   11.1764   -2.6600   19.5604 C   0  0  0  0  0  0  0  0  0  0  0  0
    9.5491   -0.6380   24.1912 C   0  0  0  0  0  0  0  0  0  0  0  0
    7.5337   -6.9256   16.9519 C   0  0  0  0  0  0  0  0  0  0  0  0
    9.6782    0.5671   23.5143 C   0  0  0  0  0  0  0  0  0  0  0  0
    8.4532    0.3482   26.0821 C   0  0  0  0  0  0  0  0  0  0  0  0
   10.4239   -1.7677   22.2230 N   0  0  0  0  0  0  0  0  0  0  0  0
    9.9468   -4.5953   20.1709 C   0  0  0  0  0  0  0  0  0  0  0  0
   10.0366   -3.0590   23.9864 N   0  0  0  0  0  0  0  0  0  0  0  0
    7.1191   -7.3636   15.7739 C   0  0  0  0  0  0  0  0  0  0  0  0
    5.9612   -8.3203   17.2732 N   0  0  0  0  0  0  0  0  0  0  0  0
    8.5296   -5.9814   17.1841 C   0  0  0  0  0  0  0  0  0  0  0  0
    9.1527   -5.2118   16.2116 C   0  0  0  0  0  0  0  0  0  0  0  0
   10.3364   -3.8368   22.9255 O   0  0  0  0  0  0  0  0  0  0  0  0
    9.6947   -4.8407   18.8534 C   0  0  0  0  0  0  0  0  0  0  0  0
    9.1596    1.7042   24.1381 C   0  0  0  0  0  0  0  0  0  0  0  0
   11.0456   -2.9774   18.2694 N   0  0  0  0  0  0  0  0  0  0  0  0
   10.4788   -3.0457   21.8593 C   0  0  0  0  0  0  0  0  0  0  0  0
    8.8693   -5.8099   18.4657 N   0  0  0  0  0  0  0  0  0  0  0  0
    8.9892   -0.7926   25.4573 C   0  0  0  0  0  0  0  0  0  0  0  0
   10.5677   -3.4462   20.5323 C   0  0  0  0  0  0  0  0  0  0  0  0
  1  8  1  0
  1 12  4  0
  1 14  4  0
  2  3  4  0
  2 18  4  0
  3 20  4  0
  3 22  4  0
  4 11  4  0
  4 21  4  0
  5  9  4  0
  5 16  4  0
  6 15  4  0
  6 16  4  0
  7 22  4  0
  7 26  4  0
  8 10  4  0
  8 25  4  0
  9 15  4  0
  9 17  1  0
 10 21  4  0
 11 25  4  0
 12 23  4  0
 13 20  4  0
 13 26  4  0
 14 19  4  0
 17 18  4  0
 17 24  4  0
 19 23  4  0
 20 24  4  0
 23 26  1  0
M  END
$$$$

 Created by Python create_sdf_string function

 26 30  0  0  0  0  0  0  0  0999 V2000
   10.0084   -1.8019   23.4945 C   0  0  0  0  0  0  0  0  0  0  0  0
   10.0005   -4.2520   16.5631 C   0  0  0  0  0  0  0  0  0  0  0  0
   10.2759   -4.0036   17.8845 C   0  0  0  0  0  0  0  0  0  0  0  0
    8.5652    1.5478   25.3778 N   0  0  0  0  0  0  0  0  0  0  0  0
    6.8048   -7.5457   17.8752 C   0  0  0  0  0  0  0  0  0  0  0  0
    6.1721   -8.2186   15.9886 N   0  0  0  0  0  0  0  0  0  0  0  0
   11.1764   -2.6600   19.5604 C   0  0  0  0  0  0  0  0  0  0  0  0
    9.5491   -0.6380   24.1912 C   0  0  0  0  0  0  0  0  0  0  0  0
    7.5337   -6.9256   16.9519 C   0  0  0  0  0  0  0  0  0  0  0  0
    9.6782    0.5671   23.5143 C   0  0  0  0  0  0  0  0  0  0  0  0
    8.4532    0.3482   26.0821 C   0  0  0  0  0  0  0  0  0  0  0  0
   10.4239   -1.7677   22.2230 N   0  0  0  0  0  0  0  0  0  0  0  0
    9.9468   -4.5953   20.1709 C   0  0  0  0  0  0  0  0  0  0  0  0
   10.0366   -3.0590   23.9864 N   0  0  0  0  0  0  0  0  0  0  0  0
    7.1191   -7.3636   15.7739 C   0  0  0  0  0  0  0  0  0  0  0  0
    5.9612   -8.3203   17.2732 N   0  0  0  0  0  0  0  0  0  0  0  0
    8.5296   -5.9814   17.1841 C   0  0  0  0  0  0  0  0  0  0  0  0
    9.1527   -5.2118   16.2116 C   0  0  0  0  0  0  0  0  0  0  0  0
   10.3364   -3.8368   22.9255 O   0  0  0  0  0  0  0  0  0  0  0  0
    9.6947   -4.8407   18.8534 C   0  0  0  0  0  0  0  0  0  0  0  0
    9.1596    1.7042   24.1381 C   0  0  0  0  0  0  0  0  0  0  0  0
   11.0456   -2.9774   18.2694 N   0  0  0  0  0  0  0  0  0  0  0  0
   10.4788   -3.0457   21.8593 C   0  0  0  0  0  0  0  0  0  0  0  0
    8.8693   -5.8099   18.4657 N   0  0  0  0  0  0  0  0  0  0  0  0
    8.9892   -0.7926   25.4573 C   0  0  0  0  0  0  0  0  0  0  0  0
   10.5677   -3.4462   20.5323 C   0  0  0  0  0  0  0  0  0  0  0  0
  1  8  1  0
  1 12  4  0
  1 14  4  0
  2  3  4  0
  2 18  4  0
  3 20  4  0
  3 22  4  0
  4 11  4  0
  4 21  4  0
  5  9  4  0
  5 16  4  0
  6 15  4  0
  6 16  4  0
  7 22  4  0
  7 26  4  0
  8 10  4  0
  8 25  4  0
  9 15  4  0
  9 17  1  0
 10 21  4  0
 11 25  4  0
 12 23  4  0
 13 20  4  0
 13 26  4  0
 14 19  4  0
 17 18  4  0
 17 24  4  0
 19 23  4  0
 20 24  4  0
 23 26  1  0
M  END
$$$$

 Created by Python create_sdf_string function

 26 30  0  0  0  0  0  0  0  0999 V2000
   10.0084   -1.8019   23.4945 C   0  0  0  0  0  0  0  0  0  0  0  0
   10.0005   -4.2520   16.5631 C   0  0  0  0  0  0  0  0  0  0  0  0
   10.2759   -4.0036   17.8845 C   0  0  0  0  0  0  0  0  0  0  0  0
    8.5652    1.5478   25.3778 N   0  0  0  0  0  0  0  0  0  0  0  0
    6.8048   -7.5457   17.8752 C   0  0  0  0  0  0  0  0  0  0  0  0
    6.1721   -8.2186   15.9886 N   0  0  0  0  0  0  0  0  0  0  0  0
   11.1764   -2.6600   19.5604 C   0  0  0  0  0  0  0  0  0  0  0  0
    9.5491   -0.6380   24.1912 C   0  0  0  0  0  0  0  0  0  0  0  0
    7.5337   -6.9256   16.9519 C   0  0  0  0  0  0  0  0  0  0  0  0
    9.6782    0.5671   23.5143 C   0  0  0  0  0  0  0  0  0  0  0  0
    8.4532    0.3482   26.0821 C   0  0  0  0  0  0  0  0  0  0  0  0
   10.4239   -1.7677   22.2230 N   0  0  0  0  0  0  0  0  0  0  0  0
    9.9468   -4.5953   20.1709 C   0  0  0  0  0  0  0  0  0  0  0  0
   10.0366   -3.0590   23.9864 N   0  0  0  0  0  0  0  0  0  0  0  0
    7.1191   -7.3636   15.7739 C   0  0  0  0  0  0  0  0  0  0  0  0
    5.9612   -8.3203   17.2732 N   0  0  0  0  0  0  0  0  0  0  0  0
    8.5296   -5.9814   17.1841 C   0  0  0  0  0  0  0  0  0  0  0  0
    9.1527   -5.2118   16.2116 C   0  0  0  0  0  0  0  0  0  0  0  0
   10.3364   -3.8368   22.9255 O   0  0  0  0  0  0  0  0  0  0  0  0
    9.6947   -4.8407   18.8534 C   0  0  0  0  0  0  0  0  0  0  0  0
    9.1596    1.7042   24.1381 C   0  0  0  0  0  0  0  0  0  0  0  0
   11.0456   -2.9774   18.2694 N   0  0  0  0  0  0  0  0  0  0  0  0
   10.4788   -3.0457   21.8593 C   0  0  0  0  0  0  0  0  0  0  0  0
    8.8693   -5.8099   18.4657 N   0  0  0  0  0  0  0  0  0  0  0  0
    8.9892   -0.7926   25.4573 C   0  0  0  0  0  0  0  0  0  0  0  0
   10.5677   -3.4462   20.5323 C   0  0  0  0  0  0  0  0  0  0  0  0
  1  8  1  0
  1 12  4  0
  1 14  4  0
  2  3  4  0
  2 18  4  0
  3 20  4  0
  3 22  4  0
  4 11  4  0
  4 21  4  0
  5  9  4  0
  5 16  4  0
  6 15  4  0
  6 16  4  0
  7 22  4  0
  7 26  4  0
  8 10  4  0
  8 25  4  0
  9 15  4  0
  9 17  1  0
 10 21  4  0
 11 25  4  0
 12 23  4  0
 13 20  4  0
 13 26  4  0
 14 19  4  0
 17 18  4  0
 17 24  4  0
 19 23  4  0
 20 24  4  0
 23 26  1  0
M  END
$$$$

 Created by Python create_sdf_string function

 26 30  0  0  0  0  0  0  0  0999 V2000
   10.0084   -1.8019   23.4945 C   0  0  0  0  0  0  0  0  0  0  0  0
   10.0005   -4.2520   16.5631 C   0  0  0  0  0  0  0  0  0  0  0  0
   10.2759   -4.0036   17.8845 C   0  0  0  0  0  0  0  0  0  0  0  0
    8.5652    1.5478   25.3778 N   0  0  0  0  0  0  0  0  0  0  0  0
    6.8048   -7.5457   17.8752 C   0  0  0  0  0  0  0  0  0  0  0  0
    6.1721   -8.2186   15.9886 N   0  0  0  0  0  0  0  0  0  0  0  0
   11.1764   -2.6600   19.5604 C   0  0  0  0  0  0  0  0  0  0  0  0
    9.5491   -0.6380   24.1912 C   0  0  0  0  0  0  0  0  0  0  0  0
    7.5337   -6.9256   16.9519 C   0  0  0  0  0  0  0  0  0  0  0  0
    9.6782    0.5671   23.5143 C   0  0  0  0  0  0  0  0  0  0  0  0
    8.4532    0.3482   26.0821 C   0  0  0  0  0  0  0  0  0  0  0  0
   10.4239   -1.7677   22.2230 N   0  0  0  0  0  0  0  0  0  0  0  0
    9.9468   -4.5953   20.1709 C   0  0  0  0  0  0  0  0  0  0  0  0
   10.0366   -3.0590   23.9864 N   0  0  0  0  0  0  0  0  0  0  0  0
    7.1191   -7.3636   15.7739 C   0  0  0  0  0  0  0  0  0  0  0  0
    5.9612   -8.3203   17.2732 N   0  0  0  0  0  0  0  0  0  0  0  0
    8.5296   -5.9814   17.1841 C   0  0  0  0  0  0  0  0  0  0  0  0
    9.1527   -5.2118   16.2116 C   0  0  0  0  0  0  0  0  0  0  0  0
   10.3364   -3.8368   22.9255 O   0  0  0  0  0  0  0  0  0  0  0  0
    9.6947   -4.8407   18.8534 C   0  0  0  0  0  0  0  0  0  0  0  0
    9.1596    1.7042   24.1381 C   0  0  0  0  0  0  0  0  0  0  0  0
   11.0456   -2.9774   18.2694 N   0  0  0  0  0  0  0  0  0  0  0  0
   10.4788   -3.0457   21.8593 C   0  0  0  0  0  0  0  0  0  0  0  0
    8.8693   -5.8099   18.4657 N   0  0  0  0  0  0  0  0  0  0  0  0
    8.9892   -0.7926   25.4573 C   0  0  0  0  0  0  0  0  0  0  0  0
   10.5677   -3.4462   20.5323 C   0  0  0  0  0  0  0  0  0  0  0  0
  1  8  1  0
  1 12  4  0
  1 14  4  0
  2  3  4  0
  2 18  4  0
  3 20  4  0
  3 22  4  0
  4 11  4  0
  4 21  4  0
  5  9  4  0
  5 16  4  0
  6 15  4  0
  6 16  4  0
  7 22  4  0
  7 26  4  0
  8 10  4  0
  8 25  4  0
  9 15  4  0
  9 17  1  0
 10 21  4  0
 11 25  4  0
 12 23  4  0
 13 20  4  0
 13 26  4  0
 14 19  4  0
 17 18  4  0
 17 24  4  0
 19 23  4  0
 20 24  4  0
 23 26  1  0
M  END
$$$$

 Created by Python create_sdf_string function

 26 30  0  0  0  0  0  0  0  0999 V2000
   10.0084   -1.8019   23.4945 C   0  0  0  0  0  0  0  0  0  0  0  0
   10.0005   -4.2520   16.5631 C   0  0  0  0  0  0  0  0  0  0  0  0
   10.2759   -4.0036   17.8845 C   0  0  0  0  0  0  0  0  0  0  0  0
    8.5652    1.5478   25.3778 N   0  0  0  0  0  0  0  0  0  0  0  0
    6.8048   -7.5457   17.8752 C   0  0  0  0  0  0  0  0  0  0  0  0
    6.1721   -8.2186   15.9886 N   0  0  0  0  0  0  0  0  0  0  0  0
   11.1764   -2.6600   19.5604 C   0  0  0  0  0  0  0  0  0  0  0  0
    9.5491   -0.6380   24.1912 C   0  0  0  0  0  0  0  0  0  0  0  0
    7.5337   -6.9256   16.9519 C   0  0  0  0  0  0  0  0  0  0  0  0
    9.6782    0.5671   23.5143 C   0  0  0  0  0  0  0  0  0  0  0  0
    8.4532    0.3482   26.0821 C   0  0  0  0  0  0  0  0  0  0  0  0
   10.4239   -1.7677   22.2230 N   0  0  0  0  0  0  0  0  0  0  0  0
    9.9468   -4.5953   20.1709 C   0  0  0  0  0  0  0  0  0  0  0  0
   10.0366   -3.0590   23.9864 N   0  0  0  0  0  0  0  0  0  0  0  0
    7.1191   -7.3636   15.7739 C   0  0  0  0  0  0  0  0  0  0  0  0
    5.9612   -8.3203   17.2732 N   0  0  0  0  0  0  0  0  0  0  0  0
    8.5296   -5.9814   17.1841 C   0  0  0  0  0  0  0  0  0  0  0  0
    9.1527   -5.2118   16.2116 C   0  0  0  0  0  0  0  0  0  0  0  0
   10.3364   -3.8368   22.9255 O   0  0  0  0  0  0  0  0  0  0  0  0
    9.6947   -4.8407   18.8534 C   0  0  0  0  0  0  0  0  0  0  0  0
    9.1596    1.7042   24.1381 C   0  0  0  0  0  0  0  0  0  0  0  0
   11.0456   -2.9774   18.2694 N   0  0  0  0  0  0  0  0  0  0  0  0
   10.4788   -3.0457   21.8593 C   0  0  0  0  0  0  0  0  0  0  0  0
    8.8693   -5.8099   18.4657 N   0  0  0  0  0  0  0  0  0  0  0  0
    8.9892   -0.7926   25.4573 C   0  0  0  0  0  0  0  0  0  0  0  0
   10.5677   -3.4462   20.5323 C   0  0  0  0  0  0  0  0  0  0  0  0
  1  8  1  0
  1 12  4  0
  1 14  4  0
  2  3  4  0
  2 18  4  0
  3 20  4  0
  3 22  4  0
  4 11  4  0
  4 21  4  0
  5  9  4  0
  5 16  4  0
  6 15  4  0
  6 16  4  0
  7 22  4  0
  7 26  4  0
  8 10  4  0
  8 25  4  0
  9 15  4  0
  9 17  1  0
 10 21  4  0
 11 25  4  0
 12 23  4  0
 13 20  4  0
 13 26  4  0
 14 19  4  0
 17 18  4  0
 17 24  4  0
 19 23  4  0
 20 24  4  0
 23 26  1  0
M  END
$$$$

 Created by Python create_sdf_string function

 26 30  0  0  0  0  0  0  0  0999 V2000
   10.0084   -1.8019   23.4945 C   0  0  0  0  0  0  0  0  0  0  0  0
   10.0005   -4.2520   16.5631 C   0  0  0  0  0  0  0  0  0  0  0  0
   10.2759   -4.0036   17.8845 C   0  0  0  0  0  0  0  0  0  0  0  0
    8.5652    1.5478   25.3778 N   0  0  0  0  0  0  0  0  0  0  0  0
    6.8048   -7.5457   17.8752 C   0  0  0  0  0  0  0  0  0  0  0  0
    6.1721   -8.2186   15.9886 N   0  0  0  0  0  0  0  0  0  0  0  0
   11.1764   -2.6600   19.5604 C   0  0  0  0  0  0  0  0  0  0  0  0
    9.5491   -0.6380   24.1912 C   0  0  0  0  0  0  0  0  0  0  0  0
    7.5337   -6.9256   16.9519 C   0  0  0  0  0  0  0  0  0  0  0  0
    9.6782    0.5671   23.5143 C   0  0  0  0  0  0  0  0  0  0  0  0
    8.4532    0.3482   26.0821 C   0  0  0  0  0  0  0  0  0  0  0  0
   10.4239   -1.7677   22.2230 N   0  0  0  0  0  0  0  0  0  0  0  0
    9.9468   -4.5953   20.1709 C   0  0  0  0  0  0  0  0  0  0  0  0
   10.0366   -3.0590   23.9864 N   0  0  0  0  0  0  0  0  0  0  0  0
    7.1191   -7.3636   15.7739 C   0  0  0  0  0  0  0  0  0  0  0  0
    5.9612   -8.3203   17.2732 N   0  0  0  0  0  0  0  0  0  0  0  0
    8.5296   -5.9814   17.1841 C   0  0  0  0  0  0  0  0  0  0  0  0
    9.1527   -5.2118   16.2116 C   0  0  0  0  0  0  0  0  0  0  0  0
   10.3364   -3.8368   22.9255 O   0  0  0  0  0  0  0  0  0  0  0  0
    9.6947   -4.8407   18.8534 C   0  0  0  0  0  0  0  0  0  0  0  0
    9.1596    1.7042   24.1381 C   0  0  0  0  0  0  0  0  0  0  0  0
   11.0456   -2.9774   18.2694 N   0  0  0  0  0  0  0  0  0  0  0  0
   10.4788   -3.0457   21.8593 C   0  0  0  0  0  0  0  0  0  0  0  0
    8.8693   -5.8099   18.4657 N   0  0  0  0  0  0  0  0  0  0  0  0
    8.9892   -0.7926   25.4573 C   0  0  0  0  0  0  0  0  0  0  0  0
   10.5677   -3.4462   20.5323 C   0  0  0  0  0  0  0  0  0  0  0  0
  1  8  1  0
  1 12  4  0
  1 14  4  0
  2  3  4  0
  2 18  4  0
  3 20  4  0
  3 22  4  0
  4 11  4  0
  4 21  4  0
  5  9  4  0
  5 16  4  0
  6 15  4  0
  6 16  4  0
  7 22  4  0
  7 26  4  0
  8 10  4  0
  8 25  4  0
  9 15  4  0
  9 17  1  0
 10 21  4  0
 11 25  4  0
 12 23  4  0
 13 20  4  0
 13 26  4  0
 14 19  4  0
 17 18  4  0
 17 24  4  0
 19 23  4  0
 20 24  4  0
 23 26  1  0
M  END
$$$$

 Created by Python create_sdf_string function

 26 30  0  0  0  0  0  0  0  0999 V2000
   10.0084   -1.8019   23.4945 C   0  0  0  0  0  0  0  0  0  0  0  0
   10.0005   -4.2520   16.5631 C   0  0  0  0  0  0  0  0  0  0  0  0
   10.2759   -4.0036   17.8845 C   0  0  0  0  0  0  0  0  0  0  0  0
    8.5652    1.5478   25.3778 N   0  0  0  0  0  0  0  0  0  0  0  0
    6.8048   -7.5457   17.8752 C   0  0  0  0  0  0  0  0  0  0  0  0
    6.1721   -8.2186   15.9886 N   0  0  0  0  0  0  0  0  0  0  0  0
   11.1764   -2.6600   19.5604 C   0  0  0  0  0  0  0  0  0  0  0  0
    9.5491   -0.6380   24.1912 C   0  0  0  0  0  0  0  0  0  0  0  0
    7.5337   -6.9256   16.9519 C   0  0  0  0  0  0  0  0  0  0  0  0
    9.6782    0.5671   23.5143 C   0  0  0  0  0  0  0  0  0  0  0  0
    8.4532    0.3482   26.0821 C   0  0  0  0  0  0  0  0  0  0  0  0
   10.4239   -1.7677   22.2230 N   0  0  0  0  0  0  0  0  0  0  0  0
    9.9468   -4.5953   20.1709 C   0  0  0  0  0  0  0  0  0  0  0  0
   10.0366   -3.0590   23.9864 N   0  0  0  0  0  0  0  0  0  0  0  0
    7.1191   -7.3636   15.7739 C   0  0  0  0  0  0  0  0  0  0  0  0
    5.9612   -8.3203   17.2732 N   0  0  0  0  0  0  0  0  0  0  0  0
    8.5296   -5.9814   17.1841 C   0  0  0  0  0  0  0  0  0  0  0  0
    9.1527   -5.2118   16.2116 C   0  0  0  0  0  0  0  0  0  0  0  0
   10.3364   -3.8368   22.9255 O   0  0  0  0  0  0  0  0  0  0  0  0
    9.6947   -4.8407   18.8534 C   0  0  0  0  0  0  0  0  0  0  0  0
    9.1596    1.7042   24.1381 C   0  0  0  0  0  0  0  0  0  0  0  0
   11.0456   -2.9774   18.2694 N   0  0  0  0  0  0  0  0  0  0  0  0
   10.4788   -3.0457   21.8593 C   0  0  0  0  0  0  0  0  0  0  0  0
    8.8693   -5.8099   18.4657 N   0  0  0  0  0  0  0  0  0  0  0  0
    8.9892   -0.7926   25.4573 C   0  0  0  0  0  0  0  0  0  0  0  0
   10.5677   -3.4462   20.5323 C   0  0  0  0  0  0  0  0  0  0  0  0
  1  8  1  0
  1 12  4  0
  1 14  4  0
  2  3  4  0
  2 18  4  0
  3 20  4  0
  3 22  4  0
  4 11  4  0
  4 21  4  0
  5  9  4  0
  5 16  4  0
  6 15  4  0
  6 16  4  0
  7 22  4  0
  7 26  4  0
  8 10  4  0
  8 25  4  0
  9 15  4  0
  9 17  1  0
 10 21  4  0
 11 25  4  0
 12 23  4  0
 13 20  4  0
 13 26  4  0
 14 19  4  0
 17 18  4  0
 17 24  4  0
 19 23  4  0
 20 24  4  0
 23 26  1  0
M  END
$$$$

 Created by Python create_sdf_string function

 26 30  0  0  0  0  0  0  0  0999 V2000
   10.0084   -1.8019   23.4945 C   0  0  0  0  0  0  0  0  0  0  0  0
   10.0005   -4.2520   16.5631 C   0  0  0  0  0  0  0  0  0  0  0  0
   10.2759   -4.0036   17.8845 C   0  0  0  0  0  0  0  0  0  0  0  0
    8.5652    1.5478   25.3778 N   0  0  0  0  0  0  0  0  0  0  0  0
    6.8048   -7.5457   17.8752 C   0  0  0  0  0  0  0  0  0  0  0  0
    6.1721   -8.2186   15.9886 N   0  0  0  0  0  0  0  0  0  0  0  0
   11.1764   -2.6600   19.5604 C   0  0  0  0  0  0  0  0  0  0  0  0
    9.5491   -0.6380   24.1912 C   0  0  0  0  0  0  0  0  0  0  0  0
    7.5337   -6.9256   16.9519 C   0  0  0  0  0  0  0  0  0  0  0  0
    9.6782    0.5671   23.5143 C   0  0  0  0  0  0  0  0  0  0  0  0
    8.4532    0.3482   26.0821 C   0  0  0  0  0  0  0  0  0  0  0  0
   10.4239   -1.7677   22.2230 N   0  0  0  0  0  0  0  0  0  0  0  0
    9.9468   -4.5953   20.1709 C   0  0  0  0  0  0  0  0  0  0  0  0
   10.0366   -3.0590   23.9864 N   0  0  0  0  0  0  0  0  0  0  0  0
    7.1191   -7.3636   15.7739 C   0  0  0  0  0  0  0  0  0  0  0  0
    5.9612   -8.3203   17.2732 N   0  0  0  0  0  0  0  0  0  0  0  0
    8.5296   -5.9814   17.1841 C   0  0  0  0  0  0  0  0  0  0  0  0
    9.1527   -5.2118   16.2116 C   0  0  0  0  0  0  0  0  0  0  0  0
   10.3364   -3.8368   22.9255 O   0  0  0  0  0  0  0  0  0  0  0  0
    9.6947   -4.8407   18.8534 C   0  0  0  0  0  0  0  0  0  0  0  0
    9.1596    1.7042   24.1381 C   0  0  0  0  0  0  0  0  0  0  0  0
   11.0456   -2.9774   18.2694 N   0  0  0  0  0  0  0  0  0  0  0  0
   10.4788   -3.0457   21.8593 C   0  0  0  0  0  0  0  0  0  0  0  0
    8.8693   -5.8099   18.4657 N   0  0  0  0  0  0  0  0  0  0  0  0
    8.9892   -0.7926   25.4573 C   0  0  0  0  0  0  0  0  0  0  0  0
   10.5677   -3.4462   20.5323 C   0  0  0  0  0  0  0  0  0  0  0  0
  1  8  1  0
  1 12  4  0
  1 14  4  0
  2  3  4  0
  2 18  4  0
  3 20  4  0
  3 22  4  0
  4 11  4  0
  4 21  4  0
  5  9  4  0
  5 16  4  0
  6 15  4  0
  6 16  4  0
  7 22  4  0
  7 26  4  0
  8 10  4  0
  8 25  4  0
  9 15  4  0
  9 17  1  0
 10 21  4  0
 11 25  4  0
 12 23  4  0
 13 20  4  0
 13 26  4  0
 14 19  4  0
 17 18  4  0
 17 24  4  0
 19 23  4  0
 20 24  4  0
 23 26  1  0
M  END
$$$$

 Created by Python create_sdf_string function

 26 30  0  0  0  0  0  0  0  0999 V2000
   10.0084   -1.8019   23.4945 C   0  0  0  0  0  0  0  0  0  0  0  0
   10.0005   -4.2520   16.5631 C   0  0  0  0  0  0  0  0  0  0  0  0
   10.2759   -4.0036   17.8845 C   0  0  0  0  0  0  0  0  0  0  0  0
    8.5652    1.5478   25.3778 N   0  0  0  0  0  0  0  0  0  0  0  0
    6.8048   -7.5457   17.8752 C   0  0  0  0  0  0  0  0  0  0  0  0
    6.1721   -8.2186   15.9886 N   0  0  0  0  0  0  0  0  0  0  0  0
   11.1764   -2.6600   19.5604 C   0  0  0  0  0  0  0  0  0  0  0  0
    9.5491   -0.6380   24.1912 C   0  0  0  0  0  0  0  0  0  0  0  0
    7.5337   -6.9256   16.9519 C   0  0  0  0  0  0  0  0  0  0  0  0
    9.6782    0.5671   23.5143 C   0  0  0  0  0  0  0  0  0  0  0  0
    8.4532    0.3482   26.0821 C   0  0  0  0  0  0  0  0  0  0  0  0
   10.4239   -1.7677   22.2230 N   0  0  0  0  0  0  0  0  0  0  0  0
    9.9468   -4.5953   20.1709 C   0  0  0  0  0  0  0  0  0  0  0  0
   10.0366   -3.0590   23.9864 N   0  0  0  0  0  0  0  0  0  0  0  0
    7.1191   -7.3636   15.7739 C   0  0  0  0  0  0  0  0  0  0  0  0
    5.9612   -8.3203   17.2732 N   0  0  0  0  0  0  0  0  0  0  0  0
    8.5296   -5.9814   17.1841 C   0  0  0  0  0  0  0  0  0  0  0  0
    9.1527   -5.2118   16.2116 C   0  0  0  0  0  0  0  0  0  0  0  0
   10.3364   -3.8368   22.9255 O   0  0  0  0  0  0  0  0  0  0  0  0
    9.6947   -4.8407   18.8534 C   0  0  0  0  0  0  0  0  0  0  0  0
    9.1596    1.7042   24.1381 C   0  0  0  0  0  0  0  0  0  0  0  0
   11.0456   -2.9774   18.2694 N   0  0  0  0  0  0  0  0  0  0  0  0
   10.4788   -3.0457   21.8593 C   0  0  0  0  0  0  0  0  0  0  0  0
    8.8693   -5.8099   18.4657 N   0  0  0  0  0  0  0  0  0  0  0  0
    8.9892   -0.7926   25.4573 C   0  0  0  0  0  0  0  0  0  0  0  0
   10.5677   -3.4462   20.5323 C   0  0  0  0  0  0  0  0  0  0  0  0
  1  8  1  0
  1 12  4  0
  1 14  4  0
  2  3  4  0
  2 18  4  0
  3 20  4  0
  3 22  4  0
  4 11  4  0
  4 21  4  0
  5  9  4  0
  5 16  4  0
  6 15  4  0
  6 16  4  0
  7 22  4  0
  7 26  4  0
  8 10  4  0
  8 25  4  0
  9 15  4  0
  9 17  1  0
 10 21  4  0
 11 25  4  0
 12 23  4  0
 13 20  4  0
 13 26  4  0
 14 19  4  0
 17 18  4  0
 17 24  4  0
 19 23  4  0
 20 24  4  0
 23 26  1  0
M  END
$$$$

 Created by Python create_sdf_string function

 26 30  0  0  0  0  0  0  0  0999 V2000
   10.0084   -1.8019   23.4945 C   0  0  0  0  0  0  0  0  0  0  0  0
   10.0005   -4.2520   16.5631 C   0  0  0  0  0  0  0  0  0  0  0  0
   10.2759   -4.0036   17.8845 C   0  0  0  0  0  0  0  0  0  0  0  0
    8.5652    1.5478   25.3778 N   0  0  0  0  0  0  0  0  0  0  0  0
    6.8048   -7.5457   17.8752 C   0  0  0  0  0  0  0  0  0  0  0  0
    6.1721   -8.2186   15.9886 N   0  0  0  0  0  0  0  0  0  0  0  0
   11.1764   -2.6600   19.5604 C   0  0  0  0  0  0  0  0  0  0  0  0
    9.5491   -0.6380   24.1912 C   0  0  0  0  0  0  0  0  0  0  0  0
    7.5337   -6.9256   16.9519 C   0  0  0  0  0  0  0  0  0  0  0  0
    9.6782    0.5671   23.5143 C   0  0  0  0  0  0  0  0  0  0  0  0
    8.4532    0.3482   26.0821 C   0  0  0  0  0  0  0  0  0  0  0  0
   10.4239   -1.7677   22.2230 N   0  0  0  0  0  0  0  0  0  0  0  0
    9.9468   -4.5953   20.1709 C   0  0  0  0  0  0  0  0  0  0  0  0
   10.0366   -3.0590   23.9864 N   0  0  0  0  0  0  0  0  0  0  0  0
    7.1191   -7.3636   15.7739 C   0  0  0  0  0  0  0  0  0  0  0  0
    5.9612   -8.3203   17.2732 N   0  0  0  0  0  0  0  0  0  0  0  0
    8.5296   -5.9814   17.1841 C   0  0  0  0  0  0  0  0  0  0  0  0
    9.1527   -5.2118   16.2116 C   0  0  0  0  0  0  0  0  0  0  0  0
   10.3364   -3.8368   22.9255 O   0  0  0  0  0  0  0  0  0  0  0  0
    9.6947   -4.8407   18.8534 C   0  0  0  0  0  0  0  0  0  0  0  0
    9.1596    1.7042   24.1381 C   0  0  0  0  0  0  0  0  0  0  0  0
   11.0456   -2.9774   18.2694 N   0  0  0  0  0  0  0  0  0  0  0  0
   10.4788   -3.0457   21.8593 C   0  0  0  0  0  0  0  0  0  0  0  0
    8.8693   -5.8099   18.4657 N   0  0  0  0  0  0  0  0  0  0  0  0
    8.9892   -0.7926   25.4573 C   0  0  0  0  0  0  0  0  0  0  0  0
   10.5677   -3.4462   20.5323 C   0  0  0  0  0  0  0  0  0  0  0  0
  1  8  1  0
  1 12  4  0
  1 14  4  0
  2  3  4  0
  2 18  4  0
  3 20  4  0
  3 22  4  0
  4 11  4  0
  4 21  4  0
  5  9  4  0
  5 16  4  0
  6 15  4  0
  6 16  4  0
  7 22  4  0
  7 26  4  0
  8 10  4  0
  8 25  4  0
  9 15  4  0
  9 17  1  0
 10 21  4  0
 11 25  4  0
 12 23  4  0
 13 20  4  0
 13 26  4  0
 14 19  4  0
 17 18  4  0
 17 24  4  0
 19 23  4  0
 20 24  4  0
 23 26  1  0
M  END
$$$$

 Created by Python create_sdf_string function

 26 30  0  0  0  0  0  0  0  0999 V2000
   10.0084   -1.8019   23.4945 C   0  0  0  0  0  0  0  0  0  0  0  0
   10.0005   -4.2520   16.5631 C   0  0  0  0  0  0  0  0  0  0  0  0
   10.2759   -4.0036   17.8845 C   0  0  0  0  0  0  0  0  0  0  0  0
    8.5652    1.5478   25.3778 N   0  0  0  0  0  0  0  0  0  0  0  0
    6.8048   -7.5457   17.8752 C   0  0  0  0  0  0  0  0  0  0  0  0
    6.1721   -8.2186   15.9886 N   0  0  0  0  0  0  0  0  0  0  0  0
   11.1764   -2.6600   19.5604 C   0  0  0  0  0  0  0  0  0  0  0  0
    9.5491   -0.6380   24.1912 C   0  0  0  0  0  0  0  0  0  0  0  0
    7.5337   -6.9256   16.9519 C   0  0  0  0  0  0  0  0  0  0  0  0
    9.6782    0.5671   23.5143 C   0  0  0  0  0  0  0  0  0  0  0  0
    8.4532    0.3482   26.0821 C   0  0  0  0  0  0  0  0  0  0  0  0
   10.4239   -1.7677   22.2230 N   0  0  0  0  0  0  0  0  0  0  0  0
    9.9468   -4.5953   20.1709 C   0  0  0  0  0  0  0  0  0  0  0  0
   10.0366   -3.0590   23.9864 N   0  0  0  0  0  0  0  0  0  0  0  0
    7.1191   -7.3636   15.7739 C   0  0  0  0  0  0  0  0  0  0  0  0
    5.9612   -8.3203   17.2732 N   0  0  0  0  0  0  0  0  0  0  0  0
    8.5296   -5.9814   17.1841 C   0  0  0  0  0  0  0  0  0  0  0  0
    9.1527   -5.2118   16.2116 C   0  0  0  0  0  0  0  0  0  0  0  0
   10.3364   -3.8368   22.9255 O   0  0  0  0  0  0  0  0  0  0  0  0
    9.6947   -4.8407   18.8534 C   0  0  0  0  0  0  0  0  0  0  0  0
    9.1596    1.7042   24.1381 C   0  0  0  0  0  0  0  0  0  0  0  0
   11.0456   -2.9774   18.2694 N   0  0  0  0  0  0  0  0  0  0  0  0
   10.4788   -3.0457   21.8593 C   0  0  0  0  0  0  0  0  0  0  0  0
    8.8693   -5.8099   18.4657 N   0  0  0  0  0  0  0  0  0  0  0  0
    8.9892   -0.7926   25.4573 C   0  0  0  0  0  0  0  0  0  0  0  0
   10.5677   -3.4462   20.5323 C   0  0  0  0  0  0  0  0  0  0  0  0
  1  8  1  0
  1 12  4  0
  1 14  4  0
  2  3  4  0
  2 18  4  0
  3 20  4  0
  3 22  4  0
  4 11  4  0
  4 21  4  0
  5  9  4  0
  5 16  4  0
  6 15  4  0
  6 16  4  0
  7 22  4  0
  7 26  4  0
  8 10  4  0
  8 25  4  0
  9 15  4  0
  9 17  1  0
 10 21  4  0
 11 25  4  0
 12 23  4  0
 13 20  4  0
 13 26  4  0
 14 19  4  0
 17 18  4  0
 17 24  4  0
 19 23  4  0
 20 24  4  0
 23 26  1  0
M  END
$$$$

 Created by Python create_sdf_string function

 26 30  0  0  0  0  0  0  0  0999 V2000
   10.0084   -1.8019   23.4945 C   0  0  0  0  0  0  0  0  0  0  0  0
   10.0005   -4.2520   16.5631 C   0  0  0  0  0  0  0  0  0  0  0  0
   10.2759   -4.0036   17.8845 C   0  0  0  0  0  0  0  0  0  0  0  0
    8.5652    1.5478   25.3778 N   0  0  0  0  0  0  0  0  0  0  0  0
    6.8048   -7.5457   17.8752 C   0  0  0  0  0  0  0  0  0  0  0  0
    6.1721   -8.2186   15.9886 N   0  0  0  0  0  0  0  0  0  0  0  0
   11.1764   -2.6600   19.5604 C   0  0  0  0  0  0  0  0  0  0  0  0
    9.5491   -0.6380   24.1912 C   0  0  0  0  0  0  0  0  0  0  0  0
    7.5337   -6.9256   16.9519 C   0  0  0  0  0  0  0  0  0  0  0  0
    9.6782    0.5671   23.5143 C   0  0  0  0  0  0  0  0  0  0  0  0
    8.4532    0.3482   26.0821 C   0  0  0  0  0  0  0  0  0  0  0  0
   10.4239   -1.7677   22.2230 N   0  0  0  0  0  0  0  0  0  0  0  0
    9.9468   -4.5953   20.1709 C   0  0  0  0  0  0  0  0  0  0  0  0
   10.0366   -3.0590   23.9864 N   0  0  0  0  0  0  0  0  0  0  0  0
    7.1191   -7.3636   15.7739 C   0  0  0  0  0  0  0  0  0  0  0  0
    5.9612   -8.3203   17.2732 N   0  0  0  0  0  0  0  0  0  0  0  0
    8.5296   -5.9814   17.1841 C   0  0  0  0  0  0  0  0  0  0  0  0
    9.1527   -5.2118   16.2116 C   0  0  0  0  0  0  0  0  0  0  0  0
   10.3364   -3.8368   22.9255 O   0  0  0  0  0  0  0  0  0  0  0  0
    9.6947   -4.8407   18.8534 C   0  0  0  0  0  0  0  0  0  0  0  0
    9.1596    1.7042   24.1381 C   0  0  0  0  0  0  0  0  0  0  0  0
   11.0456   -2.9774   18.2694 N   0  0  0  0  0  0  0  0  0  0  0  0
   10.4788   -3.0457   21.8593 C   0  0  0  0  0  0  0  0  0  0  0  0
    8.8693   -5.8099   18.4657 N   0  0  0  0  0  0  0  0  0  0  0  0
    8.9892   -0.7926   25.4573 C   0  0  0  0  0  0  0  0  0  0  0  0
   10.5677   -3.4462   20.5323 C   0  0  0  0  0  0  0  0  0  0  0  0
  1  8  1  0
  1 12  4  0
  1 14  4  0
  2  3  4  0
  2 18  4  0
  3 20  4  0
  3 22  4  0
  4 11  4  0
  4 21  4  0
  5  9  4  0
  5 16  4  0
  6 15  4  0
  6 16  4  0
  7 22  4  0
  7 26  4  0
  8 10  4  0
  8 25  4  0
  9 15  4  0
  9 17  1  0
 10 21  4  0
 11 25  4  0
 12 23  4  0
 13 20  4  0
 13 26  4  0
 14 19  4  0
 17 18  4  0
 17 24  4  0
 19 23  4  0
 20 24  4  0
 23 26  1  0
M  END
$$$$

 Created by Python create_sdf_string function

 26 30  0  0  0  0  0  0  0  0999 V2000
   10.0084   -1.8019   23.4945 C   0  0  0  0  0  0  0  0  0  0  0  0
   10.0005   -4.2520   16.5631 C   0  0  0  0  0  0  0  0  0  0  0  0
   10.2759   -4.0036   17.8845 C   0  0  0  0  0  0  0  0  0  0  0  0
    8.5652    1.5478   25.3778 N   0  0  0  0  0  0  0  0  0  0  0  0
    6.8048   -7.5457   17.8752 C   0  0  0  0  0  0  0  0  0  0  0  0
    6.1721   -8.2186   15.9886 N   0  0  0  0  0  0  0  0  0  0  0  0
   11.1764   -2.6600   19.5604 C   0  0  0  0  0  0  0  0  0  0  0  0
    9.5491   -0.6380   24.1912 C   0  0  0  0  0  0  0  0  0  0  0  0
    7.5337   -6.9256   16.9519 C   0  0  0  0  0  0  0  0  0  0  0  0
    9.6782    0.5671   23.5143 C   0  0  0  0  0  0  0  0  0  0  0  0
    8.4532    0.3482   26.0821 C   0  0  0  0  0  0  0  0  0  0  0  0
   10.4239   -1.7677   22.2230 N   0  0  0  0  0  0  0  0  0  0  0  0
    9.9468   -4.5953   20.1709 C   0  0  0  0  0  0  0  0  0  0  0  0
   10.0366   -3.0590   23.9864 N   0  0  0  0  0  0  0  0  0  0  0  0
    7.1191   -7.3636   15.7739 C   0  0  0  0  0  0  0  0  0  0  0  0
    5.9612   -8.3203   17.2732 N   0  0  0  0  0  0  0  0  0  0  0  0
    8.5296   -5.9814   17.1841 C   0  0  0  0  0  0  0  0  0  0  0  0
    9.1527   -5.2118   16.2116 C   0  0  0  0  0  0  0  0  0  0  0  0
   10.3364   -3.8368   22.9255 O   0  0  0  0  0  0  0  0  0  0  0  0
    9.6947   -4.8407   18.8534 C   0  0  0  0  0  0  0  0  0  0  0  0
    9.1596    1.7042   24.1381 C   0  0  0  0  0  0  0  0  0  0  0  0
   11.0456   -2.9774   18.2694 N   0  0  0  0  0  0  0  0  0  0  0  0
   10.4788   -3.0457   21.8593 C   0  0  0  0  0  0  0  0  0  0  0  0
    8.8693   -5.8099   18.4657 N   0  0  0  0  0  0  0  0  0  0  0  0
    8.9892   -0.7926   25.4573 C   0  0  0  0  0  0  0  0  0  0  0  0
   10.5677   -3.4462   20.5323 C   0  0  0  0  0  0  0  0  0  0  0  0
  1  8  1  0
  1 12  4  0
  1 14  4  0
  2  3  4  0
  2 18  4  0
  3 20  4  0
  3 22  4  0
  4 11  4  0
  4 21  4  0
  5  9  4  0
  5 16  4  0
  6 15  4  0
  6 16  4  0
  7 22  4  0
  7 26  4  0
  8 10  4  0
  8 25  4  0
  9 15  4  0
  9 17  1  0
 10 21  4  0
 11 25  4  0
 12 23  4  0
 13 20  4  0
 13 26  4  0
 14 19  4  0
 17 18  4  0
 17 24  4  0
 19 23  4  0
 20 24  4  0
 23 26  1  0
M  END
$$$$

 Created by Python create_sdf_string function

 26 30  0  0  0  0  0  0  0  0999 V2000
   10.0084   -1.8019   23.4945 C   0  0  0  0  0  0  0  0  0  0  0  0
   10.0005   -4.2520   16.5631 C   0  0  0  0  0  0  0  0  0  0  0  0
   10.2759   -4.0036   17.8845 C   0  0  0  0  0  0  0  0  0  0  0  0
    8.5652    1.5478   25.3778 N   0  0  0  0  0  0  0  0  0  0  0  0
    6.8048   -7.5457   17.8752 C   0  0  0  0  0  0  0  0  0  0  0  0
    6.1721   -8.2186   15.9886 N   0  0  0  0  0  0  0  0  0  0  0  0
   11.1764   -2.6600   19.5604 C   0  0  0  0  0  0  0  0  0  0  0  0
    9.5491   -0.6380   24.1912 C   0  0  0  0  0  0  0  0  0  0  0  0
    7.5337   -6.9256   16.9519 C   0  0  0  0  0  0  0  0  0  0  0  0
    9.6782    0.5671   23.5143 C   0  0  0  0  0  0  0  0  0  0  0  0
    8.4532    0.3482   26.0821 C   0  0  0  0  0  0  0  0  0  0  0  0
   10.4239   -1.7677   22.2230 N   0  0  0  0  0  0  0  0  0  0  0  0
    9.9468   -4.5953   20.1709 C   0  0  0  0  0  0  0  0  0  0  0  0
   10.0366   -3.0590   23.9864 N   0  0  0  0  0  0  0  0  0  0  0  0
    7.1191   -7.3636   15.7739 C   0  0  0  0  0  0  0  0  0  0  0  0
    5.9612   -8.3203   17.2732 N   0  0  0  0  0  0  0  0  0  0  0  0
    8.5296   -5.9814   17.1841 C   0  0  0  0  0  0  0  0  0  0  0  0
    9.1527   -5.2118   16.2116 C   0  0  0  0  0  0  0  0  0  0  0  0
   10.3364   -3.8368   22.9255 O   0  0  0  0  0  0  0  0  0  0  0  0
    9.6947   -4.8407   18.8534 C   0  0  0  0  0  0  0  0  0  0  0  0
    9.1596    1.7042   24.1381 C   0  0  0  0  0  0  0  0  0  0  0  0
   11.0456   -2.9774   18.2694 N   0  0  0  0  0  0  0  0  0  0  0  0
   10.4788   -3.0457   21.8593 C   0  0  0  0  0  0  0  0  0  0  0  0
    8.8693   -5.8099   18.4657 N   0  0  0  0  0  0  0  0  0  0  0  0
    8.9892   -0.7926   25.4573 C   0  0  0  0  0  0  0  0  0  0  0  0
   10.5677   -3.4462   20.5323 C   0  0  0  0  0  0  0  0  0  0  0  0
  1  8  1  0
  1 12  4  0
  1 14  4  0
  2  3  4  0
  2 18  4  0
  3 20  4  0
  3 22  4  0
  4 11  4  0
  4 21  4  0
  5  9  4  0
  5 16  4  0
  6 15  4  0
  6 16  4  0
  7 22  4  0
  7 26  4  0
  8 10  4  0
  8 25  4  0
  9 15  4  0
  9 17  1  0
 10 21  4  0
 11 25  4  0
 12 23  4  0
 13 20  4  0
 13 26  4  0
 14 19  4  0
 17 18  4  0
 17 24  4  0
 19 23  4  0
 20 24  4  0
 23 26  1  0
M  END
$$$$

 Created by Python create_sdf_string function

 26 30  0  0  0  0  0  0  0  0999 V2000
   10.0084   -1.8019   23.4945 C   0  0  0  0  0  0  0  0  0  0  0  0
   10.0005   -4.2520   16.5631 C   0  0  0  0  0  0  0  0  0  0  0  0
   10.2759   -4.0036   17.8845 C   0  0  0  0  0  0  0  0  0  0  0  0
    8.5652    1.5478   25.3778 N   0  0  0  0  0  0  0  0  0  0  0  0
    6.8048   -7.5457   17.8752 C   0  0  0  0  0  0  0  0  0  0  0  0
    6.1721   -8.2186   15.9886 N   0  0  0  0  0  0  0  0  0  0  0  0
   11.1764   -2.6600   19.5604 C   0  0  0  0  0  0  0  0  0  0  0  0
    9.5491   -0.6380   24.1912 C   0  0  0  0  0  0  0  0  0  0  0  0
    7.5337   -6.9256   16.9519 C   0  0  0  0  0  0  0  0  0  0  0  0
    9.6782    0.5671   23.5143 C   0  0  0  0  0  0  0  0  0  0  0  0
    8.4532    0.3482   26.0821 C   0  0  0  0  0  0  0  0  0  0  0  0
   10.4239   -1.7677   22.2230 N   0  0  0  0  0  0  0  0  0  0  0  0
    9.9468   -4.5953   20.1709 C   0  0  0  0  0  0  0  0  0  0  0  0
   10.0366   -3.0590   23.9864 N   0  0  0  0  0  0  0  0  0  0  0  0
    7.1191   -7.3636   15.7739 C   0  0  0  0  0  0  0  0  0  0  0  0
    5.9612   -8.3203   17.2732 N   0  0  0  0  0  0  0  0  0  0  0  0
    8.5296   -5.9814   17.1841 C   0  0  0  0  0  0  0  0  0  0  0  0
    9.1527   -5.2118   16.2116 C   0  0  0  0  0  0  0  0  0  0  0  0
   10.3364   -3.8368   22.9255 O   0  0  0  0  0  0  0  0  0  0  0  0
    9.6947   -4.8407   18.8534 C   0  0  0  0  0  0  0  0  0  0  0  0
    9.1596    1.7042   24.1381 C   0  0  0  0  0  0  0  0  0  0  0  0
   11.0456   -2.9774   18.2694 N   0  0  0  0  0  0  0  0  0  0  0  0
   10.4788   -3.0457   21.8593 C   0  0  0  0  0  0  0  0  0  0  0  0
    8.8693   -5.8099   18.4657 N   0  0  0  0  0  0  0  0  0  0  0  0
    8.9892   -0.7926   25.4573 C   0  0  0  0  0  0  0  0  0  0  0  0
   10.5677   -3.4462   20.5323 C   0  0  0  0  0  0  0  0  0  0  0  0
  1  8  1  0
  1 12  4  0
  1 14  4  0
  2  3  4  0
  2 18  4  0
  3 20  4  0
  3 22  4  0
  4 11  4  0
  4 21  4  0
  5  9  4  0
  5 16  4  0
  6 15  4  0
  6 16  4  0
  7 22  4  0
  7 26  4  0
  8 10  4  0
  8 25  4  0
  9 15  4  0
  9 17  1  0
 10 21  4  0
 11 25  4  0
 12 23  4  0
 13 20  4  0
 13 26  4  0
 14 19  4  0
 17 18  4  0
 17 24  4  0
 19 23  4  0
 20 24  4  0
 23 26  1  0
M  END
$$$$

 Created by Python create_sdf_string function

 26 30  0  0  0  0  0  0  0  0999 V2000
   10.0084   -1.8019   23.4945 C   0  0  0  0  0  0  0  0  0  0  0  0
   10.0005   -4.2520   16.5631 C   0  0  0  0  0  0  0  0  0  0  0  0
   10.2759   -4.0036   17.8845 C   0  0  0  0  0  0  0  0  0  0  0  0
    8.5652    1.5478   25.3778 N   0  0  0  0  0  0  0  0  0  0  0  0
    6.8048   -7.5457   17.8752 C   0  0  0  0  0  0  0  0  0  0  0  0
    6.1721   -8.2186   15.9886 N   0  0  0  0  0  0  0  0  0  0  0  0
   11.1764   -2.6600   19.5604 C   0  0  0  0  0  0  0  0  0  0  0  0
    9.5491   -0.6380   24.1912 C   0  0  0  0  0  0  0  0  0  0  0  0
    7.5337   -6.9256   16.9519 C   0  0  0  0  0  0  0  0  0  0  0  0
    9.6782    0.5671   23.5143 C   0  0  0  0  0  0  0  0  0  0  0  0
    8.4532    0.3482   26.0821 C   0  0  0  0  0  0  0  0  0  0  0  0
   10.4239   -1.7677   22.2230 N   0  0  0  0  0  0  0  0  0  0  0  0
    9.9468   -4.5953   20.1709 C   0  0  0  0  0  0  0  0  0  0  0  0
   10.0366   -3.0590   23.9864 N   0  0  0  0  0  0  0  0  0  0  0  0
    7.1191   -7.3636   15.7739 C   0  0  0  0  0  0  0  0  0  0  0  0
    5.9612   -8.3203   17.2732 N   0  0  0  0  0  0  0  0  0  0  0  0
    8.5296   -5.9814   17.1841 C   0  0  0  0  0  0  0  0  0  0  0  0
    9.1527   -5.2118   16.2116 C   0  0  0  0  0  0  0  0  0  0  0  0
   10.3364   -3.8368   22.9255 O   0  0  0  0  0  0  0  0  0  0  0  0
    9.6947   -4.8407   18.8534 C   0  0  0  0  0  0  0  0  0  0  0  0
    9.1596    1.7042   24.1381 C   0  0  0  0  0  0  0  0  0  0  0  0
   11.0456   -2.9774   18.2694 N   0  0  0  0  0  0  0  0  0  0  0  0
   10.4788   -3.0457   21.8593 C   0  0  0  0  0  0  0  0  0  0  0  0
    8.8693   -5.8099   18.4657 N   0  0  0  0  0  0  0  0  0  0  0  0
    8.9892   -0.7926   25.4573 C   0  0  0  0  0  0  0  0  0  0  0  0
   10.5677   -3.4462   20.5323 C   0  0  0  0  0  0  0  0  0  0  0  0
  1  8  1  0
  1 12  4  0
  1 14  4  0
  2  3  4  0
  2 18  4  0
  3 20  4  0
  3 22  4  0
  4 11  4  0
  4 21  4  0
  5  9  4  0
  5 16  4  0
  6 15  4  0
  6 16  4  0
  7 22  4  0
  7 26  4  0
  8 10  4  0
  8 25  4  0
  9 15  4  0
  9 17  1  0
 10 21  4  0
 11 25  4  0
 12 23  4  0
 13 20  4  0
 13 26  4  0
 14 19  4  0
 17 18  4  0
 17 24  4  0
 19 23  4  0
 20 24  4  0
 23 26  1  0
M  END
$$$$

 Created by Python create_sdf_string function

 26 30  0  0  0  0  0  0  0  0999 V2000
   10.0084   -1.8019   23.4945 C   0  0  0  0  0  0  0  0  0  0  0  0
   10.0005   -4.2520   16.5631 C   0  0  0  0  0  0  0  0  0  0  0  0
   10.2759   -4.0036   17.8845 C   0  0  0  0  0  0  0  0  0  0  0  0
    8.5652    1.5478   25.3778 N   0  0  0  0  0  0  0  0  0  0  0  0
    6.8048   -7.5457   17.8752 C   0  0  0  0  0  0  0  0  0  0  0  0
    6.1721   -8.2186   15.9886 N   0  0  0  0  0  0  0  0  0  0  0  0
   11.1764   -2.6600   19.5604 C   0  0  0  0  0  0  0  0  0  0  0  0
    9.5491   -0.6380   24.1912 C   0  0  0  0  0  0  0  0  0  0  0  0
    7.5337   -6.9256   16.9519 C   0  0  0  0  0  0  0  0  0  0  0  0
    9.6782    0.5671   23.5143 C   0  0  0  0  0  0  0  0  0  0  0  0
    8.4532    0.3482   26.0821 C   0  0  0  0  0  0  0  0  0  0  0  0
   10.4239   -1.7677   22.2230 N   0  0  0  0  0  0  0  0  0  0  0  0
    9.9468   -4.5953   20.1709 C   0  0  0  0  0  0  0  0  0  0  0  0
   10.0366   -3.0590   23.9864 N   0  0  0  0  0  0  0  0  0  0  0  0
    7.1191   -7.3636   15.7739 C   0  0  0  0  0  0  0  0  0  0  0  0
    5.9612   -8.3203   17.2732 N   0  0  0  0  0  0  0  0  0  0  0  0
    8.5296   -5.9814   17.1841 C   0  0  0  0  0  0  0  0  0  0  0  0
    9.1527   -5.2118   16.2116 C   0  0  0  0  0  0  0  0  0  0  0  0
   10.3364   -3.8368   22.9255 O   0  0  0  0  0  0  0  0  0  0  0  0
    9.6947   -4.8407   18.8534 C   0  0  0  0  0  0  0  0  0  0  0  0
    9.1596    1.7042   24.1381 C   0  0  0  0  0  0  0  0  0  0  0  0
   11.0456   -2.9774   18.2694 N   0  0  0  0  0  0  0  0  0  0  0  0
   10.4788   -3.0457   21.8593 C   0  0  0  0  0  0  0  0  0  0  0  0
    8.8693   -5.8099   18.4657 N   0  0  0  0  0  0  0  0  0  0  0  0
    8.9892   -0.7926   25.4573 C   0  0  0  0  0  0  0  0  0  0  0  0
   10.5677   -3.4462   20.5323 C   0  0  0  0  0  0  0  0  0  0  0  0
  1  8  1  0
  1 12  4  0
  1 14  4  0
  2  3  4  0
  2 18  4  0
  3 20  4  0
  3 22  4  0
  4 11  4  0
  4 21  4  0
  5  9  4  0
  5 16  4  0
  6 15  4  0
  6 16  4  0
  7 22  4  0
  7 26  4  0
  8 10  4  0
  8 25  4  0
  9 15  4  0
  9 17  1  0
 10 21  4  0
 11 25  4  0
 12 23  4  0
 13 20  4  0
 13 26  4  0
 14 19  4  0
 17 18  4  0
 17 24  4  0
 19 23  4  0
 20 24  4  0
 23 26  1  0
M  END
$$$$

 Created by Python create_sdf_string function

 26 30  0  0  0  0  0  0  0  0999 V2000
   10.0084   -1.8019   23.4945 C   0  0  0  0  0  0  0  0  0  0  0  0
   10.0005   -4.2520   16.5631 C   0  0  0  0  0  0  0  0  0  0  0  0
   10.2759   -4.0036   17.8845 C   0  0  0  0  0  0  0  0  0  0  0  0
    8.5652    1.5478   25.3778 N   0  0  0  0  0  0  0  0  0  0  0  0
    6.8048   -7.5457   17.8752 C   0  0  0  0  0  0  0  0  0  0  0  0
    6.1721   -8.2186   15.9886 N   0  0  0  0  0  0  0  0  0  0  0  0
   11.1764   -2.6600   19.5604 C   0  0  0  0  0  0  0  0  0  0  0  0
    9.5491   -0.6380   24.1912 C   0  0  0  0  0  0  0  0  0  0  0  0
    7.5337   -6.9256   16.9519 C   0  0  0  0  0  0  0  0  0  0  0  0
    9.6782    0.5671   23.5143 C   0  0  0  0  0  0  0  0  0  0  0  0
    8.4532    0.3482   26.0821 C   0  0  0  0  0  0  0  0  0  0  0  0
   10.4239   -1.7677   22.2230 N   0  0  0  0  0  0  0  0  0  0  0  0
    9.9468   -4.5953   20.1709 C   0  0  0  0  0  0  0  0  0  0  0  0
   10.0366   -3.0590   23.9864 N   0  0  0  0  0  0  0  0  0  0  0  0
    7.1191   -7.3636   15.7739 C   0  0  0  0  0  0  0  0  0  0  0  0
    5.9612   -8.3203   17.2732 N   0  0  0  0  0  0  0  0  0  0  0  0
    8.5296   -5.9814   17.1841 C   0  0  0  0  0  0  0  0  0  0  0  0
    9.1527   -5.2118   16.2116 C   0  0  0  0  0  0  0  0  0  0  0  0
   10.3364   -3.8368   22.9255 O   0  0  0  0  0  0  0  0  0  0  0  0
    9.6947   -4.8407   18.8534 C   0  0  0  0  0  0  0  0  0  0  0  0
    9.1596    1.7042   24.1381 C   0  0  0  0  0  0  0  0  0  0  0  0
   11.0456   -2.9774   18.2694 N   0  0  0  0  0  0  0  0  0  0  0  0
   10.4788   -3.0457   21.8593 C   0  0  0  0  0  0  0  0  0  0  0  0
    8.8693   -5.8099   18.4657 N   0  0  0  0  0  0  0  0  0  0  0  0
    8.9892   -0.7926   25.4573 C   0  0  0  0  0  0  0  0  0  0  0  0
   10.5677   -3.4462   20.5323 C   0  0  0  0  0  0  0  0  0  0  0  0
  1  8  1  0
  1 12  4  0
  1 14  4  0
  2  3  4  0
  2 18  4  0
  3 20  4  0
  3 22  4  0
  4 11  4  0
  4 21  4  0
  5  9  4  0
  5 16  4  0
  6 15  4  0
  6 16  4  0
  7 22  4  0
  7 26  4  0
  8 10  4  0
  8 25  4  0
  9 15  4  0
  9 17  1  0
 10 21  4  0
 11 25  4  0
 12 23  4  0
 13 20  4  0
 13 26  4  0
 14 19  4  0
 17 18  4  0
 17 24  4  0
 19 23  4  0
 20 24  4  0
 23 26  1  0
M  END
$$$$

 Created by Python create_sdf_string function

 26 30  0  0  0  0  0  0  0  0999 V2000
   10.0084   -1.8019   23.4945 C   0  0  0  0  0  0  0  0  0  0  0  0
   10.0005   -4.2520   16.5631 C   0  0  0  0  0  0  0  0  0  0  0  0
   10.2759   -4.0036   17.8845 C   0  0  0  0  0  0  0  0  0  0  0  0
    8.5652    1.5478   25.3778 N   0  0  0  0  0  0  0  0  0  0  0  0
    6.8048   -7.5457   17.8752 C   0  0  0  0  0  0  0  0  0  0  0  0
    6.1721   -8.2186   15.9886 N   0  0  0  0  0  0  0  0  0  0  0  0
   11.1764   -2.6600   19.5604 C   0  0  0  0  0  0  0  0  0  0  0  0
    9.5491   -0.6380   24.1912 C   0  0  0  0  0  0  0  0  0  0  0  0
    7.5337   -6.9256   16.9519 C   0  0  0  0  0  0  0  0  0  0  0  0
    9.6782    0.5671   23.5143 C   0  0  0  0  0  0  0  0  0  0  0  0
    8.4532    0.3482   26.0821 C   0  0  0  0  0  0  0  0  0  0  0  0
   10.4239   -1.7677   22.2230 N   0  0  0  0  0  0  0  0  0  0  0  0
    9.9468   -4.5953   20.1709 C   0  0  0  0  0  0  0  0  0  0  0  0
   10.0366   -3.0590   23.9864 N   0  0  0  0  0  0  0  0  0  0  0  0
    7.1191   -7.3636   15.7739 C   0  0  0  0  0  0  0  0  0  0  0  0
    5.9612   -8.3203   17.2732 N   0  0  0  0  0  0  0  0  0  0  0  0
    8.5296   -5.9814   17.1841 C   0  0  0  0  0  0  0  0  0  0  0  0
    9.1527   -5.2118   16.2116 C   0  0  0  0  0  0  0  0  0  0  0  0
   10.3364   -3.8368   22.9255 O   0  0  0  0  0  0  0  0  0  0  0  0
    9.6947   -4.8407   18.8534 C   0  0  0  0  0  0  0  0  0  0  0  0
    9.1596    1.7042   24.1381 C   0  0  0  0  0  0  0  0  0  0  0  0
   11.0456   -2.9774   18.2694 N   0  0  0  0  0  0  0  0  0  0  0  0
   10.4788   -3.0457   21.8593 C   0  0  0  0  0  0  0  0  0  0  0  0
    8.8693   -5.8099   18.4657 N   0  0  0  0  0  0  0  0  0  0  0  0
    8.9892   -0.7926   25.4573 C   0  0  0  0  0  0  0  0  0  0  0  0
   10.5677   -3.4462   20.5323 C   0  0  0  0  0  0  0  0  0  0  0  0
  1  8  1  0
  1 12  4  0
  1 14  4  0
  2  3  4  0
  2 18  4  0
  3 20  4  0
  3 22  4  0
  4 11  4  0
  4 21  4  0
  5  9  4  0
  5 16  4  0
  6 15  4  0
  6 16  4  0
  7 22  4  0
  7 26  4  0
  8 10  4  0
  8 25  4  0
  9 15  4  0
  9 17  1  0
 10 21  4  0
 11 25  4  0
 12 23  4  0
 13 20  4  0
 13 26  4  0
 14 19  4  0
 17 18  4  0
 17 24  4  0
 19 23  4  0
 20 24  4  0
 23 26  1  0
M  END
$$$$

 Created by Python create_sdf_string function

 26 30  0  0  0  0  0  0  0  0999 V2000
   10.0084   -1.8019   23.4945 C   0  0  0  0  0  0  0  0  0  0  0  0
   10.0005   -4.2520   16.5631 C   0  0  0  0  0  0  0  0  0  0  0  0
   10.2759   -4.0036   17.8845 C   0  0  0  0  0  0  0  0  0  0  0  0
    8.5652    1.5478   25.3778 N   0  0  0  0  0  0  0  0  0  0  0  0
    6.8048   -7.5457   17.8752 C   0  0  0  0  0  0  0  0  0  0  0  0
    6.1721   -8.2186   15.9886 N   0  0  0  0  0  0  0  0  0  0  0  0
   11.1764   -2.6600   19.5604 C   0  0  0  0  0  0  0  0  0  0  0  0
    9.5491   -0.6380   24.1912 C   0  0  0  0  0  0  0  0  0  0  0  0
    7.5337   -6.9256   16.9519 C   0  0  0  0  0  0  0  0  0  0  0  0
    9.6782    0.5671   23.5143 C   0  0  0  0  0  0  0  0  0  0  0  0
    8.4532    0.3482   26.0821 C   0  0  0  0  0  0  0  0  0  0  0  0
   10.4239   -1.7677   22.2230 N   0  0  0  0  0  0  0  0  0  0  0  0
    9.9468   -4.5953   20.1709 C   0  0  0  0  0  0  0  0  0  0  0  0
   10.0366   -3.0590   23.9864 N   0  0  0  0  0  0  0  0  0  0  0  0
    7.1191   -7.3636   15.7739 C   0  0  0  0  0  0  0  0  0  0  0  0
    5.9612   -8.3203   17.2732 N   0  0  0  0  0  0  0  0  0  0  0  0
    8.5296   -5.9814   17.1841 C   0  0  0  0  0  0  0  0  0  0  0  0
    9.1527   -5.2118   16.2116 C   0  0  0  0  0  0  0  0  0  0  0  0
   10.3364   -3.8368   22.9255 O   0  0  0  0  0  0  0  0  0  0  0  0
    9.6947   -4.8407   18.8534 C   0  0  0  0  0  0  0  0  0  0  0  0
    9.1596    1.7042   24.1381 C   0  0  0  0  0  0  0  0  0  0  0  0
   11.0456   -2.9774   18.2694 N   0  0  0  0  0  0  0  0  0  0  0  0
   10.4788   -3.0457   21.8593 C   0  0  0  0  0  0  0  0  0  0  0  0
    8.8693   -5.8099   18.4657 N   0  0  0  0  0  0  0  0  0  0  0  0
    8.9892   -0.7926   25.4573 C   0  0  0  0  0  0  0  0  0  0  0  0
   10.5677   -3.4462   20.5323 C   0  0  0  0  0  0  0  0  0  0  0  0
  1  8  1  0
  1 12  4  0
  1 14  4  0
  2  3  4  0
  2 18  4  0
  3 20  4  0
  3 22  4  0
  4 11  4  0
  4 21  4  0
  5  9  4  0
  5 16  4  0
  6 15  4  0
  6 16  4  0
  7 22  4  0
  7 26  4  0
  8 10  4  0
  8 25  4  0
  9 15  4  0
  9 17  1  0
 10 21  4  0
 11 25  4  0
 12 23  4  0
 13 20  4  0
 13 26  4  0
 14 19  4  0
 17 18  4  0
 17 24  4  0
 19 23  4  0
 20 24  4  0
 23 26  1  0
M  END
$$$$

 Created by Python create_sdf_string function

 26 30  0  0  0  0  0  0  0  0999 V2000
   10.0084   -1.8019   23.4945 C   0  0  0  0  0  0  0  0  0  0  0  0
   10.0005   -4.2520   16.5631 C   0  0  0  0  0  0  0  0  0  0  0  0
   10.2759   -4.0036   17.8845 C   0  0  0  0  0  0  0  0  0  0  0  0
    8.5652    1.5478   25.3778 N   0  0  0  0  0  0  0  0  0  0  0  0
    6.8048   -7.5457   17.8752 C   0  0  0  0  0  0  0  0  0  0  0  0
    6.1721   -8.2186   15.9886 N   0  0  0  0  0  0  0  0  0  0  0  0
   11.1764   -2.6600   19.5604 C   0  0  0  0  0  0  0  0  0  0  0  0
    9.5491   -0.6380   24.1912 C   0  0  0  0  0  0  0  0  0  0  0  0
    7.5337   -6.9256   16.9519 C   0  0  0  0  0  0  0  0  0  0  0  0
    9.6782    0.5671   23.5143 C   0  0  0  0  0  0  0  0  0  0  0  0
    8.4532    0.3482   26.0821 C   0  0  0  0  0  0  0  0  0  0  0  0
   10.4239   -1.7677   22.2230 N   0  0  0  0  0  0  0  0  0  0  0  0
    9.9468   -4.5953   20.1709 C   0  0  0  0  0  0  0  0  0  0  0  0
   10.0366   -3.0590   23.9864 N   0  0  0  0  0  0  0  0  0  0  0  0
    7.1191   -7.3636   15.7739 C   0  0  0  0  0  0  0  0  0  0  0  0
    5.9612   -8.3203   17.2732 N   0  0  0  0  0  0  0  0  0  0  0  0
    8.5296   -5.9814   17.1841 C   0  0  0  0  0  0  0  0  0  0  0  0
    9.1527   -5.2118   16.2116 C   0  0  0  0  0  0  0  0  0  0  0  0
   10.3364   -3.8368   22.9255 O   0  0  0  0  0  0  0  0  0  0  0  0
    9.6947   -4.8407   18.8534 C   0  0  0  0  0  0  0  0  0  0  0  0
    9.1596    1.7042   24.1381 C   0  0  0  0  0  0  0  0  0  0  0  0
   11.0456   -2.9774   18.2694 N   0  0  0  0  0  0  0  0  0  0  0  0
   10.4788   -3.0457   21.8593 C   0  0  0  0  0  0  0  0  0  0  0  0
    8.8693   -5.8099   18.4657 N   0  0  0  0  0  0  0  0  0  0  0  0
    8.9892   -0.7926   25.4573 C   0  0  0  0  0  0  0  0  0  0  0  0
   10.5677   -3.4462   20.5323 C   0  0  0  0  0  0  0  0  0  0  0  0
  1  8  1  0
  1 12  4  0
  1 14  4  0
  2  3  4  0
  2 18  4  0
  3 20  4  0
  3 22  4  0
  4 11  4  0
  4 21  4  0
  5  9  4  0
  5 16  4  0
  6 15  4  0
  6 16  4  0
  7 22  4  0
  7 26  4  0
  8 10  4  0
  8 25  4  0
  9 15  4  0
  9 17  1  0
 10 21  4  0
 11 25  4  0
 12 23  4  0
 13 20  4  0
 13 26  4  0
 14 19  4  0
 17 18  4  0
 17 24  4  0
 19 23  4  0
 20 24  4  0
 23 26  1  0
M  END
$$$$

 Created by Python create_sdf_string function

 26 30  0  0  0  0  0  0  0  0999 V2000
   10.0084   -1.8019   23.4945 C   0  0  0  0  0  0  0  0  0  0  0  0
   10.0005   -4.2520   16.5631 C   0  0  0  0  0  0  0  0  0  0  0  0
   10.2759   -4.0036   17.8845 C   0  0  0  0  0  0  0  0  0  0  0  0
    8.5652    1.5478   25.3778 N   0  0  0  0  0  0  0  0  0  0  0  0
    6.8048   -7.5457   17.8752 C   0  0  0  0  0  0  0  0  0  0  0  0
    6.1721   -8.2186   15.9886 N   0  0  0  0  0  0  0  0  0  0  0  0
   11.1764   -2.6600   19.5604 C   0  0  0  0  0  0  0  0  0  0  0  0
    9.5491   -0.6380   24.1912 C   0  0  0  0  0  0  0  0  0  0  0  0
    7.5337   -6.9256   16.9519 C   0  0  0  0  0  0  0  0  0  0  0  0
    9.6782    0.5671   23.5143 C   0  0  0  0  0  0  0  0  0  0  0  0
    8.4532    0.3482   26.0821 C   0  0  0  0  0  0  0  0  0  0  0  0
   10.4239   -1.7677   22.2230 N   0  0  0  0  0  0  0  0  0  0  0  0
    9.9468   -4.5953   20.1709 C   0  0  0  0  0  0  0  0  0  0  0  0
   10.0366   -3.0590   23.9864 N   0  0  0  0  0  0  0  0  0  0  0  0
    7.1191   -7.3636   15.7739 C   0  0  0  0  0  0  0  0  0  0  0  0
    5.9612   -8.3203   17.2732 N   0  0  0  0  0  0  0  0  0  0  0  0
    8.5296   -5.9814   17.1841 C   0  0  0  0  0  0  0  0  0  0  0  0
    9.1527   -5.2118   16.2116 C   0  0  0  0  0  0  0  0  0  0  0  0
   10.3364   -3.8368   22.9255 O   0  0  0  0  0  0  0  0  0  0  0  0
    9.6947   -4.8407   18.8534 C   0  0  0  0  0  0  0  0  0  0  0  0
    9.1596    1.7042   24.1381 C   0  0  0  0  0  0  0  0  0  0  0  0
   11.0456   -2.9774   18.2694 N   0  0  0  0  0  0  0  0  0  0  0  0
   10.4788   -3.0457   21.8593 C   0  0  0  0  0  0  0  0  0  0  0  0
    8.8693   -5.8099   18.4657 N   0  0  0  0  0  0  0  0  0  0  0  0
    8.9892   -0.7926   25.4573 C   0  0  0  0  0  0  0  0  0  0  0  0
   10.5677   -3.4462   20.5323 C   0  0  0  0  0  0  0  0  0  0  0  0
  1  8  1  0
  1 12  4  0
  1 14  4  0
  2  3  4  0
  2 18  4  0
  3 20  4  0
  3 22  4  0
  4 11  4  0
  4 21  4  0
  5  9  4  0
  5 16  4  0
  6 15  4  0
  6 16  4  0
  7 22  4  0
  7 26  4  0
  8 10  4  0
  8 25  4  0
  9 15  4  0
  9 17  1  0
 10 21  4  0
 11 25  4  0
 12 23  4  0
 13 20  4  0
 13 26  4  0
 14 19  4  0
 17 18  4  0
 17 24  4  0
 19 23  4  0
 20 24  4  0
 23 26  1  0
M  END
$$$$

 Created by Python create_sdf_string function

 26 30  0  0  0  0  0  0  0  0999 V2000
   10.0084   -1.8019   23.4945 C   0  0  0  0  0  0  0  0  0  0  0  0
   10.0005   -4.2520   16.5631 C   0  0  0  0  0  0  0  0  0  0  0  0
   10.2759   -4.0036   17.8845 C   0  0  0  0  0  0  0  0  0  0  0  0
    8.5652    1.5478   25.3778 N   0  0  0  0  0  0  0  0  0  0  0  0
    6.8048   -7.5457   17.8752 C   0  0  0  0  0  0  0  0  0  0  0  0
    6.1721   -8.2186   15.9886 N   0  0  0  0  0  0  0  0  0  0  0  0
   11.1764   -2.6600   19.5604 C   0  0  0  0  0  0  0  0  0  0  0  0
    9.5491   -0.6380   24.1912 C   0  0  0  0  0  0  0  0  0  0  0  0
    7.5337   -6.9256   16.9519 C   0  0  0  0  0  0  0  0  0  0  0  0
    9.6782    0.5671   23.5143 C   0  0  0  0  0  0  0  0  0  0  0  0
    8.4532    0.3482   26.0821 C   0  0  0  0  0  0  0  0  0  0  0  0
   10.4239   -1.7677   22.2230 N   0  0  0  0  0  0  0  0  0  0  0  0
    9.9468   -4.5953   20.1709 C   0  0  0  0  0  0  0  0  0  0  0  0
   10.0366   -3.0590   23.9864 N   0  0  0  0  0  0  0  0  0  0  0  0
    7.1191   -7.3636   15.7739 C   0  0  0  0  0  0  0  0  0  0  0  0
    5.9612   -8.3203   17.2732 N   0  0  0  0  0  0  0  0  0  0  0  0
    8.5296   -5.9814   17.1841 C   0  0  0  0  0  0  0  0  0  0  0  0
    9.1527   -5.2118   16.2116 C   0  0  0  0  0  0  0  0  0  0  0  0
   10.3364   -3.8368   22.9255 O   0  0  0  0  0  0  0  0  0  0  0  0
    9.6947   -4.8407   18.8534 C   0  0  0  0  0  0  0  0  0  0  0  0
    9.1596    1.7042   24.1381 C   0  0  0  0  0  0  0  0  0  0  0  0
   11.0456   -2.9774   18.2694 N   0  0  0  0  0  0  0  0  0  0  0  0
   10.4788   -3.0457   21.8593 C   0  0  0  0  0  0  0  0  0  0  0  0
    8.8693   -5.8099   18.4657 N   0  0  0  0  0  0  0  0  0  0  0  0
    8.9892   -0.7926   25.4573 C   0  0  0  0  0  0  0  0  0  0  0  0
   10.5677   -3.4462   20.5323 C   0  0  0  0  0  0  0  0  0  0  0  0
  1  8  1  0
  1 12  4  0
  1 14  4  0
  2  3  4  0
  2 18  4  0
  3 20  4  0
  3 22  4  0
  4 11  4  0
  4 21  4  0
  5  9  4  0
  5 16  4  0
  6 15  4  0
  6 16  4  0
  7 22  4  0
  7 26  4  0
  8 10  4  0
  8 25  4  0
  9 15  4  0
  9 17  1  0
 10 21  4  0
 11 25  4  0
 12 23  4  0
 13 20  4  0
 13 26  4  0
 14 19  4  0
 17 18  4  0
 17 24  4  0
 19 23  4  0
 20 24  4  0
 23 26  1  0
M  END
$$$$

 Created by Python create_sdf_string function

 26 30  0  0  0  0  0  0  0  0999 V2000
   10.0084   -1.8019   23.4945 C   0  0  0  0  0  0  0  0  0  0  0  0
   10.0005   -4.2520   16.5631 C   0  0  0  0  0  0  0  0  0  0  0  0
   10.2759   -4.0036   17.8845 C   0  0  0  0  0  0  0  0  0  0  0  0
    8.5652    1.5478   25.3778 N   0  0  0  0  0  0  0  0  0  0  0  0
    6.8048   -7.5457   17.8752 C   0  0  0  0  0  0  0  0  0  0  0  0
    6.1721   -8.2186   15.9886 N   0  0  0  0  0  0  0  0  0  0  0  0
   11.1764   -2.6600   19.5604 C   0  0  0  0  0  0  0  0  0  0  0  0
    9.5491   -0.6380   24.1912 C   0  0  0  0  0  0  0  0  0  0  0  0
    7.5337   -6.9256   16.9519 C   0  0  0  0  0  0  0  0  0  0  0  0
    9.6782    0.5671   23.5143 C   0  0  0  0  0  0  0  0  0  0  0  0
    8.4532    0.3482   26.0821 C   0  0  0  0  0  0  0  0  0  0  0  0
   10.4239   -1.7677   22.2230 N   0  0  0  0  0  0  0  0  0  0  0  0
    9.9468   -4.5953   20.1709 C   0  0  0  0  0  0  0  0  0  0  0  0
   10.0366   -3.0590   23.9864 N   0  0  0  0  0  0  0  0  0  0  0  0
    7.1191   -7.3636   15.7739 C   0  0  0  0  0  0  0  0  0  0  0  0
    5.9612   -8.3203   17.2732 N   0  0  0  0  0  0  0  0  0  0  0  0
    8.5296   -5.9814   17.1841 C   0  0  0  0  0  0  0  0  0  0  0  0
    9.1527   -5.2118   16.2116 C   0  0  0  0  0  0  0  0  0  0  0  0
   10.3364   -3.8368   22.9255 O   0  0  0  0  0  0  0  0  0  0  0  0
    9.6947   -4.8407   18.8534 C   0  0  0  0  0  0  0  0  0  0  0  0
    9.1596    1.7042   24.1381 C   0  0  0  0  0  0  0  0  0  0  0  0
   11.0456   -2.9774   18.2694 N   0  0  0  0  0  0  0  0  0  0  0  0
   10.4788   -3.0457   21.8593 C   0  0  0  0  0  0  0  0  0  0  0  0
    8.8693   -5.8099   18.4657 N   0  0  0  0  0  0  0  0  0  0  0  0
    8.9892   -0.7926   25.4573 C   0  0  0  0  0  0  0  0  0  0  0  0
   10.5677   -3.4462   20.5323 C   0  0  0  0  0  0  0  0  0  0  0  0
  1  8  1  0
  1 12  4  0
  1 14  4  0
  2  3  4  0
  2 18  4  0
  3 20  4  0
  3 22  4  0
  4 11  4  0
  4 21  4  0
  5  9  4  0
  5 16  4  0
  6 15  4  0
  6 16  4  0
  7 22  4  0
  7 26  4  0
  8 10  4  0
  8 25  4  0
  9 15  4  0
  9 17  1  0
 10 21  4  0
 11 25  4  0
 12 23  4  0
 13 20  4  0
 13 26  4  0
 14 19  4  0
 17 18  4  0
 17 24  4  0
 19 23  4  0
 20 24  4  0
 23 26  1  0
M  END
$$$$

 Created by Python create_sdf_string function

 26 30  0  0  0  0  0  0  0  0999 V2000
   10.0084   -1.8019   23.4945 C   0  0  0  0  0  0  0  0  0  0  0  0
   10.0005   -4.2520   16.5631 C   0  0  0  0  0  0  0  0  0  0  0  0
   10.2759   -4.0036   17.8845 C   0  0  0  0  0  0  0  0  0  0  0  0
    8.5652    1.5478   25.3778 N   0  0  0  0  0  0  0  0  0  0  0  0
    6.8048   -7.5457   17.8752 C   0  0  0  0  0  0  0  0  0  0  0  0
    6.1721   -8.2186   15.9886 N   0  0  0  0  0  0  0  0  0  0  0  0
   11.1764   -2.6600   19.5604 C   0  0  0  0  0  0  0  0  0  0  0  0
    9.5491   -0.6380   24.1912 C   0  0  0  0  0  0  0  0  0  0  0  0
    7.5337   -6.9256   16.9519 C   0  0  0  0  0  0  0  0  0  0  0  0
    9.6782    0.5671   23.5143 C   0  0  0  0  0  0  0  0  0  0  0  0
    8.4532    0.3482   26.0821 C   0  0  0  0  0  0  0  0  0  0  0  0
   10.4239   -1.7677   22.2230 N   0  0  0  0  0  0  0  0  0  0  0  0
    9.9468   -4.5953   20.1709 C   0  0  0  0  0  0  0  0  0  0  0  0
   10.0366   -3.0590   23.9864 N   0  0  0  0  0  0  0  0  0  0  0  0
    7.1191   -7.3636   15.7739 C   0  0  0  0  0  0  0  0  0  0  0  0
    5.9612   -8.3203   17.2732 N   0  0  0  0  0  0  0  0  0  0  0  0
    8.5296   -5.9814   17.1841 C   0  0  0  0  0  0  0  0  0  0  0  0
    9.1527   -5.2118   16.2116 C   0  0  0  0  0  0  0  0  0  0  0  0
   10.3364   -3.8368   22.9255 O   0  0  0  0  0  0  0  0  0  0  0  0
    9.6947   -4.8407   18.8534 C   0  0  0  0  0  0  0  0  0  0  0  0
    9.1596    1.7042   24.1381 C   0  0  0  0  0  0  0  0  0  0  0  0
   11.0456   -2.9774   18.2694 N   0  0  0  0  0  0  0  0  0  0  0  0
   10.4788   -3.0457   21.8593 C   0  0  0  0  0  0  0  0  0  0  0  0
    8.8693   -5.8099   18.4657 N   0  0  0  0  0  0  0  0  0  0  0  0
    8.9892   -0.7926   25.4573 C   0  0  0  0  0  0  0  0  0  0  0  0
   10.5677   -3.4462   20.5323 C   0  0  0  0  0  0  0  0  0  0  0  0
  1  8  1  0
  1 12  4  0
  1 14  4  0
  2  3  4  0
  2 18  4  0
  3 20  4  0
  3 22  4  0
  4 11  4  0
  4 21  4  0
  5  9  4  0
  5 16  4  0
  6 15  4  0
  6 16  4  0
  7 22  4  0
  7 26  4  0
  8 10  4  0
  8 25  4  0
  9 15  4  0
  9 17  1  0
 10 21  4  0
 11 25  4  0
 12 23  4  0
 13 20  4  0
 13 26  4  0
 14 19  4  0
 17 18  4  0
 17 24  4  0
 19 23  4  0
 20 24  4  0
 23 26  1  0
M  END
$$$$

 Created by Python create_sdf_string function

 26 30  0  0  0  0  0  0  0  0999 V2000
   10.0084   -1.8019   23.4945 C   0  0  0  0  0  0  0  0  0  0  0  0
   10.0005   -4.2520   16.5631 C   0  0  0  0  0  0  0  0  0  0  0  0
   10.2759   -4.0036   17.8845 C   0  0  0  0  0  0  0  0  0  0  0  0
    8.5652    1.5478   25.3778 N   0  0  0  0  0  0  0  0  0  0  0  0
    6.8048   -7.5457   17.8752 C   0  0  0  0  0  0  0  0  0  0  0  0
    6.1721   -8.2186   15.9886 N   0  0  0  0  0  0  0  0  0  0  0  0
   11.1764   -2.6600   19.5604 C   0  0  0  0  0  0  0  0  0  0  0  0
    9.5491   -0.6380   24.1912 C   0  0  0  0  0  0  0  0  0  0  0  0
    7.5337   -6.9256   16.9519 C   0  0  0  0  0  0  0  0  0  0  0  0
    9.6782    0.5671   23.5143 C   0  0  0  0  0  0  0  0  0  0  0  0
    8.4532    0.3482   26.0821 C   0  0  0  0  0  0  0  0  0  0  0  0
   10.4239   -1.7677   22.2230 N   0  0  0  0  0  0  0  0  0  0  0  0
    9.9468   -4.5953   20.1709 C   0  0  0  0  0  0  0  0  0  0  0  0
   10.0366   -3.0590   23.9864 N   0  0  0  0  0  0  0  0  0  0  0  0
    7.1191   -7.3636   15.7739 C   0  0  0  0  0  0  0  0  0  0  0  0
    5.9612   -8.3203   17.2732 N   0  0  0  0  0  0  0  0  0  0  0  0
    8.5296   -5.9814   17.1841 C   0  0  0  0  0  0  0  0  0  0  0  0
    9.1527   -5.2118   16.2116 C   0  0  0  0  0  0  0  0  0  0  0  0
   10.3364   -3.8368   22.9255 O   0  0  0  0  0  0  0  0  0  0  0  0
    9.6947   -4.8407   18.8534 C   0  0  0  0  0  0  0  0  0  0  0  0
    9.1596    1.7042   24.1381 C   0  0  0  0  0  0  0  0  0  0  0  0
   11.0456   -2.9774   18.2694 N   0  0  0  0  0  0  0  0  0  0  0  0
   10.4788   -3.0457   21.8593 C   0  0  0  0  0  0  0  0  0  0  0  0
    8.8693   -5.8099   18.4657 N   0  0  0  0  0  0  0  0  0  0  0  0
    8.9892   -0.7926   25.4573 C   0  0  0  0  0  0  0  0  0  0  0  0
   10.5677   -3.4462   20.5323 C   0  0  0  0  0  0  0  0  0  0  0  0
  1  8  1  0
  1 12  4  0
  1 14  4  0
  2  3  4  0
  2 18  4  0
  3 20  4  0
  3 22  4  0
  4 11  4  0
  4 21  4  0
  5  9  4  0
  5 16  4  0
  6 15  4  0
  6 16  4  0
  7 22  4  0
  7 26  4  0
  8 10  4  0
  8 25  4  0
  9 15  4  0
  9 17  1  0
 10 21  4  0
 11 25  4  0
 12 23  4  0
 13 20  4  0
 13 26  4  0
 14 19  4  0
 17 18  4  0
 17 24  4  0
 19 23  4  0
 20 24  4  0
 23 26  1  0
M  END
$$$$

 Created by Python create_sdf_string function

 26 30  0  0  0  0  0  0  0  0999 V2000
   10.0084   -1.8019   23.4945 C   0  0  0  0  0  0  0  0  0  0  0  0
   10.0005   -4.2520   16.5631 C   0  0  0  0  0  0  0  0  0  0  0  0
   10.2759   -4.0036   17.8845 C   0  0  0  0  0  0  0  0  0  0  0  0
    8.5652    1.5478   25.3778 N   0  0  0  0  0  0  0  0  0  0  0  0
    6.8048   -7.5457   17.8752 C   0  0  0  0  0  0  0  0  0  0  0  0
    6.1721   -8.2186   15.9886 N   0  0  0  0  0  0  0  0  0  0  0  0
   11.1764   -2.6600   19.5604 C   0  0  0  0  0  0  0  0  0  0  0  0
    9.5491   -0.6380   24.1912 C   0  0  0  0  0  0  0  0  0  0  0  0
    7.5337   -6.9256   16.9519 C   0  0  0  0  0  0  0  0  0  0  0  0
    9.6782    0.5671   23.5143 C   0  0  0  0  0  0  0  0  0  0  0  0
    8.4532    0.3482   26.0821 C   0  0  0  0  0  0  0  0  0  0  0  0
   10.4239   -1.7677   22.2230 N   0  0  0  0  0  0  0  0  0  0  0  0
    9.9468   -4.5953   20.1709 C   0  0  0  0  0  0  0  0  0  0  0  0
   10.0366   -3.0590   23.9864 N   0  0  0  0  0  0  0  0  0  0  0  0
    7.1191   -7.3636   15.7739 C   0  0  0  0  0  0  0  0  0  0  0  0
    5.9612   -8.3203   17.2732 N   0  0  0  0  0  0  0  0  0  0  0  0
    8.5296   -5.9814   17.1841 C   0  0  0  0  0  0  0  0  0  0  0  0
    9.1527   -5.2118   16.2116 C   0  0  0  0  0  0  0  0  0  0  0  0
   10.3364   -3.8368   22.9255 O   0  0  0  0  0  0  0  0  0  0  0  0
    9.6947   -4.8407   18.8534 C   0  0  0  0  0  0  0  0  0  0  0  0
    9.1596    1.7042   24.1381 C   0  0  0  0  0  0  0  0  0  0  0  0
   11.0456   -2.9774   18.2694 N   0  0  0  0  0  0  0  0  0  0  0  0
   10.4788   -3.0457   21.8593 C   0  0  0  0  0  0  0  0  0  0  0  0
    8.8693   -5.8099   18.4657 N   0  0  0  0  0  0  0  0  0  0  0  0
    8.9892   -0.7926   25.4573 C   0  0  0  0  0  0  0  0  0  0  0  0
   10.5677   -3.4462   20.5323 C   0  0  0  0  0  0  0  0  0  0  0  0
  1  8  1  0
  1 12  4  0
  1 14  4  0
  2  3  4  0
  2 18  4  0
  3 20  4  0
  3 22  4  0
  4 11  4  0
  4 21  4  0
  5  9  4  0
  5 16  4  0
  6 15  4  0
  6 16  4  0
  7 22  4  0
  7 26  4  0
  8 10  4  0
  8 25  4  0
  9 15  4  0
  9 17  1  0
 10 21  4  0
 11 25  4  0
 12 23  4  0
 13 20  4  0
 13 26  4  0
 14 19  4  0
 17 18  4  0
 17 24  4  0
 19 23  4  0
 20 24  4  0
 23 26  1  0
M  END
$$$$

 Created by Python create_sdf_string function

 26 30  0  0  0  0  0  0  0  0999 V2000
   10.0084   -1.8019   23.4945 C   0  0  0  0  0  0  0  0  0  0  0  0
   10.0005   -4.2520   16.5631 C   0  0  0  0  0  0  0  0  0  0  0  0
   10.2759   -4.0036   17.8845 C   0  0  0  0  0  0  0  0  0  0  0  0
    8.5652    1.5478   25.3778 N   0  0  0  0  0  0  0  0  0  0  0  0
    6.8048   -7.5457   17.8752 C   0  0  0  0  0  0  0  0  0  0  0  0
    6.1721   -8.2186   15.9886 N   0  0  0  0  0  0  0  0  0  0  0  0
   11.1764   -2.6600   19.5604 C   0  0  0  0  0  0  0  0  0  0  0  0
    9.5491   -0.6380   24.1912 C   0  0  0  0  0  0  0  0  0  0  0  0
    7.5337   -6.9256   16.9519 C   0  0  0  0  0  0  0  0  0  0  0  0
    9.6782    0.5671   23.5143 C   0  0  0  0  0  0  0  0  0  0  0  0
    8.4532    0.3482   26.0821 C   0  0  0  0  0  0  0  0  0  0  0  0
   10.4239   -1.7677   22.2230 N   0  0  0  0  0  0  0  0  0  0  0  0
    9.9468   -4.5953   20.1709 C   0  0  0  0  0  0  0  0  0  0  0  0
   10.0366   -3.0590   23.9864 N   0  0  0  0  0  0  0  0  0  0  0  0
    7.1191   -7.3636   15.7739 C   0  0  0  0  0  0  0  0  0  0  0  0
    5.9612   -8.3203   17.2732 N   0  0  0  0  0  0  0  0  0  0  0  0
    8.5296   -5.9814   17.1841 C   0  0  0  0  0  0  0  0  0  0  0  0
    9.1527   -5.2118   16.2116 C   0  0  0  0  0  0  0  0  0  0  0  0
   10.3364   -3.8368   22.9255 O   0  0  0  0  0  0  0  0  0  0  0  0
    9.6947   -4.8407   18.8534 C   0  0  0  0  0  0  0  0  0  0  0  0
    9.1596    1.7042   24.1381 C   0  0  0  0  0  0  0  0  0  0  0  0
   11.0456   -2.9774   18.2694 N   0  0  0  0  0  0  0  0  0  0  0  0
   10.4788   -3.0457   21.8593 C   0  0  0  0  0  0  0  0  0  0  0  0
    8.8693   -5.8099   18.4657 N   0  0  0  0  0  0  0  0  0  0  0  0
    8.9892   -0.7926   25.4573 C   0  0  0  0  0  0  0  0  0  0  0  0
   10.5677   -3.4462   20.5323 C   0  0  0  0  0  0  0  0  0  0  0  0
  1  8  1  0
  1 12  4  0
  1 14  4  0
  2  3  4  0
  2 18  4  0
  3 20  4  0
  3 22  4  0
  4 11  4  0
  4 21  4  0
  5  9  4  0
  5 16  4  0
  6 15  4  0
  6 16  4  0
  7 22  4  0
  7 26  4  0
  8 10  4  0
  8 25  4  0
  9 15  4  0
  9 17  1  0
 10 21  4  0
 11 25  4  0
 12 23  4  0
 13 20  4  0
 13 26  4  0
 14 19  4  0
 17 18  4  0
 17 24  4  0
 19 23  4  0
 20 24  4  0
 23 26  1  0
M  END
$$$$

 Created by Python create_sdf_string function

 26 30  0  0  0  0  0  0  0  0999 V2000
   10.0084   -1.8019   23.4945 C   0  0  0  0  0  0  0  0  0  0  0  0
   10.0005   -4.2520   16.5631 C   0  0  0  0  0  0  0  0  0  0  0  0
   10.2759   -4.0036   17.8845 C   0  0  0  0  0  0  0  0  0  0  0  0
    8.5652    1.5478   25.3778 N   0  0  0  0  0  0  0  0  0  0  0  0
    6.8048   -7.5457   17.8752 C   0  0  0  0  0  0  0  0  0  0  0  0
    6.1721   -8.2186   15.9886 N   0  0  0  0  0  0  0  0  0  0  0  0
   11.1764   -2.6600   19.5604 C   0  0  0  0  0  0  0  0  0  0  0  0
    9.5491   -0.6380   24.1912 C   0  0  0  0  0  0  0  0  0  0  0  0
    7.5337   -6.9256   16.9519 C   0  0  0  0  0  0  0  0  0  0  0  0
    9.6782    0.5671   23.5143 C   0  0  0  0  0  0  0  0  0  0  0  0
    8.4532    0.3482   26.0821 C   0  0  0  0  0  0  0  0  0  0  0  0
   10.4239   -1.7677   22.2230 N   0  0  0  0  0  0  0  0  0  0  0  0
    9.9468   -4.5953   20.1709 C   0  0  0  0  0  0  0  0  0  0  0  0
   10.0366   -3.0590   23.9864 N   0  0  0  0  0  0  0  0  0  0  0  0
    7.1191   -7.3636   15.7739 C   0  0  0  0  0  0  0  0  0  0  0  0
    5.9612   -8.3203   17.2732 N   0  0  0  0  0  0  0  0  0  0  0  0
    8.5296   -5.9814   17.1841 C   0  0  0  0  0  0  0  0  0  0  0  0
    9.1527   -5.2118   16.2116 C   0  0  0  0  0  0  0  0  0  0  0  0
   10.3364   -3.8368   22.9255 O   0  0  0  0  0  0  0  0  0  0  0  0
    9.6947   -4.8407   18.8534 C   0  0  0  0  0  0  0  0  0  0  0  0
    9.1596    1.7042   24.1381 C   0  0  0  0  0  0  0  0  0  0  0  0
   11.0456   -2.9774   18.2694 N   0  0  0  0  0  0  0  0  0  0  0  0
   10.4788   -3.0457   21.8593 C   0  0  0  0  0  0  0  0  0  0  0  0
    8.8693   -5.8099   18.4657 N   0  0  0  0  0  0  0  0  0  0  0  0
    8.9892   -0.7926   25.4573 C   0  0  0  0  0  0  0  0  0  0  0  0
   10.5677   -3.4462   20.5323 C   0  0  0  0  0  0  0  0  0  0  0  0
  1  8  1  0
  1 12  4  0
  1 14  4  0
  2  3  4  0
  2 18  4  0
  3 20  4  0
  3 22  4  0
  4 11  4  0
  4 21  4  0
  5  9  4  0
  5 16  4  0
  6 15  4  0
  6 16  4  0
  7 22  4  0
  7 26  4  0
  8 10  4  0
  8 25  4  0
  9 15  4  0
  9 17  1  0
 10 21  4  0
 11 25  4  0
 12 23  4  0
 13 20  4  0
 13 26  4  0
 14 19  4  0
 17 18  4  0
 17 24  4  0
 19 23  4  0
 20 24  4  0
 23 26  1  0
M  END
$$$$

 Created by Python create_sdf_string function

 26 30  0  0  0  0  0  0  0  0999 V2000
   10.0084   -1.8019   23.4945 C   0  0  0  0  0  0  0  0  0  0  0  0
   10.0005   -4.2520   16.5631 C   0  0  0  0  0  0  0  0  0  0  0  0
   10.2759   -4.0036   17.8845 C   0  0  0  0  0  0  0  0  0  0  0  0
    8.5652    1.5478   25.3778 N   0  0  0  0  0  0  0  0  0  0  0  0
    6.8048   -7.5457   17.8752 C   0  0  0  0  0  0  0  0  0  0  0  0
    6.1721   -8.2186   15.9886 N   0  0  0  0  0  0  0  0  0  0  0  0
   11.1764   -2.6600   19.5604 C   0  0  0  0  0  0  0  0  0  0  0  0
    9.5491   -0.6380   24.1912 C   0  0  0  0  0  0  0  0  0  0  0  0
    7.5337   -6.9256   16.9519 C   0  0  0  0  0  0  0  0  0  0  0  0
    9.6782    0.5671   23.5143 C   0  0  0  0  0  0  0  0  0  0  0  0
    8.4532    0.3482   26.0821 C   0  0  0  0  0  0  0  0  0  0  0  0
   10.4239   -1.7677   22.2230 N   0  0  0  0  0  0  0  0  0  0  0  0
    9.9468   -4.5953   20.1709 C   0  0  0  0  0  0  0  0  0  0  0  0
   10.0366   -3.0590   23.9864 N   0  0  0  0  0  0  0  0  0  0  0  0
    7.1191   -7.3636   15.7739 C   0  0  0  0  0  0  0  0  0  0  0  0
    5.9612   -8.3203   17.2732 N   0  0  0  0  0  0  0  0  0  0  0  0
    8.5296   -5.9814   17.1841 C   0  0  0  0  0  0  0  0  0  0  0  0
    9.1527   -5.2118   16.2116 C   0  0  0  0  0  0  0  0  0  0  0  0
   10.3364   -3.8368   22.9255 O   0  0  0  0  0  0  0  0  0  0  0  0
    9.6947   -4.8407   18.8534 C   0  0  0  0  0  0  0  0  0  0  0  0
    9.1596    1.7042   24.1381 C   0  0  0  0  0  0  0  0  0  0  0  0
   11.0456   -2.9774   18.2694 N   0  0  0  0  0  0  0  0  0  0  0  0
   10.4788   -3.0457   21.8593 C   0  0  0  0  0  0  0  0  0  0  0  0
    8.8693   -5.8099   18.4657 N   0  0  0  0  0  0  0  0  0  0  0  0
    8.9892   -0.7926   25.4573 C   0  0  0  0  0  0  0  0  0  0  0  0
   10.5677   -3.4462   20.5323 C   0  0  0  0  0  0  0  0  0  0  0  0
  1  8  1  0
  1 12  4  0
  1 14  4  0
  2  3  4  0
  2 18  4  0
  3 20  4  0
  3 22  4  0
  4 11  4  0
  4 21  4  0
  5  9  4  0
  5 16  4  0
  6 15  4  0
  6 16  4  0
  7 22  4  0
  7 26  4  0
  8 10  4  0
  8 25  4  0
  9 15  4  0
  9 17  1  0
 10 21  4  0
 11 25  4  0
 12 23  4  0
 13 20  4  0
 13 26  4  0
 14 19  4  0
 17 18  4  0
 17 24  4  0
 19 23  4  0
 20 24  4  0
 23 26  1  0
M  END
$$$$

 Created by Python create_sdf_string function

 26 30  0  0  0  0  0  0  0  0999 V2000
   10.0084   -1.8019   23.4945 C   0  0  0  0  0  0  0  0  0  0  0  0
   10.0005   -4.2520   16.5631 C   0  0  0  0  0  0  0  0  0  0  0  0
   10.2759   -4.0036   17.8845 C   0  0  0  0  0  0  0  0  0  0  0  0
    8.5652    1.5478   25.3778 N   0  0  0  0  0  0  0  0  0  0  0  0
    6.8048   -7.5457   17.8752 C   0  0  0  0  0  0  0  0  0  0  0  0
    6.1721   -8.2186   15.9886 N   0  0  0  0  0  0  0  0  0  0  0  0
   11.1764   -2.6600   19.5604 C   0  0  0  0  0  0  0  0  0  0  0  0
    9.5491   -0.6380   24.1912 C   0  0  0  0  0  0  0  0  0  0  0  0
    7.5337   -6.9256   16.9519 C   0  0  0  0  0  0  0  0  0  0  0  0
    9.6782    0.5671   23.5143 C   0  0  0  0  0  0  0  0  0  0  0  0
    8.4532    0.3482   26.0821 C   0  0  0  0  0  0  0  0  0  0  0  0
   10.4239   -1.7677   22.2230 N   0  0  0  0  0  0  0  0  0  0  0  0
    9.9468   -4.5953   20.1709 C   0  0  0  0  0  0  0  0  0  0  0  0
   10.0366   -3.0590   23.9864 N   0  0  0  0  0  0  0  0  0  0  0  0
    7.1191   -7.3636   15.7739 C   0  0  0  0  0  0  0  0  0  0  0  0
    5.9612   -8.3203   17.2732 N   0  0  0  0  0  0  0  0  0  0  0  0
    8.5296   -5.9814   17.1841 C   0  0  0  0  0  0  0  0  0  0  0  0
    9.1527   -5.2118   16.2116 C   0  0  0  0  0  0  0  0  0  0  0  0
   10.3364   -3.8368   22.9255 O   0  0  0  0  0  0  0  0  0  0  0  0
    9.6947   -4.8407   18.8534 C   0  0  0  0  0  0  0  0  0  0  0  0
    9.1596    1.7042   24.1381 C   0  0  0  0  0  0  0  0  0  0  0  0
   11.0456   -2.9774   18.2694 N   0  0  0  0  0  0  0  0  0  0  0  0
   10.4788   -3.0457   21.8593 C   0  0  0  0  0  0  0  0  0  0  0  0
    8.8693   -5.8099   18.4657 N   0  0  0  0  0  0  0  0  0  0  0  0
    8.9892   -0.7926   25.4573 C   0  0  0  0  0  0  0  0  0  0  0  0
   10.5677   -3.4462   20.5323 C   0  0  0  0  0  0  0  0  0  0  0  0
  1  8  1  0
  1 12  4  0
  1 14  4  0
  2  3  4  0
  2 18  4  0
  3 20  4  0
  3 22  4  0
  4 11  4  0
  4 21  4  0
  5  9  4  0
  5 16  4  0
  6 15  4  0
  6 16  4  0
  7 22  4  0
  7 26  4  0
  8 10  4  0
  8 25  4  0
  9 15  4  0
  9 17  1  0
 10 21  4  0
 11 25  4  0
 12 23  4  0
 13 20  4  0
 13 26  4  0
 14 19  4  0
 17 18  4  0
 17 24  4  0
 19 23  4  0
 20 24  4  0
 23 26  1  0
M  END
$$$$

 Created by Python create_sdf_string function

 26 30  0  0  0  0  0  0  0  0999 V2000
   10.0084   -1.8019   23.4945 C   0  0  0  0  0  0  0  0  0  0  0  0
   10.0005   -4.2520   16.5631 C   0  0  0  0  0  0  0  0  0  0  0  0
   10.2759   -4.0036   17.8845 C   0  0  0  0  0  0  0  0  0  0  0  0
    8.5652    1.5478   25.3778 N   0  0  0  0  0  0  0  0  0  0  0  0
    6.8048   -7.5457   17.8752 C   0  0  0  0  0  0  0  0  0  0  0  0
    6.1721   -8.2186   15.9886 N   0  0  0  0  0  0  0  0  0  0  0  0
   11.1764   -2.6600   19.5604 C   0  0  0  0  0  0  0  0  0  0  0  0
    9.5491   -0.6380   24.1912 C   0  0  0  0  0  0  0  0  0  0  0  0
    7.5337   -6.9256   16.9519 C   0  0  0  0  0  0  0  0  0  0  0  0
    9.6782    0.5671   23.5143 C   0  0  0  0  0  0  0  0  0  0  0  0
    8.4532    0.3482   26.0821 C   0  0  0  0  0  0  0  0  0  0  0  0
   10.4239   -1.7677   22.2230 N   0  0  0  0  0  0  0  0  0  0  0  0
    9.9468   -4.5953   20.1709 C   0  0  0  0  0  0  0  0  0  0  0  0
   10.0366   -3.0590   23.9864 N   0  0  0  0  0  0  0  0  0  0  0  0
    7.1191   -7.3636   15.7739 C   0  0  0  0  0  0  0  0  0  0  0  0
    5.9612   -8.3203   17.2732 N   0  0  0  0  0  0  0  0  0  0  0  0
    8.5296   -5.9814   17.1841 C   0  0  0  0  0  0  0  0  0  0  0  0
    9.1527   -5.2118   16.2116 C   0  0  0  0  0  0  0  0  0  0  0  0
   10.3364   -3.8368   22.9255 O   0  0  0  0  0  0  0  0  0  0  0  0
    9.6947   -4.8407   18.8534 C   0  0  0  0  0  0  0  0  0  0  0  0
    9.1596    1.7042   24.1381 C   0  0  0  0  0  0  0  0  0  0  0  0
   11.0456   -2.9774   18.2694 N   0  0  0  0  0  0  0  0  0  0  0  0
   10.4788   -3.0457   21.8593 C   0  0  0  0  0  0  0  0  0  0  0  0
    8.8693   -5.8099   18.4657 N   0  0  0  0  0  0  0  0  0  0  0  0
    8.9892   -0.7926   25.4573 C   0  0  0  0  0  0  0  0  0  0  0  0
   10.5677   -3.4462   20.5323 C   0  0  0  0  0  0  0  0  0  0  0  0
  1  8  1  0
  1 12  4  0
  1 14  4  0
  2  3  4  0
  2 18  4  0
  3 20  4  0
  3 22  4  0
  4 11  4  0
  4 21  4  0
  5  9  4  0
  5 16  4  0
  6 15  4  0
  6 16  4  0
  7 22  4  0
  7 26  4  0
  8 10  4  0
  8 25  4  0
  9 15  4  0
  9 17  1  0
 10 21  4  0
 11 25  4  0
 12 23  4  0
 13 20  4  0
 13 26  4  0
 14 19  4  0
 17 18  4  0
 17 24  4  0
 19 23  4  0
 20 24  4  0
 23 26  1  0
M  END
$$$$

 Created by Python create_sdf_string function

 26 30  0  0  0  0  0  0  0  0999 V2000
   10.0084   -1.8019   23.4945 C   0  0  0  0  0  0  0  0  0  0  0  0
   10.0005   -4.2520   16.5631 C   0  0  0  0  0  0  0  0  0  0  0  0
   10.2759   -4.0036   17.8845 C   0  0  0  0  0  0  0  0  0  0  0  0
    8.5652    1.5478   25.3778 N   0  0  0  0  0  0  0  0  0  0  0  0
    6.8048   -7.5457   17.8752 C   0  0  0  0  0  0  0  0  0  0  0  0
    6.1721   -8.2186   15.9886 N   0  0  0  0  0  0  0  0  0  0  0  0
   11.1764   -2.6600   19.5604 C   0  0  0  0  0  0  0  0  0  0  0  0
    9.5491   -0.6380   24.1912 C   0  0  0  0  0  0  0  0  0  0  0  0
    7.5337   -6.9256   16.9519 C   0  0  0  0  0  0  0  0  0  0  0  0
    9.6782    0.5671   23.5143 C   0  0  0  0  0  0  0  0  0  0  0  0
    8.4532    0.3482   26.0821 C   0  0  0  0  0  0  0  0  0  0  0  0
   10.4239   -1.7677   22.2230 N   0  0  0  0  0  0  0  0  0  0  0  0
    9.9468   -4.5953   20.1709 C   0  0  0  0  0  0  0  0  0  0  0  0
   10.0366   -3.0590   23.9864 N   0  0  0  0  0  0  0  0  0  0  0  0
    7.1191   -7.3636   15.7739 C   0  0  0  0  0  0  0  0  0  0  0  0
    5.9612   -8.3203   17.2732 N   0  0  0  0  0  0  0  0  0  0  0  0
    8.5296   -5.9814   17.1841 C   0  0  0  0  0  0  0  0  0  0  0  0
    9.1527   -5.2118   16.2116 C   0  0  0  0  0  0  0  0  0  0  0  0
   10.3364   -3.8368   22.9255 O   0  0  0  0  0  0  0  0  0  0  0  0
    9.6947   -4.8407   18.8534 C   0  0  0  0  0  0  0  0  0  0  0  0
    9.1596    1.7042   24.1381 C   0  0  0  0  0  0  0  0  0  0  0  0
   11.0456   -2.9774   18.2694 N   0  0  0  0  0  0  0  0  0  0  0  0
   10.4788   -3.0457   21.8593 C   0  0  0  0  0  0  0  0  0  0  0  0
    8.8693   -5.8099   18.4657 N   0  0  0  0  0  0  0  0  0  0  0  0
    8.9892   -0.7926   25.4573 C   0  0  0  0  0  0  0  0  0  0  0  0
   10.5677   -3.4462   20.5323 C   0  0  0  0  0  0  0  0  0  0  0  0
  1  8  1  0
  1 12  4  0
  1 14  4  0
  2  3  4  0
  2 18  4  0
  3 20  4  0
  3 22  4  0
  4 11  4  0
  4 21  4  0
  5  9  4  0
  5 16  4  0
  6 15  4  0
  6 16  4  0
  7 22  4  0
  7 26  4  0
  8 10  4  0
  8 25  4  0
  9 15  4  0
  9 17  1  0
 10 21  4  0
 11 25  4  0
 12 23  4  0
 13 20  4  0
 13 26  4  0
 14 19  4  0
 17 18  4  0
 17 24  4  0
 19 23  4  0
 20 24  4  0
 23 26  1  0
M  END
$$$$

 Created by Python create_sdf_string function

 26 30  0  0  0  0  0  0  0  0999 V2000
   10.0084   -1.8019   23.4945 C   0  0  0  0  0  0  0  0  0  0  0  0
   10.0005   -4.2520   16.5631 C   0  0  0  0  0  0  0  0  0  0  0  0
   10.2759   -4.0036   17.8845 C   0  0  0  0  0  0  0  0  0  0  0  0
    8.5652    1.5478   25.3778 N   0  0  0  0  0  0  0  0  0  0  0  0
    6.8048   -7.5457   17.8752 C   0  0  0  0  0  0  0  0  0  0  0  0
    6.1721   -8.2186   15.9886 N   0  0  0  0  0  0  0  0  0  0  0  0
   11.1764   -2.6600   19.5604 C   0  0  0  0  0  0  0  0  0  0  0  0
    9.5491   -0.6380   24.1912 C   0  0  0  0  0  0  0  0  0  0  0  0
    7.5337   -6.9256   16.9519 C   0  0  0  0  0  0  0  0  0  0  0  0
    9.6782    0.5671   23.5143 C   0  0  0  0  0  0  0  0  0  0  0  0
    8.4532    0.3482   26.0821 C   0  0  0  0  0  0  0  0  0  0  0  0
   10.4239   -1.7677   22.2230 N   0  0  0  0  0  0  0  0  0  0  0  0
    9.9468   -4.5953   20.1709 C   0  0  0  0  0  0  0  0  0  0  0  0
   10.0366   -3.0590   23.9864 N   0  0  0  0  0  0  0  0  0  0  0  0
    7.1191   -7.3636   15.7739 C   0  0  0  0  0  0  0  0  0  0  0  0
    5.9612   -8.3203   17.2732 N   0  0  0  0  0  0  0  0  0  0  0  0
    8.5296   -5.9814   17.1841 C   0  0  0  0  0  0  0  0  0  0  0  0
    9.1527   -5.2118   16.2116 C   0  0  0  0  0  0  0  0  0  0  0  0
   10.3364   -3.8368   22.9255 O   0  0  0  0  0  0  0  0  0  0  0  0
    9.6947   -4.8407   18.8534 C   0  0  0  0  0  0  0  0  0  0  0  0
    9.1596    1.7042   24.1381 C   0  0  0  0  0  0  0  0  0  0  0  0
   11.0456   -2.9774   18.2694 N   0  0  0  0  0  0  0  0  0  0  0  0
   10.4788   -3.0457   21.8593 C   0  0  0  0  0  0  0  0  0  0  0  0
    8.8693   -5.8099   18.4657 N   0  0  0  0  0  0  0  0  0  0  0  0
    8.9892   -0.7926   25.4573 C   0  0  0  0  0  0  0  0  0  0  0  0
   10.5677   -3.4462   20.5323 C   0  0  0  0  0  0  0  0  0  0  0  0
  1  8  1  0
  1 12  4  0
  1 14  4  0
  2  3  4  0
  2 18  4  0
  3 20  4  0
  3 22  4  0
  4 11  4  0
  4 21  4  0
  5  9  4  0
  5 16  4  0
  6 15  4  0
  6 16  4  0
  7 22  4  0
  7 26  4  0
  8 10  4  0
  8 25  4  0
  9 15  4  0
  9 17  1  0
 10 21  4  0
 11 25  4  0
 12 23  4  0
 13 20  4  0
 13 26  4  0
 14 19  4  0
 17 18  4  0
 17 24  4  0
 19 23  4  0
 20 24  4  0
 23 26  1  0
M  END
$$$$

 Created by Python create_sdf_string function

 26 30  0  0  0  0  0  0  0  0999 V2000
   10.0084   -1.8019   23.4945 C   0  0  0  0  0  0  0  0  0  0  0  0
   10.0005   -4.2520   16.5631 C   0  0  0  0  0  0  0  0  0  0  0  0
   10.2759   -4.0036   17.8845 C   0  0  0  0  0  0  0  0  0  0  0  0
    8.5652    1.5478   25.3778 N   0  0  0  0  0  0  0  0  0  0  0  0
    6.8048   -7.5457   17.8752 C   0  0  0  0  0  0  0  0  0  0  0  0
    6.1721   -8.2186   15.9886 N   0  0  0  0  0  0  0  0  0  0  0  0
   11.1764   -2.6600   19.5604 C   0  0  0  0  0  0  0  0  0  0  0  0
    9.5491   -0.6380   24.1912 C   0  0  0  0  0  0  0  0  0  0  0  0
    7.5337   -6.9256   16.9519 C   0  0  0  0  0  0  0  0  0  0  0  0
    9.6782    0.5671   23.5143 C   0  0  0  0  0  0  0  0  0  0  0  0
    8.4532    0.3482   26.0821 C   0  0  0  0  0  0  0  0  0  0  0  0
   10.4239   -1.7677   22.2230 N   0  0  0  0  0  0  0  0  0  0  0  0
    9.9468   -4.5953   20.1709 C   0  0  0  0  0  0  0  0  0  0  0  0
   10.0366   -3.0590   23.9864 N   0  0  0  0  0  0  0  0  0  0  0  0
    7.1191   -7.3636   15.7739 C   0  0  0  0  0  0  0  0  0  0  0  0
    5.9612   -8.3203   17.2732 N   0  0  0  0  0  0  0  0  0  0  0  0
    8.5296   -5.9814   17.1841 C   0  0  0  0  0  0  0  0  0  0  0  0
    9.1527   -5.2118   16.2116 C   0  0  0  0  0  0  0  0  0  0  0  0
   10.3364   -3.8368   22.9255 O   0  0  0  0  0  0  0  0  0  0  0  0
    9.6947   -4.8407   18.8534 C   0  0  0  0  0  0  0  0  0  0  0  0
    9.1596    1.7042   24.1381 C   0  0  0  0  0  0  0  0  0  0  0  0
   11.0456   -2.9774   18.2694 N   0  0  0  0  0  0  0  0  0  0  0  0
   10.4788   -3.0457   21.8593 C   0  0  0  0  0  0  0  0  0  0  0  0
    8.8693   -5.8099   18.4657 N   0  0  0  0  0  0  0  0  0  0  0  0
    8.9892   -0.7926   25.4573 C   0  0  0  0  0  0  0  0  0  0  0  0
   10.5677   -3.4462   20.5323 C   0  0  0  0  0  0  0  0  0  0  0  0
  1  8  1  0
  1 12  4  0
  1 14  4  0
  2  3  4  0
  2 18  4  0
  3 20  4  0
  3 22  4  0
  4 11  4  0
  4 21  4  0
  5  9  4  0
  5 16  4  0
  6 15  4  0
  6 16  4  0
  7 22  4  0
  7 26  4  0
  8 10  4  0
  8 25  4  0
  9 15  4  0
  9 17  1  0
 10 21  4  0
 11 25  4  0
 12 23  4  0
 13 20  4  0
 13 26  4  0
 14 19  4  0
 17 18  4  0
 17 24  4  0
 19 23  4  0
 20 24  4  0
 23 26  1  0
M  END
$$$$

 Created by Python create_sdf_string function

 26 30  0  0  0  0  0  0  0  0999 V2000
   10.0084   -1.8019   23.4945 C   0  0  0  0  0  0  0  0  0  0  0  0
   10.0005   -4.2520   16.5631 C   0  0  0  0  0  0  0  0  0  0  0  0
   10.2759   -4.0036   17.8845 C   0  0  0  0  0  0  0  0  0  0  0  0
    8.5652    1.5478   25.3778 N   0  0  0  0  0  0  0  0  0  0  0  0
    6.8048   -7.5457   17.8752 C   0  0  0  0  0  0  0  0  0  0  0  0
    6.1721   -8.2186   15.9886 N   0  0  0  0  0  0  0  0  0  0  0  0
   11.1764   -2.6600   19.5604 C   0  0  0  0  0  0  0  0  0  0  0  0
    9.5491   -0.6380   24.1912 C   0  0  0  0  0  0  0  0  0  0  0  0
    7.5337   -6.9256   16.9519 C   0  0  0  0  0  0  0  0  0  0  0  0
    9.6782    0.5671   23.5143 C   0  0  0  0  0  0  0  0  0  0  0  0
    8.4532    0.3482   26.0821 C   0  0  0  0  0  0  0  0  0  0  0  0
   10.4239   -1.7677   22.2230 N   0  0  0  0  0  0  0  0  0  0  0  0
    9.9468   -4.5953   20.1709 C   0  0  0  0  0  0  0  0  0  0  0  0
   10.0366   -3.0590   23.9864 N   0  0  0  0  0  0  0  0  0  0  0  0
    7.1191   -7.3636   15.7739 C   0  0  0  0  0  0  0  0  0  0  0  0
    5.9612   -8.3203   17.2732 N   0  0  0  0  0  0  0  0  0  0  0  0
    8.5296   -5.9814   17.1841 C   0  0  0  0  0  0  0  0  0  0  0  0
    9.1527   -5.2118   16.2116 C   0  0  0  0  0  0  0  0  0  0  0  0
   10.3364   -3.8368   22.9255 O   0  0  0  0  0  0  0  0  0  0  0  0
    9.6947   -4.8407   18.8534 C   0  0  0  0  0  0  0  0  0  0  0  0
    9.1596    1.7042   24.1381 C   0  0  0  0  0  0  0  0  0  0  0  0
   11.0456   -2.9774   18.2694 N   0  0  0  0  0  0  0  0  0  0  0  0
   10.4788   -3.0457   21.8593 C   0  0  0  0  0  0  0  0  0  0  0  0
    8.8693   -5.8099   18.4657 N   0  0  0  0  0  0  0  0  0  0  0  0
    8.9892   -0.7926   25.4573 C   0  0  0  0  0  0  0  0  0  0  0  0
   10.5677   -3.4462   20.5323 C   0  0  0  0  0  0  0  0  0  0  0  0
  1  8  1  0
  1 12  4  0
  1 14  4  0
  2  3  4  0
  2 18  4  0
  3 20  4  0
  3 22  4  0
  4 11  4  0
  4 21  4  0
  5  9  4  0
  5 16  4  0
  6 15  4  0
  6 16  4  0
  7 22  4  0
  7 26  4  0
  8 10  4  0
  8 25  4  0
  9 15  4  0
  9 17  1  0
 10 21  4  0
 11 25  4  0
 12 23  4  0
 13 20  4  0
 13 26  4  0
 14 19  4  0
 17 18  4  0
 17 24  4  0
 19 23  4  0
 20 24  4  0
 23 26  1  0
M  END
$$$$

 Created by Python create_sdf_string function

 26 30  0  0  0  0  0  0  0  0999 V2000
   10.0084   -1.8019   23.4945 C   0  0  0  0  0  0  0  0  0  0  0  0
   10.0005   -4.2520   16.5631 C   0  0  0  0  0  0  0  0  0  0  0  0
   10.2759   -4.0036   17.8845 C   0  0  0  0  0  0  0  0  0  0  0  0
    8.5652    1.5478   25.3778 N   0  0  0  0  0  0  0  0  0  0  0  0
    6.8048   -7.5457   17.8752 C   0  0  0  0  0  0  0  0  0  0  0  0
    6.1721   -8.2186   15.9886 N   0  0  0  0  0  0  0  0  0  0  0  0
   11.1764   -2.6600   19.5604 C   0  0  0  0  0  0  0  0  0  0  0  0
    9.5491   -0.6380   24.1912 C   0  0  0  0  0  0  0  0  0  0  0  0
    7.5337   -6.9256   16.9519 C   0  0  0  0  0  0  0  0  0  0  0  0
    9.6782    0.5671   23.5143 C   0  0  0  0  0  0  0  0  0  0  0  0
    8.4532    0.3482   26.0821 C   0  0  0  0  0  0  0  0  0  0  0  0
   10.4239   -1.7677   22.2230 N   0  0  0  0  0  0  0  0  0  0  0  0
    9.9468   -4.5953   20.1709 C   0  0  0  0  0  0  0  0  0  0  0  0
   10.0366   -3.0590   23.9864 N   0  0  0  0  0  0  0  0  0  0  0  0
    7.1191   -7.3636   15.7739 C   0  0  0  0  0  0  0  0  0  0  0  0
    5.9612   -8.3203   17.2732 N   0  0  0  0  0  0  0  0  0  0  0  0
    8.5296   -5.9814   17.1841 C   0  0  0  0  0  0  0  0  0  0  0  0
    9.1527   -5.2118   16.2116 C   0  0  0  0  0  0  0  0  0  0  0  0
   10.3364   -3.8368   22.9255 O   0  0  0  0  0  0  0  0  0  0  0  0
    9.6947   -4.8407   18.8534 C   0  0  0  0  0  0  0  0  0  0  0  0
    9.1596    1.7042   24.1381 C   0  0  0  0  0  0  0  0  0  0  0  0
   11.0456   -2.9774   18.2694 N   0  0  0  0  0  0  0  0  0  0  0  0
   10.4788   -3.0457   21.8593 C   0  0  0  0  0  0  0  0  0  0  0  0
    8.8693   -5.8099   18.4657 N   0  0  0  0  0  0  0  0  0  0  0  0
    8.9892   -0.7926   25.4573 C   0  0  0  0  0  0  0  0  0  0  0  0
   10.5677   -3.4462   20.5323 C   0  0  0  0  0  0  0  0  0  0  0  0
  1  8  1  0
  1 12  4  0
  1 14  4  0
  2  3  4  0
  2 18  4  0
  3 20  4  0
  3 22  4  0
  4 11  4  0
  4 21  4  0
  5  9  4  0
  5 16  4  0
  6 15  4  0
  6 16  4  0
  7 22  4  0
  7 26  4  0
  8 10  4  0
  8 25  4  0
  9 15  4  0
  9 17  1  0
 10 21  4  0
 11 25  4  0
 12 23  4  0
 13 20  4  0
 13 26  4  0
 14 19  4  0
 17 18  4  0
 17 24  4  0
 19 23  4  0
 20 24  4  0
 23 26  1  0
M  END
$$$$

 Created by Python create_sdf_string function

 26 30  0  0  0  0  0  0  0  0999 V2000
   10.0084   -1.8019   23.4945 C   0  0  0  0  0  0  0  0  0  0  0  0
   10.0005   -4.2520   16.5631 C   0  0  0  0  0  0  0  0  0  0  0  0
   10.2759   -4.0036   17.8845 C   0  0  0  0  0  0  0  0  0  0  0  0
    8.5652    1.5478   25.3778 N   0  0  0  0  0  0  0  0  0  0  0  0
    6.8048   -7.5457   17.8752 C   0  0  0  0  0  0  0  0  0  0  0  0
    6.1721   -8.2186   15.9886 N   0  0  0  0  0  0  0  0  0  0  0  0
   11.1764   -2.6600   19.5604 C   0  0  0  0  0  0  0  0  0  0  0  0
    9.5491   -0.6380   24.1912 C   0  0  0  0  0  0  0  0  0  0  0  0
    7.5337   -6.9256   16.9519 C   0  0  0  0  0  0  0  0  0  0  0  0
    9.6782    0.5671   23.5143 C   0  0  0  0  0  0  0  0  0  0  0  0
    8.4532    0.3482   26.0821 C   0  0  0  0  0  0  0  0  0  0  0  0
   10.4239   -1.7677   22.2230 N   0  0  0  0  0  0  0  0  0  0  0  0
    9.9468   -4.5953   20.1709 C   0  0  0  0  0  0  0  0  0  0  0  0
   10.0366   -3.0590   23.9864 N   0  0  0  0  0  0  0  0  0  0  0  0
    7.1191   -7.3636   15.7739 C   0  0  0  0  0  0  0  0  0  0  0  0
    5.9612   -8.3203   17.2732 N   0  0  0  0  0  0  0  0  0  0  0  0
    8.5296   -5.9814   17.1841 C   0  0  0  0  0  0  0  0  0  0  0  0
    9.1527   -5.2118   16.2116 C   0  0  0  0  0  0  0  0  0  0  0  0
   10.3364   -3.8368   22.9255 O   0  0  0  0  0  0  0  0  0  0  0  0
    9.6947   -4.8407   18.8534 C   0  0  0  0  0  0  0  0  0  0  0  0
    9.1596    1.7042   24.1381 C   0  0  0  0  0  0  0  0  0  0  0  0
   11.0456   -2.9774   18.2694 N   0  0  0  0  0  0  0  0  0  0  0  0
   10.4788   -3.0457   21.8593 C   0  0  0  0  0  0  0  0  0  0  0  0
    8.8693   -5.8099   18.4657 N   0  0  0  0  0  0  0  0  0  0  0  0
    8.9892   -0.7926   25.4573 C   0  0  0  0  0  0  0  0  0  0  0  0
   10.5677   -3.4462   20.5323 C   0  0  0  0  0  0  0  0  0  0  0  0
  1  8  1  0
  1 12  4  0
  1 14  4  0
  2  3  4  0
  2 18  4  0
  3 20  4  0
  3 22  4  0
  4 11  4  0
  4 21  4  0
  5  9  4  0
  5 16  4  0
  6 15  4  0
  6 16  4  0
  7 22  4  0
  7 26  4  0
  8 10  4  0
  8 25  4  0
  9 15  4  0
  9 17  1  0
 10 21  4  0
 11 25  4  0
 12 23  4  0
 13 20  4  0
 13 26  4  0
 14 19  4  0
 17 18  4  0
 17 24  4  0
 19 23  4  0
 20 24  4  0
 23 26  1  0
M  END
$$$$

 Created by Python create_sdf_string function

 26 30  0  0  0  0  0  0  0  0999 V2000
   10.0084   -1.8019   23.4945 C   0  0  0  0  0  0  0  0  0  0  0  0
   10.0005   -4.2520   16.5631 C   0  0  0  0  0  0  0  0  0  0  0  0
   10.2759   -4.0036   17.8845 C   0  0  0  0  0  0  0  0  0  0  0  0
    8.5652    1.5478   25.3778 N   0  0  0  0  0  0  0  0  0  0  0  0
    6.8048   -7.5457   17.8752 C   0  0  0  0  0  0  0  0  0  0  0  0
    6.1721   -8.2186   15.9886 N   0  0  0  0  0  0  0  0  0  0  0  0
   11.1764   -2.6600   19.5604 C   0  0  0  0  0  0  0  0  0  0  0  0
    9.5491   -0.6380   24.1912 C   0  0  0  0  0  0  0  0  0  0  0  0
    7.5337   -6.9256   16.9519 C   0  0  0  0  0  0  0  0  0  0  0  0
    9.6782    0.5671   23.5143 C   0  0  0  0  0  0  0  0  0  0  0  0
    8.4532    0.3482   26.0821 C   0  0  0  0  0  0  0  0  0  0  0  0
   10.4239   -1.7677   22.2230 N   0  0  0  0  0  0  0  0  0  0  0  0
    9.9468   -4.5953   20.1709 C   0  0  0  0  0  0  0  0  0  0  0  0
   10.0366   -3.0590   23.9864 N   0  0  0  0  0  0  0  0  0  0  0  0
    7.1191   -7.3636   15.7739 C   0  0  0  0  0  0  0  0  0  0  0  0
    5.9612   -8.3203   17.2732 N   0  0  0  0  0  0  0  0  0  0  0  0
    8.5296   -5.9814   17.1841 C   0  0  0  0  0  0  0  0  0  0  0  0
    9.1527   -5.2118   16.2116 C   0  0  0  0  0  0  0  0  0  0  0  0
   10.3364   -3.8368   22.9255 O   0  0  0  0  0  0  0  0  0  0  0  0
    9.6947   -4.8407   18.8534 C   0  0  0  0  0  0  0  0  0  0  0  0
    9.1596    1.7042   24.1381 C   0  0  0  0  0  0  0  0  0  0  0  0
   11.0456   -2.9774   18.2694 N   0  0  0  0  0  0  0  0  0  0  0  0
   10.4788   -3.0457   21.8593 C   0  0  0  0  0  0  0  0  0  0  0  0
    8.8693   -5.8099   18.4657 N   0  0  0  0  0  0  0  0  0  0  0  0
    8.9892   -0.7926   25.4573 C   0  0  0  0  0  0  0  0  0  0  0  0
   10.5677   -3.4462   20.5323 C   0  0  0  0  0  0  0  0  0  0  0  0
  1  8  1  0
  1 12  4  0
  1 14  4  0
  2  3  4  0
  2 18  4  0
  3 20  4  0
  3 22  4  0
  4 11  4  0
  4 21  4  0
  5  9  4  0
  5 16  4  0
  6 15  4  0
  6 16  4  0
  7 22  4  0
  7 26  4  0
  8 10  4  0
  8 25  4  0
  9 15  4  0
  9 17  1  0
 10 21  4  0
 11 25  4  0
 12 23  4  0
 13 20  4  0
 13 26  4  0
 14 19  4  0
 17 18  4  0
 17 24  4  0
 19 23  4  0
 20 24  4  0
 23 26  1  0
M  END
$$$$

 Created by Python create_sdf_string function

 26 30  0  0  0  0  0  0  0  0999 V2000
   10.0084   -1.8019   23.4945 C   0  0  0  0  0  0  0  0  0  0  0  0
   10.0005   -4.2520   16.5631 C   0  0  0  0  0  0  0  0  0  0  0  0
   10.2759   -4.0036   17.8845 C   0  0  0  0  0  0  0  0  0  0  0  0
    8.5652    1.5478   25.3778 N   0  0  0  0  0  0  0  0  0  0  0  0
    6.8048   -7.5457   17.8752 C   0  0  0  0  0  0  0  0  0  0  0  0
    6.1721   -8.2186   15.9886 N   0  0  0  0  0  0  0  0  0  0  0  0
   11.1764   -2.6600   19.5604 C   0  0  0  0  0  0  0  0  0  0  0  0
    9.5491   -0.6380   24.1912 C   0  0  0  0  0  0  0  0  0  0  0  0
    7.5337   -6.9256   16.9519 C   0  0  0  0  0  0  0  0  0  0  0  0
    9.6782    0.5671   23.5143 C   0  0  0  0  0  0  0  0  0  0  0  0
    8.4532    0.3482   26.0821 C   0  0  0  0  0  0  0  0  0  0  0  0
   10.4239   -1.7677   22.2230 N   0  0  0  0  0  0  0  0  0  0  0  0
    9.9468   -4.5953   20.1709 C   0  0  0  0  0  0  0  0  0  0  0  0
   10.0366   -3.0590   23.9864 N   0  0  0  0  0  0  0  0  0  0  0  0
    7.1191   -7.3636   15.7739 C   0  0  0  0  0  0  0  0  0  0  0  0
    5.9612   -8.3203   17.2732 N   0  0  0  0  0  0  0  0  0  0  0  0
    8.5296   -5.9814   17.1841 C   0  0  0  0  0  0  0  0  0  0  0  0
    9.1527   -5.2118   16.2116 C   0  0  0  0  0  0  0  0  0  0  0  0
   10.3364   -3.8368   22.9255 O   0  0  0  0  0  0  0  0  0  0  0  0
    9.6947   -4.8407   18.8534 C   0  0  0  0  0  0  0  0  0  0  0  0
    9.1596    1.7042   24.1381 C   0  0  0  0  0  0  0  0  0  0  0  0
   11.0456   -2.9774   18.2694 N   0  0  0  0  0  0  0  0  0  0  0  0
   10.4788   -3.0457   21.8593 C   0  0  0  0  0  0  0  0  0  0  0  0
    8.8693   -5.8099   18.4657 N   0  0  0  0  0  0  0  0  0  0  0  0
    8.9892   -0.7926   25.4573 C   0  0  0  0  0  0  0  0  0  0  0  0
   10.5677   -3.4462   20.5323 C   0  0  0  0  0  0  0  0  0  0  0  0
  1  8  1  0
  1 12  4  0
  1 14  4  0
  2  3  4  0
  2 18  4  0
  3 20  4  0
  3 22  4  0
  4 11  4  0
  4 21  4  0
  5  9  4  0
  5 16  4  0
  6 15  4  0
  6 16  4  0
  7 22  4  0
  7 26  4  0
  8 10  4  0
  8 25  4  0
  9 15  4  0
  9 17  1  0
 10 21  4  0
 11 25  4  0
 12 23  4  0
 13 20  4  0
 13 26  4  0
 14 19  4  0
 17 18  4  0
 17 24  4  0
 19 23  4  0
 20 24  4  0
 23 26  1  0
M  END
$$$$

 Created by Python create_sdf_string function

 26 30  0  0  0  0  0  0  0  0999 V2000
   10.0084   -1.8019   23.4945 C   0  0  0  0  0  0  0  0  0  0  0  0
   10.0005   -4.2520   16.5631 C   0  0  0  0  0  0  0  0  0  0  0  0
   10.2759   -4.0036   17.8845 C   0  0  0  0  0  0  0  0  0  0  0  0
    8.5652    1.5478   25.3778 N   0  0  0  0  0  0  0  0  0  0  0  0
    6.8048   -7.5457   17.8752 C   0  0  0  0  0  0  0  0  0  0  0  0
    6.1721   -8.2186   15.9886 N   0  0  0  0  0  0  0  0  0  0  0  0
   11.1764   -2.6600   19.5604 C   0  0  0  0  0  0  0  0  0  0  0  0
    9.5491   -0.6380   24.1912 C   0  0  0  0  0  0  0  0  0  0  0  0
    7.5337   -6.9256   16.9519 C   0  0  0  0  0  0  0  0  0  0  0  0
    9.6782    0.5671   23.5143 C   0  0  0  0  0  0  0  0  0  0  0  0
    8.4532    0.3482   26.0821 C   0  0  0  0  0  0  0  0  0  0  0  0
   10.4239   -1.7677   22.2230 N   0  0  0  0  0  0  0  0  0  0  0  0
    9.9468   -4.5953   20.1709 C   0  0  0  0  0  0  0  0  0  0  0  0
   10.0366   -3.0590   23.9864 N   0  0  0  0  0  0  0  0  0  0  0  0
    7.1191   -7.3636   15.7739 C   0  0  0  0  0  0  0  0  0  0  0  0
    5.9612   -8.3203   17.2732 N   0  0  0  0  0  0  0  0  0  0  0  0
    8.5296   -5.9814   17.1841 C   0  0  0  0  0  0  0  0  0  0  0  0
    9.1527   -5.2118   16.2116 C   0  0  0  0  0  0  0  0  0  0  0  0
   10.3364   -3.8368   22.9255 O   0  0  0  0  0  0  0  0  0  0  0  0
    9.6947   -4.8407   18.8534 C   0  0  0  0  0  0  0  0  0  0  0  0
    9.1596    1.7042   24.1381 C   0  0  0  0  0  0  0  0  0  0  0  0
   11.0456   -2.9774   18.2694 N   0  0  0  0  0  0  0  0  0  0  0  0
   10.4788   -3.0457   21.8593 C   0  0  0  0  0  0  0  0  0  0  0  0
    8.8693   -5.8099   18.4657 N   0  0  0  0  0  0  0  0  0  0  0  0
    8.9892   -0.7926   25.4573 C   0  0  0  0  0  0  0  0  0  0  0  0
   10.5677   -3.4462   20.5323 C   0  0  0  0  0  0  0  0  0  0  0  0
  1  8  1  0
  1 12  4  0
  1 14  4  0
  2  3  4  0
  2 18  4  0
  3 20  4  0
  3 22  4  0
  4 11  4  0
  4 21  4  0
  5  9  4  0
  5 16  4  0
  6 15  4  0
  6 16  4  0
  7 22  4  0
  7 26  4  0
  8 10  4  0
  8 25  4  0
  9 15  4  0
  9 17  1  0
 10 21  4  0
 11 25  4  0
 12 23  4  0
 13 20  4  0
 13 26  4  0
 14 19  4  0
 17 18  4  0
 17 24  4  0
 19 23  4  0
 20 24  4  0
 23 26  1  0
M  END
$$$$

 Created by Python create_sdf_string function

 26 30  0  0  0  0  0  0  0  0999 V2000
   10.0084   -1.8019   23.4945 C   0  0  0  0  0  0  0  0  0  0  0  0
   10.0005   -4.2520   16.5631 C   0  0  0  0  0  0  0  0  0  0  0  0
   10.2759   -4.0036   17.8845 C   0  0  0  0  0  0  0  0  0  0  0  0
    8.5652    1.5478   25.3778 N   0  0  0  0  0  0  0  0  0  0  0  0
    6.8048   -7.5457   17.8752 C   0  0  0  0  0  0  0  0  0  0  0  0
    6.1721   -8.2186   15.9886 N   0  0  0  0  0  0  0  0  0  0  0  0
   11.1764   -2.6600   19.5604 C   0  0  0  0  0  0  0  0  0  0  0  0
    9.5491   -0.6380   24.1912 C   0  0  0  0  0  0  0  0  0  0  0  0
    7.5337   -6.9256   16.9519 C   0  0  0  0  0  0  0  0  0  0  0  0
    9.6782    0.5671   23.5143 C   0  0  0  0  0  0  0  0  0  0  0  0
    8.4532    0.3482   26.0821 C   0  0  0  0  0  0  0  0  0  0  0  0
   10.4239   -1.7677   22.2230 N   0  0  0  0  0  0  0  0  0  0  0  0
    9.9468   -4.5953   20.1709 C   0  0  0  0  0  0  0  0  0  0  0  0
   10.0366   -3.0590   23.9864 N   0  0  0  0  0  0  0  0  0  0  0  0
    7.1191   -7.3636   15.7739 C   0  0  0  0  0  0  0  0  0  0  0  0
    5.9612   -8.3203   17.2732 N   0  0  0  0  0  0  0  0  0  0  0  0
    8.5296   -5.9814   17.1841 C   0  0  0  0  0  0  0  0  0  0  0  0
    9.1527   -5.2118   16.2116 C   0  0  0  0  0  0  0  0  0  0  0  0
   10.3364   -3.8368   22.9255 O   0  0  0  0  0  0  0  0  0  0  0  0
    9.6947   -4.8407   18.8534 C   0  0  0  0  0  0  0  0  0  0  0  0
    9.1596    1.7042   24.1381 C   0  0  0  0  0  0  0  0  0  0  0  0
   11.0456   -2.9774   18.2694 N   0  0  0  0  0  0  0  0  0  0  0  0
   10.4788   -3.0457   21.8593 C   0  0  0  0  0  0  0  0  0  0  0  0
    8.8693   -5.8099   18.4657 N   0  0  0  0  0  0  0  0  0  0  0  0
    8.9892   -0.7926   25.4573 C   0  0  0  0  0  0  0  0  0  0  0  0
   10.5677   -3.4462   20.5323 C   0  0  0  0  0  0  0  0  0  0  0  0
  1  8  1  0
  1 12  4  0
  1 14  4  0
  2  3  4  0
  2 18  4  0
  3 20  4  0
  3 22  4  0
  4 11  4  0
  4 21  4  0
  5  9  4  0
  5 16  4  0
  6 15  4  0
  6 16  4  0
  7 22  4  0
  7 26  4  0
  8 10  4  0
  8 25  4  0
  9 15  4  0
  9 17  1  0
 10 21  4  0
 11 25  4  0
 12 23  4  0
 13 20  4  0
 13 26  4  0
 14 19  4  0
 17 18  4  0
 17 24  4  0
 19 23  4  0
 20 24  4  0
 23 26  1  0
M  END
$$$$

 Created by Python create_sdf_string function

 26 30  0  0  0  0  0  0  0  0999 V2000
   10.0084   -1.8019   23.4945 C   0  0  0  0  0  0  0  0  0  0  0  0
   10.0005   -4.2520   16.5631 C   0  0  0  0  0  0  0  0  0  0  0  0
   10.2759   -4.0036   17.8845 C   0  0  0  0  0  0  0  0  0  0  0  0
    8.5652    1.5478   25.3778 N   0  0  0  0  0  0  0  0  0  0  0  0
    6.8048   -7.5457   17.8752 C   0  0  0  0  0  0  0  0  0  0  0  0
    6.1721   -8.2186   15.9886 N   0  0  0  0  0  0  0  0  0  0  0  0
   11.1764   -2.6600   19.5604 C   0  0  0  0  0  0  0  0  0  0  0  0
    9.5491   -0.6380   24.1912 C   0  0  0  0  0  0  0  0  0  0  0  0
    7.5337   -6.9256   16.9519 C   0  0  0  0  0  0  0  0  0  0  0  0
    9.6782    0.5671   23.5143 C   0  0  0  0  0  0  0  0  0  0  0  0
    8.4532    0.3482   26.0821 C   0  0  0  0  0  0  0  0  0  0  0  0
   10.4239   -1.7677   22.2230 N   0  0  0  0  0  0  0  0  0  0  0  0
    9.9468   -4.5953   20.1709 C   0  0  0  0  0  0  0  0  0  0  0  0
   10.0366   -3.0590   23.9864 N   0  0  0  0  0  0  0  0  0  0  0  0
    7.1191   -7.3636   15.7739 C   0  0  0  0  0  0  0  0  0  0  0  0
    5.9612   -8.3203   17.2732 N   0  0  0  0  0  0  0  0  0  0  0  0
    8.5296   -5.9814   17.1841 C   0  0  0  0  0  0  0  0  0  0  0  0
    9.1527   -5.2118   16.2116 C   0  0  0  0  0  0  0  0  0  0  0  0
   10.3364   -3.8368   22.9255 O   0  0  0  0  0  0  0  0  0  0  0  0
    9.6947   -4.8407   18.8534 C   0  0  0  0  0  0  0  0  0  0  0  0
    9.1596    1.7042   24.1381 C   0  0  0  0  0  0  0  0  0  0  0  0
   11.0456   -2.9774   18.2694 N   0  0  0  0  0  0  0  0  0  0  0  0
   10.4788   -3.0457   21.8593 C   0  0  0  0  0  0  0  0  0  0  0  0
    8.8693   -5.8099   18.4657 N   0  0  0  0  0  0  0  0  0  0  0  0
    8.9892   -0.7926   25.4573 C   0  0  0  0  0  0  0  0  0  0  0  0
   10.5677   -3.4462   20.5323 C   0  0  0  0  0  0  0  0  0  0  0  0
  1  8  1  0
  1 12  4  0
  1 14  4  0
  2  3  4  0
  2 18  4  0
  3 20  4  0
  3 22  4  0
  4 11  4  0
  4 21  4  0
  5  9  4  0
  5 16  4  0
  6 15  4  0
  6 16  4  0
  7 22  4  0
  7 26  4  0
  8 10  4  0
  8 25  4  0
  9 15  4  0
  9 17  1  0
 10 21  4  0
 11 25  4  0
 12 23  4  0
 13 20  4  0
 13 26  4  0
 14 19  4  0
 17 18  4  0
 17 24  4  0
 19 23  4  0
 20 24  4  0
 23 26  1  0
M  END
$$$$

 Created by Python create_sdf_string function

 26 30  0  0  0  0  0  0  0  0999 V2000
   10.0084   -1.8019   23.4945 C   0  0  0  0  0  0  0  0  0  0  0  0
   10.0005   -4.2520   16.5631 C   0  0  0  0  0  0  0  0  0  0  0  0
   10.2759   -4.0036   17.8845 C   0  0  0  0  0  0  0  0  0  0  0  0
    8.5652    1.5478   25.3778 N   0  0  0  0  0  0  0  0  0  0  0  0
    6.8048   -7.5457   17.8752 C   0  0  0  0  0  0  0  0  0  0  0  0
    6.1721   -8.2186   15.9886 N   0  0  0  0  0  0  0  0  0  0  0  0
   11.1764   -2.6600   19.5604 C   0  0  0  0  0  0  0  0  0  0  0  0
    9.5491   -0.6380   24.1912 C   0  0  0  0  0  0  0  0  0  0  0  0
    7.5337   -6.9256   16.9519 C   0  0  0  0  0  0  0  0  0  0  0  0
    9.6782    0.5671   23.5143 C   0  0  0  0  0  0  0  0  0  0  0  0
    8.4532    0.3482   26.0821 C   0  0  0  0  0  0  0  0  0  0  0  0
   10.4239   -1.7677   22.2230 N   0  0  0  0  0  0  0  0  0  0  0  0
    9.9468   -4.5953   20.1709 C   0  0  0  0  0  0  0  0  0  0  0  0
   10.0366   -3.0590   23.9864 N   0  0  0  0  0  0  0  0  0  0  0  0
    7.1191   -7.3636   15.7739 C   0  0  0  0  0  0  0  0  0  0  0  0
    5.9612   -8.3203   17.2732 N   0  0  0  0  0  0  0  0  0  0  0  0
    8.5296   -5.9814   17.1841 C   0  0  0  0  0  0  0  0  0  0  0  0
    9.1527   -5.2118   16.2116 C   0  0  0  0  0  0  0  0  0  0  0  0
   10.3364   -3.8368   22.9255 O   0  0  0  0  0  0  0  0  0  0  0  0
    9.6947   -4.8407   18.8534 C   0  0  0  0  0  0  0  0  0  0  0  0
    9.1596    1.7042   24.1381 C   0  0  0  0  0  0  0  0  0  0  0  0
   11.0456   -2.9774   18.2694 N   0  0  0  0  0  0  0  0  0  0  0  0
   10.4788   -3.0457   21.8593 C   0  0  0  0  0  0  0  0  0  0  0  0
    8.8693   -5.8099   18.4657 N   0  0  0  0  0  0  0  0  0  0  0  0
    8.9892   -0.7926   25.4573 C   0  0  0  0  0  0  0  0  0  0  0  0
   10.5677   -3.4462   20.5323 C   0  0  0  0  0  0  0  0  0  0  0  0
  1  8  1  0
  1 12  4  0
  1 14  4  0
  2  3  4  0
  2 18  4  0
  3 20  4  0
  3 22  4  0
  4 11  4  0
  4 21  4  0
  5  9  4  0
  5 16  4  0
  6 15  4  0
  6 16  4  0
  7 22  4  0
  7 26  4  0
  8 10  4  0
  8 25  4  0
  9 15  4  0
  9 17  1  0
 10 21  4  0
 11 25  4  0
 12 23  4  0
 13 20  4  0
 13 26  4  0
 14 19  4  0
 17 18  4  0
 17 24  4  0
 19 23  4  0
 20 24  4  0
 23 26  1  0
M  END
$$$$

 Created by Python create_sdf_string function

 26 30  0  0  0  0  0  0  0  0999 V2000
   10.0084   -1.8019   23.4945 C   0  0  0  0  0  0  0  0  0  0  0  0
   10.0005   -4.2520   16.5631 C   0  0  0  0  0  0  0  0  0  0  0  0
   10.2759   -4.0036   17.8845 C   0  0  0  0  0  0  0  0  0  0  0  0
    8.5652    1.5478   25.3778 N   0  0  0  0  0  0  0  0  0  0  0  0
    6.8048   -7.5457   17.8752 C   0  0  0  0  0  0  0  0  0  0  0  0
    6.1721   -8.2186   15.9886 N   0  0  0  0  0  0  0  0  0  0  0  0
   11.1764   -2.6600   19.5604 C   0  0  0  0  0  0  0  0  0  0  0  0
    9.5491   -0.6380   24.1912 C   0  0  0  0  0  0  0  0  0  0  0  0
    7.5337   -6.9256   16.9519 C   0  0  0  0  0  0  0  0  0  0  0  0
    9.6782    0.5671   23.5143 C   0  0  0  0  0  0  0  0  0  0  0  0
    8.4532    0.3482   26.0821 C   0  0  0  0  0  0  0  0  0  0  0  0
   10.4239   -1.7677   22.2230 N   0  0  0  0  0  0  0  0  0  0  0  0
    9.9468   -4.5953   20.1709 C   0  0  0  0  0  0  0  0  0  0  0  0
   10.0366   -3.0590   23.9864 N   0  0  0  0  0  0  0  0  0  0  0  0
    7.1191   -7.3636   15.7739 C   0  0  0  0  0  0  0  0  0  0  0  0
    5.9612   -8.3203   17.2732 N   0  0  0  0  0  0  0  0  0  0  0  0
    8.5296   -5.9814   17.1841 C   0  0  0  0  0  0  0  0  0  0  0  0
    9.1527   -5.2118   16.2116 C   0  0  0  0  0  0  0  0  0  0  0  0
   10.3364   -3.8368   22.9255 O   0  0  0  0  0  0  0  0  0  0  0  0
    9.6947   -4.8407   18.8534 C   0  0  0  0  0  0  0  0  0  0  0  0
    9.1596    1.7042   24.1381 C   0  0  0  0  0  0  0  0  0  0  0  0
   11.0456   -2.9774   18.2694 N   0  0  0  0  0  0  0  0  0  0  0  0
   10.4788   -3.0457   21.8593 C   0  0  0  0  0  0  0  0  0  0  0  0
    8.8693   -5.8099   18.4657 N   0  0  0  0  0  0  0  0  0  0  0  0
    8.9892   -0.7926   25.4573 C   0  0  0  0  0  0  0  0  0  0  0  0
   10.5677   -3.4462   20.5323 C   0  0  0  0  0  0  0  0  0  0  0  0
  1  8  1  0
  1 12  4  0
  1 14  4  0
  2  3  4  0
  2 18  4  0
  3 20  4  0
  3 22  4  0
  4 11  4  0
  4 21  4  0
  5  9  4  0
  5 16  4  0
  6 15  4  0
  6 16  4  0
  7 22  4  0
  7 26  4  0
  8 10  4  0
  8 25  4  0
  9 15  4  0
  9 17  1  0
 10 21  4  0
 11 25  4  0
 12 23  4  0
 13 20  4  0
 13 26  4  0
 14 19  4  0
 17 18  4  0
 17 24  4  0
 19 23  4  0
 20 24  4  0
 23 26  1  0
M  END
$$$$

 Created by Python create_sdf_string function

 26 30  0  0  0  0  0  0  0  0999 V2000
   10.0084   -1.8019   23.4945 C   0  0  0  0  0  0  0  0  0  0  0  0
   10.0005   -4.2520   16.5631 C   0  0  0  0  0  0  0  0  0  0  0  0
   10.2759   -4.0036   17.8845 C   0  0  0  0  0  0  0  0  0  0  0  0
    8.5652    1.5478   25.3778 N   0  0  0  0  0  0  0  0  0  0  0  0
    6.8048   -7.5457   17.8752 C   0  0  0  0  0  0  0  0  0  0  0  0
    6.1721   -8.2186   15.9886 N   0  0  0  0  0  0  0  0  0  0  0  0
   11.1764   -2.6600   19.5604 C   0  0  0  0  0  0  0  0  0  0  0  0
    9.5491   -0.6380   24.1912 C   0  0  0  0  0  0  0  0  0  0  0  0
    7.5337   -6.9256   16.9519 C   0  0  0  0  0  0  0  0  0  0  0  0
    9.6782    0.5671   23.5143 C   0  0  0  0  0  0  0  0  0  0  0  0
    8.4532    0.3482   26.0821 C   0  0  0  0  0  0  0  0  0  0  0  0
   10.4239   -1.7677   22.2230 N   0  0  0  0  0  0  0  0  0  0  0  0
    9.9468   -4.5953   20.1709 C   0  0  0  0  0  0  0  0  0  0  0  0
   10.0366   -3.0590   23.9864 N   0  0  0  0  0  0  0  0  0  0  0  0
    7.1191   -7.3636   15.7739 C   0  0  0  0  0  0  0  0  0  0  0  0
    5.9612   -8.3203   17.2732 N   0  0  0  0  0  0  0  0  0  0  0  0
    8.5296   -5.9814   17.1841 C   0  0  0  0  0  0  0  0  0  0  0  0
    9.1527   -5.2118   16.2116 C   0  0  0  0  0  0  0  0  0  0  0  0
   10.3364   -3.8368   22.9255 O   0  0  0  0  0  0  0  0  0  0  0  0
    9.6947   -4.8407   18.8534 C   0  0  0  0  0  0  0  0  0  0  0  0
    9.1596    1.7042   24.1381 C   0  0  0  0  0  0  0  0  0  0  0  0
   11.0456   -2.9774   18.2694 N   0  0  0  0  0  0  0  0  0  0  0  0
   10.4788   -3.0457   21.8593 C   0  0  0  0  0  0  0  0  0  0  0  0
    8.8693   -5.8099   18.4657 N   0  0  0  0  0  0  0  0  0  0  0  0
    8.9892   -0.7926   25.4573 C   0  0  0  0  0  0  0  0  0  0  0  0
   10.5677   -3.4462   20.5323 C   0  0  0  0  0  0  0  0  0  0  0  0
  1  8  1  0
  1 12  4  0
  1 14  4  0
  2  3  4  0
  2 18  4  0
  3 20  4  0
  3 22  4  0
  4 11  4  0
  4 21  4  0
  5  9  4  0
  5 16  4  0
  6 15  4  0
  6 16  4  0
  7 22  4  0
  7 26  4  0
  8 10  4  0
  8 25  4  0
  9 15  4  0
  9 17  1  0
 10 21  4  0
 11 25  4  0
 12 23  4  0
 13 20  4  0
 13 26  4  0
 14 19  4  0
 17 18  4  0
 17 24  4  0
 19 23  4  0
 20 24  4  0
 23 26  1  0
M  END
$$$$

 Created by Python create_sdf_string function

 26 30  0  0  0  0  0  0  0  0999 V2000
   10.0084   -1.8019   23.4945 C   0  0  0  0  0  0  0  0  0  0  0  0
   10.0005   -4.2520   16.5631 C   0  0  0  0  0  0  0  0  0  0  0  0
   10.2759   -4.0036   17.8845 C   0  0  0  0  0  0  0  0  0  0  0  0
    8.5652    1.5478   25.3778 N   0  0  0  0  0  0  0  0  0  0  0  0
    6.8048   -7.5457   17.8752 C   0  0  0  0  0  0  0  0  0  0  0  0
    6.1721   -8.2186   15.9886 N   0  0  0  0  0  0  0  0  0  0  0  0
   11.1764   -2.6600   19.5604 C   0  0  0  0  0  0  0  0  0  0  0  0
    9.5491   -0.6380   24.1912 C   0  0  0  0  0  0  0  0  0  0  0  0
    7.5337   -6.9256   16.9519 C   0  0  0  0  0  0  0  0  0  0  0  0
    9.6782    0.5671   23.5143 C   0  0  0  0  0  0  0  0  0  0  0  0
    8.4532    0.3482   26.0821 C   0  0  0  0  0  0  0  0  0  0  0  0
   10.4239   -1.7677   22.2230 N   0  0  0  0  0  0  0  0  0  0  0  0
    9.9468   -4.5953   20.1709 C   0  0  0  0  0  0  0  0  0  0  0  0
   10.0366   -3.0590   23.9864 N   0  0  0  0  0  0  0  0  0  0  0  0
    7.1191   -7.3636   15.7739 C   0  0  0  0  0  0  0  0  0  0  0  0
    5.9612   -8.3203   17.2732 N   0  0  0  0  0  0  0  0  0  0  0  0
    8.5296   -5.9814   17.1841 C   0  0  0  0  0  0  0  0  0  0  0  0
    9.1527   -5.2118   16.2116 C   0  0  0  0  0  0  0  0  0  0  0  0
   10.3364   -3.8368   22.9255 O   0  0  0  0  0  0  0  0  0  0  0  0
    9.6947   -4.8407   18.8534 C   0  0  0  0  0  0  0  0  0  0  0  0
    9.1596    1.7042   24.1381 C   0  0  0  0  0  0  0  0  0  0  0  0
   11.0456   -2.9774   18.2694 N   0  0  0  0  0  0  0  0  0  0  0  0
   10.4788   -3.0457   21.8593 C   0  0  0  0  0  0  0  0  0  0  0  0
    8.8693   -5.8099   18.4657 N   0  0  0  0  0  0  0  0  0  0  0  0
    8.9892   -0.7926   25.4573 C   0  0  0  0  0  0  0  0  0  0  0  0
   10.5677   -3.4462   20.5323 C   0  0  0  0  0  0  0  0  0  0  0  0
  1  8  1  0
  1 12  4  0
  1 14  4  0
  2  3  4  0
  2 18  4  0
  3 20  4  0
  3 22  4  0
  4 11  4  0
  4 21  4  0
  5  9  4  0
  5 16  4  0
  6 15  4  0
  6 16  4  0
  7 22  4  0
  7 26  4  0
  8 10  4  0
  8 25  4  0
  9 15  4  0
  9 17  1  0
 10 21  4  0
 11 25  4  0
 12 23  4  0
 13 20  4  0
 13 26  4  0
 14 19  4  0
 17 18  4  0
 17 24  4  0
 19 23  4  0
 20 24  4  0
 23 26  1  0
M  END
$$$$

 Created by Python create_sdf_string function

 26 30  0  0  0  0  0  0  0  0999 V2000
   10.0084   -1.8019   23.4945 C   0  0  0  0  0  0  0  0  0  0  0  0
   10.0005   -4.2520   16.5631 C   0  0  0  0  0  0  0  0  0  0  0  0
   10.2759   -4.0036   17.8845 C   0  0  0  0  0  0  0  0  0  0  0  0
    8.5652    1.5478   25.3778 N   0  0  0  0  0  0  0  0  0  0  0  0
    6.8048   -7.5457   17.8752 C   0  0  0  0  0  0  0  0  0  0  0  0
    6.1721   -8.2186   15.9886 N   0  0  0  0  0  0  0  0  0  0  0  0
   11.1764   -2.6600   19.5604 C   0  0  0  0  0  0  0  0  0  0  0  0
    9.5491   -0.6380   24.1912 C   0  0  0  0  0  0  0  0  0  0  0  0
    7.5337   -6.9256   16.9519 C   0  0  0  0  0  0  0  0  0  0  0  0
    9.6782    0.5671   23.5143 C   0  0  0  0  0  0  0  0  0  0  0  0
    8.4532    0.3482   26.0821 C   0  0  0  0  0  0  0  0  0  0  0  0
   10.4239   -1.7677   22.2230 N   0  0  0  0  0  0  0  0  0  0  0  0
    9.9468   -4.5953   20.1709 C   0  0  0  0  0  0  0  0  0  0  0  0
   10.0366   -3.0590   23.9864 N   0  0  0  0  0  0  0  0  0  0  0  0
    7.1191   -7.3636   15.7739 C   0  0  0  0  0  0  0  0  0  0  0  0
    5.9612   -8.3203   17.2732 N   0  0  0  0  0  0  0  0  0  0  0  0
    8.5296   -5.9814   17.1841 C   0  0  0  0  0  0  0  0  0  0  0  0
    9.1527   -5.2118   16.2116 C   0  0  0  0  0  0  0  0  0  0  0  0
   10.3364   -3.8368   22.9255 O   0  0  0  0  0  0  0  0  0  0  0  0
    9.6947   -4.8407   18.8534 C   0  0  0  0  0  0  0  0  0  0  0  0
    9.1596    1.7042   24.1381 C   0  0  0  0  0  0  0  0  0  0  0  0
   11.0456   -2.9774   18.2694 N   0  0  0  0  0  0  0  0  0  0  0  0
   10.4788   -3.0457   21.8593 C   0  0  0  0  0  0  0  0  0  0  0  0
    8.8693   -5.8099   18.4657 N   0  0  0  0  0  0  0  0  0  0  0  0
    8.9892   -0.7926   25.4573 C   0  0  0  0  0  0  0  0  0  0  0  0
   10.5677   -3.4462   20.5323 C   0  0  0  0  0  0  0  0  0  0  0  0
  1  8  1  0
  1 12  4  0
  1 14  4  0
  2  3  4  0
  2 18  4  0
  3 20  4  0
  3 22  4  0
  4 11  4  0
  4 21  4  0
  5  9  4  0
  5 16  4  0
  6 15  4  0
  6 16  4  0
  7 22  4  0
  7 26  4  0
  8 10  4  0
  8 25  4  0
  9 15  4  0
  9 17  1  0
 10 21  4  0
 11 25  4  0
 12 23  4  0
 13 20  4  0
 13 26  4  0
 14 19  4  0
 17 18  4  0
 17 24  4  0
 19 23  4  0
 20 24  4  0
 23 26  1  0
M  END
$$$$

 Created by Python create_sdf_string function

 26 30  0  0  0  0  0  0  0  0999 V2000
   10.0084   -1.8019   23.4945 C   0  0  0  0  0  0  0  0  0  0  0  0
   10.0005   -4.2520   16.5631 C   0  0  0  0  0  0  0  0  0  0  0  0
   10.2759   -4.0036   17.8845 C   0  0  0  0  0  0  0  0  0  0  0  0
    8.5652    1.5478   25.3778 N   0  0  0  0  0  0  0  0  0  0  0  0
    6.8048   -7.5457   17.8752 C   0  0  0  0  0  0  0  0  0  0  0  0
    6.1721   -8.2186   15.9886 N   0  0  0  0  0  0  0  0  0  0  0  0
   11.1764   -2.6600   19.5604 C   0  0  0  0  0  0  0  0  0  0  0  0
    9.5491   -0.6380   24.1912 C   0  0  0  0  0  0  0  0  0  0  0  0
    7.5337   -6.9256   16.9519 C   0  0  0  0  0  0  0  0  0  0  0  0
    9.6782    0.5671   23.5143 C   0  0  0  0  0  0  0  0  0  0  0  0
    8.4532    0.3482   26.0821 C   0  0  0  0  0  0  0  0  0  0  0  0
   10.4239   -1.7677   22.2230 N   0  0  0  0  0  0  0  0  0  0  0  0
    9.9468   -4.5953   20.1709 C   0  0  0  0  0  0  0  0  0  0  0  0
   10.0366   -3.0590   23.9864 N   0  0  0  0  0  0  0  0  0  0  0  0
    7.1191   -7.3636   15.7739 C   0  0  0  0  0  0  0  0  0  0  0  0
    5.9612   -8.3203   17.2732 N   0  0  0  0  0  0  0  0  0  0  0  0
    8.5296   -5.9814   17.1841 C   0  0  0  0  0  0  0  0  0  0  0  0
    9.1527   -5.2118   16.2116 C   0  0  0  0  0  0  0  0  0  0  0  0
   10.3364   -3.8368   22.9255 O   0  0  0  0  0  0  0  0  0  0  0  0
    9.6947   -4.8407   18.8534 C   0  0  0  0  0  0  0  0  0  0  0  0
    9.1596    1.7042   24.1381 C   0  0  0  0  0  0  0  0  0  0  0  0
   11.0456   -2.9774   18.2694 N   0  0  0  0  0  0  0  0  0  0  0  0
   10.4788   -3.0457   21.8593 C   0  0  0  0  0  0  0  0  0  0  0  0
    8.8693   -5.8099   18.4657 N   0  0  0  0  0  0  0  0  0  0  0  0
    8.9892   -0.7926   25.4573 C   0  0  0  0  0  0  0  0  0  0  0  0
   10.5677   -3.4462   20.5323 C   0  0  0  0  0  0  0  0  0  0  0  0
  1  8  1  0
  1 12  4  0
  1 14  4  0
  2  3  4  0
  2 18  4  0
  3 20  4  0
  3 22  4  0
  4 11  4  0
  4 21  4  0
  5  9  4  0
  5 16  4  0
  6 15  4  0
  6 16  4  0
  7 22  4  0
  7 26  4  0
  8 10  4  0
  8 25  4  0
  9 15  4  0
  9 17  1  0
 10 21  4  0
 11 25  4  0
 12 23  4  0
 13 20  4  0
 13 26  4  0
 14 19  4  0
 17 18  4  0
 17 24  4  0
 19 23  4  0
 20 24  4  0
 23 26  1  0
M  END
$$$$

 Created by Python create_sdf_string function

 26 30  0  0  0  0  0  0  0  0999 V2000
   10.0084   -1.8019   23.4945 C   0  0  0  0  0  0  0  0  0  0  0  0
   10.0005   -4.2520   16.5631 C   0  0  0  0  0  0  0  0  0  0  0  0
   10.2759   -4.0036   17.8845 C   0  0  0  0  0  0  0  0  0  0  0  0
    8.5652    1.5478   25.3778 N   0  0  0  0  0  0  0  0  0  0  0  0
    6.8048   -7.5457   17.8752 C   0  0  0  0  0  0  0  0  0  0  0  0
    6.1721   -8.2186   15.9886 N   0  0  0  0  0  0  0  0  0  0  0  0
   11.1764   -2.6600   19.5604 C   0  0  0  0  0  0  0  0  0  0  0  0
    9.5491   -0.6380   24.1912 C   0  0  0  0  0  0  0  0  0  0  0  0
    7.5337   -6.9256   16.9519 C   0  0  0  0  0  0  0  0  0  0  0  0
    9.6782    0.5671   23.5143 C   0  0  0  0  0  0  0  0  0  0  0  0
    8.4532    0.3482   26.0821 C   0  0  0  0  0  0  0  0  0  0  0  0
   10.4239   -1.7677   22.2230 N   0  0  0  0  0  0  0  0  0  0  0  0
    9.9468   -4.5953   20.1709 C   0  0  0  0  0  0  0  0  0  0  0  0
   10.0366   -3.0590   23.9864 N   0  0  0  0  0  0  0  0  0  0  0  0
    7.1191   -7.3636   15.7739 C   0  0  0  0  0  0  0  0  0  0  0  0
    5.9612   -8.3203   17.2732 N   0  0  0  0  0  0  0  0  0  0  0  0
    8.5296   -5.9814   17.1841 C   0  0  0  0  0  0  0  0  0  0  0  0
    9.1527   -5.2118   16.2116 C   0  0  0  0  0  0  0  0  0  0  0  0
   10.3364   -3.8368   22.9255 O   0  0  0  0  0  0  0  0  0  0  0  0
    9.6947   -4.8407   18.8534 C   0  0  0  0  0  0  0  0  0  0  0  0
    9.1596    1.7042   24.1381 C   0  0  0  0  0  0  0  0  0  0  0  0
   11.0456   -2.9774   18.2694 N   0  0  0  0  0  0  0  0  0  0  0  0
   10.4788   -3.0457   21.8593 C   0  0  0  0  0  0  0  0  0  0  0  0
    8.8693   -5.8099   18.4657 N   0  0  0  0  0  0  0  0  0  0  0  0
    8.9892   -0.7926   25.4573 C   0  0  0  0  0  0  0  0  0  0  0  0
   10.5677   -3.4462   20.5323 C   0  0  0  0  0  0  0  0  0  0  0  0
  1  8  1  0
  1 12  4  0
  1 14  4  0
  2  3  4  0
  2 18  4  0
  3 20  4  0
  3 22  4  0
  4 11  4  0
  4 21  4  0
  5  9  4  0
  5 16  4  0
  6 15  4  0
  6 16  4  0
  7 22  4  0
  7 26  4  0
  8 10  4  0
  8 25  4  0
  9 15  4  0
  9 17  1  0
 10 21  4  0
 11 25  4  0
 12 23  4  0
 13 20  4  0
 13 26  4  0
 14 19  4  0
 17 18  4  0
 17 24  4  0
 19 23  4  0
 20 24  4  0
 23 26  1  0
M  END
$$$$

 Created by Python create_sdf_string function

 26 30  0  0  0  0  0  0  0  0999 V2000
   10.0084   -1.8019   23.4945 C   0  0  0  0  0  0  0  0  0  0  0  0
   10.0005   -4.2520   16.5631 C   0  0  0  0  0  0  0  0  0  0  0  0
   10.2759   -4.0036   17.8845 C   0  0  0  0  0  0  0  0  0  0  0  0
    8.5652    1.5478   25.3778 N   0  0  0  0  0  0  0  0  0  0  0  0
    6.8048   -7.5457   17.8752 C   0  0  0  0  0  0  0  0  0  0  0  0
    6.1721   -8.2186   15.9886 N   0  0  0  0  0  0  0  0  0  0  0  0
   11.1764   -2.6600   19.5604 C   0  0  0  0  0  0  0  0  0  0  0  0
    9.5491   -0.6380   24.1912 C   0  0  0  0  0  0  0  0  0  0  0  0
    7.5337   -6.9256   16.9519 C   0  0  0  0  0  0  0  0  0  0  0  0
    9.6782    0.5671   23.5143 C   0  0  0  0  0  0  0  0  0  0  0  0
    8.4532    0.3482   26.0821 C   0  0  0  0  0  0  0  0  0  0  0  0
   10.4239   -1.7677   22.2230 N   0  0  0  0  0  0  0  0  0  0  0  0
    9.9468   -4.5953   20.1709 C   0  0  0  0  0  0  0  0  0  0  0  0
   10.0366   -3.0590   23.9864 N   0  0  0  0  0  0  0  0  0  0  0  0
    7.1191   -7.3636   15.7739 C   0  0  0  0  0  0  0  0  0  0  0  0
    5.9612   -8.3203   17.2732 N   0  0  0  0  0  0  0  0  0  0  0  0
    8.5296   -5.9814   17.1841 C   0  0  0  0  0  0  0  0  0  0  0  0
    9.1527   -5.2118   16.2116 C   0  0  0  0  0  0  0  0  0  0  0  0
   10.3364   -3.8368   22.9255 O   0  0  0  0  0  0  0  0  0  0  0  0
    9.6947   -4.8407   18.8534 C   0  0  0  0  0  0  0  0  0  0  0  0
    9.1596    1.7042   24.1381 C   0  0  0  0  0  0  0  0  0  0  0  0
   11.0456   -2.9774   18.2694 N   0  0  0  0  0  0  0  0  0  0  0  0
   10.4788   -3.0457   21.8593 C   0  0  0  0  0  0  0  0  0  0  0  0
    8.8693   -5.8099   18.4657 N   0  0  0  0  0  0  0  0  0  0  0  0
    8.9892   -0.7926   25.4573 C   0  0  0  0  0  0  0  0  0  0  0  0
   10.5677   -3.4462   20.5323 C   0  0  0  0  0  0  0  0  0  0  0  0
  1  8  1  0
  1 12  4  0
  1 14  4  0
  2  3  4  0
  2 18  4  0
  3 20  4  0
  3 22  4  0
  4 11  4  0
  4 21  4  0
  5  9  4  0
  5 16  4  0
  6 15  4  0
  6 16  4  0
  7 22  4  0
  7 26  4  0
  8 10  4  0
  8 25  4  0
  9 15  4  0
  9 17  1  0
 10 21  4  0
 11 25  4  0
 12 23  4  0
 13 20  4  0
 13 26  4  0
 14 19  4  0
 17 18  4  0
 17 24  4  0
 19 23  4  0
 20 24  4  0
 23 26  1  0
M  END
$$$$

 Created by Python create_sdf_string function

 26 30  0  0  0  0  0  0  0  0999 V2000
   10.0084   -1.8019   23.4945 C   0  0  0  0  0  0  0  0  0  0  0  0
   10.0005   -4.2520   16.5631 C   0  0  0  0  0  0  0  0  0  0  0  0
   10.2759   -4.0036   17.8845 C   0  0  0  0  0  0  0  0  0  0  0  0
    8.5652    1.5478   25.3778 N   0  0  0  0  0  0  0  0  0  0  0  0
    6.8048   -7.5457   17.8752 C   0  0  0  0  0  0  0  0  0  0  0  0
    6.1721   -8.2186   15.9886 N   0  0  0  0  0  0  0  0  0  0  0  0
   11.1764   -2.6600   19.5604 C   0  0  0  0  0  0  0  0  0  0  0  0
    9.5491   -0.6380   24.1912 C   0  0  0  0  0  0  0  0  0  0  0  0
    7.5337   -6.9256   16.9519 C   0  0  0  0  0  0  0  0  0  0  0  0
    9.6782    0.5671   23.5143 C   0  0  0  0  0  0  0  0  0  0  0  0
    8.4532    0.3482   26.0821 C   0  0  0  0  0  0  0  0  0  0  0  0
   10.4239   -1.7677   22.2230 N   0  0  0  0  0  0  0  0  0  0  0  0
    9.9468   -4.5953   20.1709 C   0  0  0  0  0  0  0  0  0  0  0  0
   10.0366   -3.0590   23.9864 N   0  0  0  0  0  0  0  0  0  0  0  0
    7.1191   -7.3636   15.7739 C   0  0  0  0  0  0  0  0  0  0  0  0
    5.9612   -8.3203   17.2732 N   0  0  0  0  0  0  0  0  0  0  0  0
    8.5296   -5.9814   17.1841 C   0  0  0  0  0  0  0  0  0  0  0  0
    9.1527   -5.2118   16.2116 C   0  0  0  0  0  0  0  0  0  0  0  0
   10.3364   -3.8368   22.9255 O   0  0  0  0  0  0  0  0  0  0  0  0
    9.6947   -4.8407   18.8534 C   0  0  0  0  0  0  0  0  0  0  0  0
    9.1596    1.7042   24.1381 C   0  0  0  0  0  0  0  0  0  0  0  0
   11.0456   -2.9774   18.2694 N   0  0  0  0  0  0  0  0  0  0  0  0
   10.4788   -3.0457   21.8593 C   0  0  0  0  0  0  0  0  0  0  0  0
    8.8693   -5.8099   18.4657 N   0  0  0  0  0  0  0  0  0  0  0  0
    8.9892   -0.7926   25.4573 C   0  0  0  0  0  0  0  0  0  0  0  0
   10.5677   -3.4462   20.5323 C   0  0  0  0  0  0  0  0  0  0  0  0
  1  8  1  0
  1 12  4  0
  1 14  4  0
  2  3  4  0
  2 18  4  0
  3 20  4  0
  3 22  4  0
  4 11  4  0
  4 21  4  0
  5  9  4  0
  5 16  4  0
  6 15  4  0
  6 16  4  0
  7 22  4  0
  7 26  4  0
  8 10  4  0
  8 25  4  0
  9 15  4  0
  9 17  1  0
 10 21  4  0
 11 25  4  0
 12 23  4  0
 13 20  4  0
 13 26  4  0
 14 19  4  0
 17 18  4  0
 17 24  4  0
 19 23  4  0
 20 24  4  0
 23 26  1  0
M  END
$$$$

 Created by Python create_sdf_string function

 26 30  0  0  0  0  0  0  0  0999 V2000
   10.0084   -1.8019   23.4945 C   0  0  0  0  0  0  0  0  0  0  0  0
   10.0005   -4.2520   16.5631 C   0  0  0  0  0  0  0  0  0  0  0  0
   10.2759   -4.0036   17.8845 C   0  0  0  0  0  0  0  0  0  0  0  0
    8.5652    1.5478   25.3778 N   0  0  0  0  0  0  0  0  0  0  0  0
    6.8048   -7.5457   17.8752 C   0  0  0  0  0  0  0  0  0  0  0  0
    6.1721   -8.2186   15.9886 N   0  0  0  0  0  0  0  0  0  0  0  0
   11.1764   -2.6600   19.5604 C   0  0  0  0  0  0  0  0  0  0  0  0
    9.5491   -0.6380   24.1912 C   0  0  0  0  0  0  0  0  0  0  0  0
    7.5337   -6.9256   16.9519 C   0  0  0  0  0  0  0  0  0  0  0  0
    9.6782    0.5671   23.5143 C   0  0  0  0  0  0  0  0  0  0  0  0
    8.4532    0.3482   26.0821 C   0  0  0  0  0  0  0  0  0  0  0  0
   10.4239   -1.7677   22.2230 N   0  0  0  0  0  0  0  0  0  0  0  0
    9.9468   -4.5953   20.1709 C   0  0  0  0  0  0  0  0  0  0  0  0
   10.0366   -3.0590   23.9864 N   0  0  0  0  0  0  0  0  0  0  0  0
    7.1191   -7.3636   15.7739 C   0  0  0  0  0  0  0  0  0  0  0  0
    5.9612   -8.3203   17.2732 N   0  0  0  0  0  0  0  0  0  0  0  0
    8.5296   -5.9814   17.1841 C   0  0  0  0  0  0  0  0  0  0  0  0
    9.1527   -5.2118   16.2116 C   0  0  0  0  0  0  0  0  0  0  0  0
   10.3364   -3.8368   22.9255 O   0  0  0  0  0  0  0  0  0  0  0  0
    9.6947   -4.8407   18.8534 C   0  0  0  0  0  0  0  0  0  0  0  0
    9.1596    1.7042   24.1381 C   0  0  0  0  0  0  0  0  0  0  0  0
   11.0456   -2.9774   18.2694 N   0  0  0  0  0  0  0  0  0  0  0  0
   10.4788   -3.0457   21.8593 C   0  0  0  0  0  0  0  0  0  0  0  0
    8.8693   -5.8099   18.4657 N   0  0  0  0  0  0  0  0  0  0  0  0
    8.9892   -0.7926   25.4573 C   0  0  0  0  0  0  0  0  0  0  0  0
   10.5677   -3.4462   20.5323 C   0  0  0  0  0  0  0  0  0  0  0  0
  1  8  1  0
  1 12  4  0
  1 14  4  0
  2  3  4  0
  2 18  4  0
  3 20  4  0
  3 22  4  0
  4 11  4  0
  4 21  4  0
  5  9  4  0
  5 16  4  0
  6 15  4  0
  6 16  4  0
  7 22  4  0
  7 26  4  0
  8 10  4  0
  8 25  4  0
  9 15  4  0
  9 17  1  0
 10 21  4  0
 11 25  4  0
 12 23  4  0
 13 20  4  0
 13 26  4  0
 14 19  4  0
 17 18  4  0
 17 24  4  0
 19 23  4  0
 20 24  4  0
 23 26  1  0
M  END
$$$$

 Created by Python create_sdf_string function

 26 30  0  0  0  0  0  0  0  0999 V2000
   10.0084   -1.8019   23.4945 C   0  0  0  0  0  0  0  0  0  0  0  0
   10.0005   -4.2520   16.5631 C   0  0  0  0  0  0  0  0  0  0  0  0
   10.2759   -4.0036   17.8845 C   0  0  0  0  0  0  0  0  0  0  0  0
    8.5652    1.5478   25.3778 N   0  0  0  0  0  0  0  0  0  0  0  0
    6.8048   -7.5457   17.8752 C   0  0  0  0  0  0  0  0  0  0  0  0
    6.1721   -8.2186   15.9886 N   0  0  0  0  0  0  0  0  0  0  0  0
   11.1764   -2.6600   19.5604 C   0  0  0  0  0  0  0  0  0  0  0  0
    9.5491   -0.6380   24.1912 C   0  0  0  0  0  0  0  0  0  0  0  0
    7.5337   -6.9256   16.9519 C   0  0  0  0  0  0  0  0  0  0  0  0
    9.6782    0.5671   23.5143 C   0  0  0  0  0  0  0  0  0  0  0  0
    8.4532    0.3482   26.0821 C   0  0  0  0  0  0  0  0  0  0  0  0
   10.4239   -1.7677   22.2230 N   0  0  0  0  0  0  0  0  0  0  0  0
    9.9468   -4.5953   20.1709 C   0  0  0  0  0  0  0  0  0  0  0  0
   10.0366   -3.0590   23.9864 N   0  0  0  0  0  0  0  0  0  0  0  0
    7.1191   -7.3636   15.7739 C   0  0  0  0  0  0  0  0  0  0  0  0
    5.9612   -8.3203   17.2732 N   0  0  0  0  0  0  0  0  0  0  0  0
    8.5296   -5.9814   17.1841 C   0  0  0  0  0  0  0  0  0  0  0  0
    9.1527   -5.2118   16.2116 C   0  0  0  0  0  0  0  0  0  0  0  0
   10.3364   -3.8368   22.9255 O   0  0  0  0  0  0  0  0  0  0  0  0
    9.6947   -4.8407   18.8534 C   0  0  0  0  0  0  0  0  0  0  0  0
    9.1596    1.7042   24.1381 C   0  0  0  0  0  0  0  0  0  0  0  0
   11.0456   -2.9774   18.2694 N   0  0  0  0  0  0  0  0  0  0  0  0
   10.4788   -3.0457   21.8593 C   0  0  0  0  0  0  0  0  0  0  0  0
    8.8693   -5.8099   18.4657 N   0  0  0  0  0  0  0  0  0  0  0  0
    8.9892   -0.7926   25.4573 C   0  0  0  0  0  0  0  0  0  0  0  0
   10.5677   -3.4462   20.5323 C   0  0  0  0  0  0  0  0  0  0  0  0
  1  8  1  0
  1 12  4  0
  1 14  4  0
  2  3  4  0
  2 18  4  0
  3 20  4  0
  3 22  4  0
  4 11  4  0
  4 21  4  0
  5  9  4  0
  5 16  4  0
  6 15  4  0
  6 16  4  0
  7 22  4  0
  7 26  4  0
  8 10  4  0
  8 25  4  0
  9 15  4  0
  9 17  1  0
 10 21  4  0
 11 25  4  0
 12 23  4  0
 13 20  4  0
 13 26  4  0
 14 19  4  0
 17 18  4  0
 17 24  4  0
 19 23  4  0
 20 24  4  0
 23 26  1  0
M  END
$$$$

 Created by Python create_sdf_string function

 26 30  0  0  0  0  0  0  0  0999 V2000
   10.0084   -1.8019   23.4945 C   0  0  0  0  0  0  0  0  0  0  0  0
   10.0005   -4.2520   16.5631 C   0  0  0  0  0  0  0  0  0  0  0  0
   10.2759   -4.0036   17.8845 C   0  0  0  0  0  0  0  0  0  0  0  0
    8.5652    1.5478   25.3778 N   0  0  0  0  0  0  0  0  0  0  0  0
    6.8048   -7.5457   17.8752 C   0  0  0  0  0  0  0  0  0  0  0  0
    6.1721   -8.2186   15.9886 N   0  0  0  0  0  0  0  0  0  0  0  0
   11.1764   -2.6600   19.5604 C   0  0  0  0  0  0  0  0  0  0  0  0
    9.5491   -0.6380   24.1912 C   0  0  0  0  0  0  0  0  0  0  0  0
    7.5337   -6.9256   16.9519 C   0  0  0  0  0  0  0  0  0  0  0  0
    9.6782    0.5671   23.5143 C   0  0  0  0  0  0  0  0  0  0  0  0
    8.4532    0.3482   26.0821 C   0  0  0  0  0  0  0  0  0  0  0  0
   10.4239   -1.7677   22.2230 N   0  0  0  0  0  0  0  0  0  0  0  0
    9.9468   -4.5953   20.1709 C   0  0  0  0  0  0  0  0  0  0  0  0
   10.0366   -3.0590   23.9864 N   0  0  0  0  0  0  0  0  0  0  0  0
    7.1191   -7.3636   15.7739 C   0  0  0  0  0  0  0  0  0  0  0  0
    5.9612   -8.3203   17.2732 N   0  0  0  0  0  0  0  0  0  0  0  0
    8.5296   -5.9814   17.1841 C   0  0  0  0  0  0  0  0  0  0  0  0
    9.1527   -5.2118   16.2116 C   0  0  0  0  0  0  0  0  0  0  0  0
   10.3364   -3.8368   22.9255 O   0  0  0  0  0  0  0  0  0  0  0  0
    9.6947   -4.8407   18.8534 C   0  0  0  0  0  0  0  0  0  0  0  0
    9.1596    1.7042   24.1381 C   0  0  0  0  0  0  0  0  0  0  0  0
   11.0456   -2.9774   18.2694 N   0  0  0  0  0  0  0  0  0  0  0  0
   10.4788   -3.0457   21.8593 C   0  0  0  0  0  0  0  0  0  0  0  0
    8.8693   -5.8099   18.4657 N   0  0  0  0  0  0  0  0  0  0  0  0
    8.9892   -0.7926   25.4573 C   0  0  0  0  0  0  0  0  0  0  0  0
   10.5677   -3.4462   20.5323 C   0  0  0  0  0  0  0  0  0  0  0  0
  1  8  1  0
  1 12  4  0
  1 14  4  0
  2  3  4  0
  2 18  4  0
  3 20  4  0
  3 22  4  0
  4 11  4  0
  4 21  4  0
  5  9  4  0
  5 16  4  0
  6 15  4  0
  6 16  4  0
  7 22  4  0
  7 26  4  0
  8 10  4  0
  8 25  4  0
  9 15  4  0
  9 17  1  0
 10 21  4  0
 11 25  4  0
 12 23  4  0
 13 20  4  0
 13 26  4  0
 14 19  4  0
 17 18  4  0
 17 24  4  0
 19 23  4  0
 20 24  4  0
 23 26  1  0
M  END
$$$$

 Created by Python create_sdf_string function

 26 30  0  0  0  0  0  0  0  0999 V2000
   10.0084   -1.8019   23.4945 C   0  0  0  0  0  0  0  0  0  0  0  0
   10.0005   -4.2520   16.5631 C   0  0  0  0  0  0  0  0  0  0  0  0
   10.2759   -4.0036   17.8845 C   0  0  0  0  0  0  0  0  0  0  0  0
    8.5652    1.5478   25.3778 N   0  0  0  0  0  0  0  0  0  0  0  0
    6.8048   -7.5457   17.8752 C   0  0  0  0  0  0  0  0  0  0  0  0
    6.1721   -8.2186   15.9886 N   0  0  0  0  0  0  0  0  0  0  0  0
   11.1764   -2.6600   19.5604 C   0  0  0  0  0  0  0  0  0  0  0  0
    9.5491   -0.6380   24.1912 C   0  0  0  0  0  0  0  0  0  0  0  0
    7.5337   -6.9256   16.9519 C   0  0  0  0  0  0  0  0  0  0  0  0
    9.6782    0.5671   23.5143 C   0  0  0  0  0  0  0  0  0  0  0  0
    8.4532    0.3482   26.0821 C   0  0  0  0  0  0  0  0  0  0  0  0
   10.4239   -1.7677   22.2230 N   0  0  0  0  0  0  0  0  0  0  0  0
    9.9468   -4.5953   20.1709 C   0  0  0  0  0  0  0  0  0  0  0  0
   10.0366   -3.0590   23.9864 N   0  0  0  0  0  0  0  0  0  0  0  0
    7.1191   -7.3636   15.7739 C   0  0  0  0  0  0  0  0  0  0  0  0
    5.9612   -8.3203   17.2732 N   0  0  0  0  0  0  0  0  0  0  0  0
    8.5296   -5.9814   17.1841 C   0  0  0  0  0  0  0  0  0  0  0  0
    9.1527   -5.2118   16.2116 C   0  0  0  0  0  0  0  0  0  0  0  0
   10.3364   -3.8368   22.9255 O   0  0  0  0  0  0  0  0  0  0  0  0
    9.6947   -4.8407   18.8534 C   0  0  0  0  0  0  0  0  0  0  0  0
    9.1596    1.7042   24.1381 C   0  0  0  0  0  0  0  0  0  0  0  0
   11.0456   -2.9774   18.2694 N   0  0  0  0  0  0  0  0  0  0  0  0
   10.4788   -3.0457   21.8593 C   0  0  0  0  0  0  0  0  0  0  0  0
    8.8693   -5.8099   18.4657 N   0  0  0  0  0  0  0  0  0  0  0  0
    8.9892   -0.7926   25.4573 C   0  0  0  0  0  0  0  0  0  0  0  0
   10.5677   -3.4462   20.5323 C   0  0  0  0  0  0  0  0  0  0  0  0
  1  8  1  0
  1 12  4  0
  1 14  4  0
  2  3  4  0
  2 18  4  0
  3 20  4  0
  3 22  4  0
  4 11  4  0
  4 21  4  0
  5  9  4  0
  5 16  4  0
  6 15  4  0
  6 16  4  0
  7 22  4  0
  7 26  4  0
  8 10  4  0
  8 25  4  0
  9 15  4  0
  9 17  1  0
 10 21  4  0
 11 25  4  0
 12 23  4  0
 13 20  4  0
 13 26  4  0
 14 19  4  0
 17 18  4  0
 17 24  4  0
 19 23  4  0
 20 24  4  0
 23 26  1  0
M  END
$$$$

 Created by Python create_sdf_string function

 26 30  0  0  0  0  0  0  0  0999 V2000
   10.0084   -1.8019   23.4945 C   0  0  0  0  0  0  0  0  0  0  0  0
   10.0005   -4.2520   16.5631 C   0  0  0  0  0  0  0  0  0  0  0  0
   10.2759   -4.0036   17.8845 C   0  0  0  0  0  0  0  0  0  0  0  0
    8.5652    1.5478   25.3778 N   0  0  0  0  0  0  0  0  0  0  0  0
    6.8048   -7.5457   17.8752 C   0  0  0  0  0  0  0  0  0  0  0  0
    6.1721   -8.2186   15.9886 N   0  0  0  0  0  0  0  0  0  0  0  0
   11.1764   -2.6600   19.5604 C   0  0  0  0  0  0  0  0  0  0  0  0
    9.5491   -0.6380   24.1912 C   0  0  0  0  0  0  0  0  0  0  0  0
    7.5337   -6.9256   16.9519 C   0  0  0  0  0  0  0  0  0  0  0  0
    9.6782    0.5671   23.5143 C   0  0  0  0  0  0  0  0  0  0  0  0
    8.4532    0.3482   26.0821 C   0  0  0  0  0  0  0  0  0  0  0  0
   10.4239   -1.7677   22.2230 N   0  0  0  0  0  0  0  0  0  0  0  0
    9.9468   -4.5953   20.1709 C   0  0  0  0  0  0  0  0  0  0  0  0
   10.0366   -3.0590   23.9864 N   0  0  0  0  0  0  0  0  0  0  0  0
    7.1191   -7.3636   15.7739 C   0  0  0  0  0  0  0  0  0  0  0  0
    5.9612   -8.3203   17.2732 N   0  0  0  0  0  0  0  0  0  0  0  0
    8.5296   -5.9814   17.1841 C   0  0  0  0  0  0  0  0  0  0  0  0
    9.1527   -5.2118   16.2116 C   0  0  0  0  0  0  0  0  0  0  0  0
   10.3364   -3.8368   22.9255 O   0  0  0  0  0  0  0  0  0  0  0  0
    9.6947   -4.8407   18.8534 C   0  0  0  0  0  0  0  0  0  0  0  0
    9.1596    1.7042   24.1381 C   0  0  0  0  0  0  0  0  0  0  0  0
   11.0456   -2.9774   18.2694 N   0  0  0  0  0  0  0  0  0  0  0  0
   10.4788   -3.0457   21.8593 C   0  0  0  0  0  0  0  0  0  0  0  0
    8.8693   -5.8099   18.4657 N   0  0  0  0  0  0  0  0  0  0  0  0
    8.9892   -0.7926   25.4573 C   0  0  0  0  0  0  0  0  0  0  0  0
   10.5677   -3.4462   20.5323 C   0  0  0  0  0  0  0  0  0  0  0  0
  1  8  1  0
  1 12  4  0
  1 14  4  0
  2  3  4  0
  2 18  4  0
  3 20  4  0
  3 22  4  0
  4 11  4  0
  4 21  4  0
  5  9  4  0
  5 16  4  0
  6 15  4  0
  6 16  4  0
  7 22  4  0
  7 26  4  0
  8 10  4  0
  8 25  4  0
  9 15  4  0
  9 17  1  0
 10 21  4  0
 11 25  4  0
 12 23  4  0
 13 20  4  0
 13 26  4  0
 14 19  4  0
 17 18  4  0
 17 24  4  0
 19 23  4  0
 20 24  4  0
 23 26  1  0
M  END
$$$$

 Created by Python create_sdf_string function

 26 30  0  0  0  0  0  0  0  0999 V2000
   10.0084   -1.8019   23.4945 C   0  0  0  0  0  0  0  0  0  0  0  0
   10.0005   -4.2520   16.5631 C   0  0  0  0  0  0  0  0  0  0  0  0
   10.2759   -4.0036   17.8845 C   0  0  0  0  0  0  0  0  0  0  0  0
    8.5652    1.5478   25.3778 N   0  0  0  0  0  0  0  0  0  0  0  0
    6.8048   -7.5457   17.8752 C   0  0  0  0  0  0  0  0  0  0  0  0
    6.1721   -8.2186   15.9886 N   0  0  0  0  0  0  0  0  0  0  0  0
   11.1764   -2.6600   19.5604 C   0  0  0  0  0  0  0  0  0  0  0  0
    9.5491   -0.6380   24.1912 C   0  0  0  0  0  0  0  0  0  0  0  0
    7.5337   -6.9256   16.9519 C   0  0  0  0  0  0  0  0  0  0  0  0
    9.6782    0.5671   23.5143 C   0  0  0  0  0  0  0  0  0  0  0  0
    8.4532    0.3482   26.0821 C   0  0  0  0  0  0  0  0  0  0  0  0
   10.4239   -1.7677   22.2230 N   0  0  0  0  0  0  0  0  0  0  0  0
    9.9468   -4.5953   20.1709 C   0  0  0  0  0  0  0  0  0  0  0  0
   10.0366   -3.0590   23.9864 N   0  0  0  0  0  0  0  0  0  0  0  0
    7.1191   -7.3636   15.7739 C   0  0  0  0  0  0  0  0  0  0  0  0
    5.9612   -8.3203   17.2732 N   0  0  0  0  0  0  0  0  0  0  0  0
    8.5296   -5.9814   17.1841 C   0  0  0  0  0  0  0  0  0  0  0  0
    9.1527   -5.2118   16.2116 C   0  0  0  0  0  0  0  0  0  0  0  0
   10.3364   -3.8368   22.9255 O   0  0  0  0  0  0  0  0  0  0  0  0
    9.6947   -4.8407   18.8534 C   0  0  0  0  0  0  0  0  0  0  0  0
    9.1596    1.7042   24.1381 C   0  0  0  0  0  0  0  0  0  0  0  0
   11.0456   -2.9774   18.2694 N   0  0  0  0  0  0  0  0  0  0  0  0
   10.4788   -3.0457   21.8593 C   0  0  0  0  0  0  0  0  0  0  0  0
    8.8693   -5.8099   18.4657 N   0  0  0  0  0  0  0  0  0  0  0  0
    8.9892   -0.7926   25.4573 C   0  0  0  0  0  0  0  0  0  0  0  0
   10.5677   -3.4462   20.5323 C   0  0  0  0  0  0  0  0  0  0  0  0
  1  8  1  0
  1 12  4  0
  1 14  4  0
  2  3  4  0
  2 18  4  0
  3 20  4  0
  3 22  4  0
  4 11  4  0
  4 21  4  0
  5  9  4  0
  5 16  4  0
  6 15  4  0
  6 16  4  0
  7 22  4  0
  7 26  4  0
  8 10  4  0
  8 25  4  0
  9 15  4  0
  9 17  1  0
 10 21  4  0
 11 25  4  0
 12 23  4  0
 13 20  4  0
 13 26  4  0
 14 19  4  0
 17 18  4  0
 17 24  4  0
 19 23  4  0
 20 24  4  0
 23 26  1  0
M  END
$$$$

 Created by Python create_sdf_string function

 26 30  0  0  0  0  0  0  0  0999 V2000
   10.0084   -1.8019   23.4945 C   0  0  0  0  0  0  0  0  0  0  0  0
   10.0005   -4.2520   16.5631 C   0  0  0  0  0  0  0  0  0  0  0  0
   10.2759   -4.0036   17.8845 C   0  0  0  0  0  0  0  0  0  0  0  0
    8.5652    1.5478   25.3778 N   0  0  0  0  0  0  0  0  0  0  0  0
    6.8048   -7.5457   17.8752 C   0  0  0  0  0  0  0  0  0  0  0  0
    6.1721   -8.2186   15.9886 N   0  0  0  0  0  0  0  0  0  0  0  0
   11.1764   -2.6600   19.5604 C   0  0  0  0  0  0  0  0  0  0  0  0
    9.5491   -0.6380   24.1912 C   0  0  0  0  0  0  0  0  0  0  0  0
    7.5337   -6.9256   16.9519 C   0  0  0  0  0  0  0  0  0  0  0  0
    9.6782    0.5671   23.5143 C   0  0  0  0  0  0  0  0  0  0  0  0
    8.4532    0.3482   26.0821 C   0  0  0  0  0  0  0  0  0  0  0  0
   10.4239   -1.7677   22.2230 N   0  0  0  0  0  0  0  0  0  0  0  0
    9.9468   -4.5953   20.1709 C   0  0  0  0  0  0  0  0  0  0  0  0
   10.0366   -3.0590   23.9864 N   0  0  0  0  0  0  0  0  0  0  0  0
    7.1191   -7.3636   15.7739 C   0  0  0  0  0  0  0  0  0  0  0  0
    5.9612   -8.3203   17.2732 N   0  0  0  0  0  0  0  0  0  0  0  0
    8.5296   -5.9814   17.1841 C   0  0  0  0  0  0  0  0  0  0  0  0
    9.1527   -5.2118   16.2116 C   0  0  0  0  0  0  0  0  0  0  0  0
   10.3364   -3.8368   22.9255 O   0  0  0  0  0  0  0  0  0  0  0  0
    9.6947   -4.8407   18.8534 C   0  0  0  0  0  0  0  0  0  0  0  0
    9.1596    1.7042   24.1381 C   0  0  0  0  0  0  0  0  0  0  0  0
   11.0456   -2.9774   18.2694 N   0  0  0  0  0  0  0  0  0  0  0  0
   10.4788   -3.0457   21.8593 C   0  0  0  0  0  0  0  0  0  0  0  0
    8.8693   -5.8099   18.4657 N   0  0  0  0  0  0  0  0  0  0  0  0
    8.9892   -0.7926   25.4573 C   0  0  0  0  0  0  0  0  0  0  0  0
   10.5677   -3.4462   20.5323 C   0  0  0  0  0  0  0  0  0  0  0  0
  1  8  1  0
  1 12  4  0
  1 14  4  0
  2  3  4  0
  2 18  4  0
  3 20  4  0
  3 22  4  0
  4 11  4  0
  4 21  4  0
  5  9  4  0
  5 16  4  0
  6 15  4  0
  6 16  4  0
  7 22  4  0
  7 26  4  0
  8 10  4  0
  8 25  4  0
  9 15  4  0
  9 17  1  0
 10 21  4  0
 11 25  4  0
 12 23  4  0
 13 20  4  0
 13 26  4  0
 14 19  4  0
 17 18  4  0
 17 24  4  0
 19 23  4  0
 20 24  4  0
 23 26  1  0
M  END
$$$$

 Created by Python create_sdf_string function

 26 30  0  0  0  0  0  0  0  0999 V2000
   10.0084   -1.8019   23.4945 C   0  0  0  0  0  0  0  0  0  0  0  0
   10.0005   -4.2520   16.5631 C   0  0  0  0  0  0  0  0  0  0  0  0
   10.2759   -4.0036   17.8845 C   0  0  0  0  0  0  0  0  0  0  0  0
    8.5652    1.5478   25.3778 N   0  0  0  0  0  0  0  0  0  0  0  0
    6.8048   -7.5457   17.8752 C   0  0  0  0  0  0  0  0  0  0  0  0
    6.1721   -8.2186   15.9886 N   0  0  0  0  0  0  0  0  0  0  0  0
   11.1764   -2.6600   19.5604 C   0  0  0  0  0  0  0  0  0  0  0  0
    9.5491   -0.6380   24.1912 C   0  0  0  0  0  0  0  0  0  0  0  0
    7.5337   -6.9256   16.9519 C   0  0  0  0  0  0  0  0  0  0  0  0
    9.6782    0.5671   23.5143 C   0  0  0  0  0  0  0  0  0  0  0  0
    8.4532    0.3482   26.0821 C   0  0  0  0  0  0  0  0  0  0  0  0
   10.4239   -1.7677   22.2230 N   0  0  0  0  0  0  0  0  0  0  0  0
    9.9468   -4.5953   20.1709 C   0  0  0  0  0  0  0  0  0  0  0  0
   10.0366   -3.0590   23.9864 N   0  0  0  0  0  0  0  0  0  0  0  0
    7.1191   -7.3636   15.7739 C   0  0  0  0  0  0  0  0  0  0  0  0
    5.9612   -8.3203   17.2732 N   0  0  0  0  0  0  0  0  0  0  0  0
    8.5296   -5.9814   17.1841 C   0  0  0  0  0  0  0  0  0  0  0  0
    9.1527   -5.2118   16.2116 C   0  0  0  0  0  0  0  0  0  0  0  0
   10.3364   -3.8368   22.9255 O   0  0  0  0  0  0  0  0  0  0  0  0
    9.6947   -4.8407   18.8534 C   0  0  0  0  0  0  0  0  0  0  0  0
    9.1596    1.7042   24.1381 C   0  0  0  0  0  0  0  0  0  0  0  0
   11.0456   -2.9774   18.2694 N   0  0  0  0  0  0  0  0  0  0  0  0
   10.4788   -3.0457   21.8593 C   0  0  0  0  0  0  0  0  0  0  0  0
    8.8693   -5.8099   18.4657 N   0  0  0  0  0  0  0  0  0  0  0  0
    8.9892   -0.7926   25.4573 C   0  0  0  0  0  0  0  0  0  0  0  0
   10.5677   -3.4462   20.5323 C   0  0  0  0  0  0  0  0  0  0  0  0
  1  8  1  0
  1 12  4  0
  1 14  4  0
  2  3  4  0
  2 18  4  0
  3 20  4  0
  3 22  4  0
  4 11  4  0
  4 21  4  0
  5  9  4  0
  5 16  4  0
  6 15  4  0
  6 16  4  0
  7 22  4  0
  7 26  4  0
  8 10  4  0
  8 25  4  0
  9 15  4  0
  9 17  1  0
 10 21  4  0
 11 25  4  0
 12 23  4  0
 13 20  4  0
 13 26  4  0
 14 19  4  0
 17 18  4  0
 17 24  4  0
 19 23  4  0
 20 24  4  0
 23 26  1  0
M  END
$$$$

 Created by Python create_sdf_string function

 26 30  0  0  0  0  0  0  0  0999 V2000
   10.0084   -1.8019   23.4945 C   0  0  0  0  0  0  0  0  0  0  0  0
   10.0005   -4.2520   16.5631 C   0  0  0  0  0  0  0  0  0  0  0  0
   10.2759   -4.0036   17.8845 C   0  0  0  0  0  0  0  0  0  0  0  0
    8.5652    1.5478   25.3778 N   0  0  0  0  0  0  0  0  0  0  0  0
    6.8048   -7.5457   17.8752 C   0  0  0  0  0  0  0  0  0  0  0  0
    6.1721   -8.2186   15.9886 N   0  0  0  0  0  0  0  0  0  0  0  0
   11.1764   -2.6600   19.5604 C   0  0  0  0  0  0  0  0  0  0  0  0
    9.5491   -0.6380   24.1912 C   0  0  0  0  0  0  0  0  0  0  0  0
    7.5337   -6.9256   16.9519 C   0  0  0  0  0  0  0  0  0  0  0  0
    9.6782    0.5671   23.5143 C   0  0  0  0  0  0  0  0  0  0  0  0
    8.4532    0.3482   26.0821 C   0  0  0  0  0  0  0  0  0  0  0  0
   10.4239   -1.7677   22.2230 N   0  0  0  0  0  0  0  0  0  0  0  0
    9.9468   -4.5953   20.1709 C   0  0  0  0  0  0  0  0  0  0  0  0
   10.0366   -3.0590   23.9864 N   0  0  0  0  0  0  0  0  0  0  0  0
    7.1191   -7.3636   15.7739 C   0  0  0  0  0  0  0  0  0  0  0  0
    5.9612   -8.3203   17.2732 N   0  0  0  0  0  0  0  0  0  0  0  0
    8.5296   -5.9814   17.1841 C   0  0  0  0  0  0  0  0  0  0  0  0
    9.1527   -5.2118   16.2116 C   0  0  0  0  0  0  0  0  0  0  0  0
   10.3364   -3.8368   22.9255 O   0  0  0  0  0  0  0  0  0  0  0  0
    9.6947   -4.8407   18.8534 C   0  0  0  0  0  0  0  0  0  0  0  0
    9.1596    1.7042   24.1381 C   0  0  0  0  0  0  0  0  0  0  0  0
   11.0456   -2.9774   18.2694 N   0  0  0  0  0  0  0  0  0  0  0  0
   10.4788   -3.0457   21.8593 C   0  0  0  0  0  0  0  0  0  0  0  0
    8.8693   -5.8099   18.4657 N   0  0  0  0  0  0  0  0  0  0  0  0
    8.9892   -0.7926   25.4573 C   0  0  0  0  0  0  0  0  0  0  0  0
   10.5677   -3.4462   20.5323 C   0  0  0  0  0  0  0  0  0  0  0  0
  1  8  1  0
  1 12  4  0
  1 14  4  0
  2  3  4  0
  2 18  4  0
  3 20  4  0
  3 22  4  0
  4 11  4  0
  4 21  4  0
  5  9  4  0
  5 16  4  0
  6 15  4  0
  6 16  4  0
  7 22  4  0
  7 26  4  0
  8 10  4  0
  8 25  4  0
  9 15  4  0
  9 17  1  0
 10 21  4  0
 11 25  4  0
 12 23  4  0
 13 20  4  0
 13 26  4  0
 14 19  4  0
 17 18  4  0
 17 24  4  0
 19 23  4  0
 20 24  4  0
 23 26  1  0
M  END
$$$$

 Created by Python create_sdf_string function

 26 30  0  0  0  0  0  0  0  0999 V2000
   10.0084   -1.8019   23.4945 C   0  0  0  0  0  0  0  0  0  0  0  0
   10.0005   -4.2520   16.5631 C   0  0  0  0  0  0  0  0  0  0  0  0
   10.2759   -4.0036   17.8845 C   0  0  0  0  0  0  0  0  0  0  0  0
    8.5652    1.5478   25.3778 N   0  0  0  0  0  0  0  0  0  0  0  0
    6.8048   -7.5457   17.8752 C   0  0  0  0  0  0  0  0  0  0  0  0
    6.1721   -8.2186   15.9886 N   0  0  0  0  0  0  0  0  0  0  0  0
   11.1764   -2.6600   19.5604 C   0  0  0  0  0  0  0  0  0  0  0  0
    9.5491   -0.6380   24.1912 C   0  0  0  0  0  0  0  0  0  0  0  0
    7.5337   -6.9256   16.9519 C   0  0  0  0  0  0  0  0  0  0  0  0
    9.6782    0.5671   23.5143 C   0  0  0  0  0  0  0  0  0  0  0  0
    8.4532    0.3482   26.0821 C   0  0  0  0  0  0  0  0  0  0  0  0
   10.4239   -1.7677   22.2230 N   0  0  0  0  0  0  0  0  0  0  0  0
    9.9468   -4.5953   20.1709 C   0  0  0  0  0  0  0  0  0  0  0  0
   10.0366   -3.0590   23.9864 N   0  0  0  0  0  0  0  0  0  0  0  0
    7.1191   -7.3636   15.7739 C   0  0  0  0  0  0  0  0  0  0  0  0
    5.9612   -8.3203   17.2732 N   0  0  0  0  0  0  0  0  0  0  0  0
    8.5296   -5.9814   17.1841 C   0  0  0  0  0  0  0  0  0  0  0  0
    9.1527   -5.2118   16.2116 C   0  0  0  0  0  0  0  0  0  0  0  0
   10.3364   -3.8368   22.9255 O   0  0  0  0  0  0  0  0  0  0  0  0
    9.6947   -4.8407   18.8534 C   0  0  0  0  0  0  0  0  0  0  0  0
    9.1596    1.7042   24.1381 C   0  0  0  0  0  0  0  0  0  0  0  0
   11.0456   -2.9774   18.2694 N   0  0  0  0  0  0  0  0  0  0  0  0
   10.4788   -3.0457   21.8593 C   0  0  0  0  0  0  0  0  0  0  0  0
    8.8693   -5.8099   18.4657 N   0  0  0  0  0  0  0  0  0  0  0  0
    8.9892   -0.7926   25.4573 C   0  0  0  0  0  0  0  0  0  0  0  0
   10.5677   -3.4462   20.5323 C   0  0  0  0  0  0  0  0  0  0  0  0
  1  8  1  0
  1 12  4  0
  1 14  4  0
  2  3  4  0
  2 18  4  0
  3 20  4  0
  3 22  4  0
  4 11  4  0
  4 21  4  0
  5  9  4  0
  5 16  4  0
  6 15  4  0
  6 16  4  0
  7 22  4  0
  7 26  4  0
  8 10  4  0
  8 25  4  0
  9 15  4  0
  9 17  1  0
 10 21  4  0
 11 25  4  0
 12 23  4  0
 13 20  4  0
 13 26  4  0
 14 19  4  0
 17 18  4  0
 17 24  4  0
 19 23  4  0
 20 24  4  0
 23 26  1  0
M  END
$$$$

 Created by Python create_sdf_string function

 26 30  0  0  0  0  0  0  0  0999 V2000
   10.0084   -1.8019   23.4945 C   0  0  0  0  0  0  0  0  0  0  0  0
   10.0005   -4.2520   16.5631 C   0  0  0  0  0  0  0  0  0  0  0  0
   10.2759   -4.0036   17.8845 C   0  0  0  0  0  0  0  0  0  0  0  0
    8.5652    1.5478   25.3778 N   0  0  0  0  0  0  0  0  0  0  0  0
    6.8048   -7.5457   17.8752 C   0  0  0  0  0  0  0  0  0  0  0  0
    6.1721   -8.2186   15.9886 N   0  0  0  0  0  0  0  0  0  0  0  0
   11.1764   -2.6600   19.5604 C   0  0  0  0  0  0  0  0  0  0  0  0
    9.5491   -0.6380   24.1912 C   0  0  0  0  0  0  0  0  0  0  0  0
    7.5337   -6.9256   16.9519 C   0  0  0  0  0  0  0  0  0  0  0  0
    9.6782    0.5671   23.5143 C   0  0  0  0  0  0  0  0  0  0  0  0
    8.4532    0.3482   26.0821 C   0  0  0  0  0  0  0  0  0  0  0  0
   10.4239   -1.7677   22.2230 N   0  0  0  0  0  0  0  0  0  0  0  0
    9.9468   -4.5953   20.1709 C   0  0  0  0  0  0  0  0  0  0  0  0
   10.0366   -3.0590   23.9864 N   0  0  0  0  0  0  0  0  0  0  0  0
    7.1191   -7.3636   15.7739 C   0  0  0  0  0  0  0  0  0  0  0  0
    5.9612   -8.3203   17.2732 N   0  0  0  0  0  0  0  0  0  0  0  0
    8.5296   -5.9814   17.1841 C   0  0  0  0  0  0  0  0  0  0  0  0
    9.1527   -5.2118   16.2116 C   0  0  0  0  0  0  0  0  0  0  0  0
   10.3364   -3.8368   22.9255 O   0  0  0  0  0  0  0  0  0  0  0  0
    9.6947   -4.8407   18.8534 C   0  0  0  0  0  0  0  0  0  0  0  0
    9.1596    1.7042   24.1381 C   0  0  0  0  0  0  0  0  0  0  0  0
   11.0456   -2.9774   18.2694 N   0  0  0  0  0  0  0  0  0  0  0  0
   10.4788   -3.0457   21.8593 C   0  0  0  0  0  0  0  0  0  0  0  0
    8.8693   -5.8099   18.4657 N   0  0  0  0  0  0  0  0  0  0  0  0
    8.9892   -0.7926   25.4573 C   0  0  0  0  0  0  0  0  0  0  0  0
   10.5677   -3.4462   20.5323 C   0  0  0  0  0  0  0  0  0  0  0  0
  1  8  1  0
  1 12  4  0
  1 14  4  0
  2  3  4  0
  2 18  4  0
  3 20  4  0
  3 22  4  0
  4 11  4  0
  4 21  4  0
  5  9  4  0
  5 16  4  0
  6 15  4  0
  6 16  4  0
  7 22  4  0
  7 26  4  0
  8 10  4  0
  8 25  4  0
  9 15  4  0
  9 17  1  0
 10 21  4  0
 11 25  4  0
 12 23  4  0
 13 20  4  0
 13 26  4  0
 14 19  4  0
 17 18  4  0
 17 24  4  0
 19 23  4  0
 20 24  4  0
 23 26  1  0
M  END
$$$$

 Created by Python create_sdf_string function

 26 30  0  0  0  0  0  0  0  0999 V2000
   10.0084   -1.8019   23.4945 C   0  0  0  0  0  0  0  0  0  0  0  0
   10.0005   -4.2520   16.5631 C   0  0  0  0  0  0  0  0  0  0  0  0
   10.2759   -4.0036   17.8845 C   0  0  0  0  0  0  0  0  0  0  0  0
    8.5652    1.5478   25.3778 N   0  0  0  0  0  0  0  0  0  0  0  0
    6.8048   -7.5457   17.8752 C   0  0  0  0  0  0  0  0  0  0  0  0
    6.1721   -8.2186   15.9886 N   0  0  0  0  0  0  0  0  0  0  0  0
   11.1764   -2.6600   19.5604 C   0  0  0  0  0  0  0  0  0  0  0  0
    9.5491   -0.6380   24.1912 C   0  0  0  0  0  0  0  0  0  0  0  0
    7.5337   -6.9256   16.9519 C   0  0  0  0  0  0  0  0  0  0  0  0
    9.6782    0.5671   23.5143 C   0  0  0  0  0  0  0  0  0  0  0  0
    8.4532    0.3482   26.0821 C   0  0  0  0  0  0  0  0  0  0  0  0
   10.4239   -1.7677   22.2230 N   0  0  0  0  0  0  0  0  0  0  0  0
    9.9468   -4.5953   20.1709 C   0  0  0  0  0  0  0  0  0  0  0  0
   10.0366   -3.0590   23.9864 N   0  0  0  0  0  0  0  0  0  0  0  0
    7.1191   -7.3636   15.7739 C   0  0  0  0  0  0  0  0  0  0  0  0
    5.9612   -8.3203   17.2732 N   0  0  0  0  0  0  0  0  0  0  0  0
    8.5296   -5.9814   17.1841 C   0  0  0  0  0  0  0  0  0  0  0  0
    9.1527   -5.2118   16.2116 C   0  0  0  0  0  0  0  0  0  0  0  0
   10.3364   -3.8368   22.9255 O   0  0  0  0  0  0  0  0  0  0  0  0
    9.6947   -4.8407   18.8534 C   0  0  0  0  0  0  0  0  0  0  0  0
    9.1596    1.7042   24.1381 C   0  0  0  0  0  0  0  0  0  0  0  0
   11.0456   -2.9774   18.2694 N   0  0  0  0  0  0  0  0  0  0  0  0
   10.4788   -3.0457   21.8593 C   0  0  0  0  0  0  0  0  0  0  0  0
    8.8693   -5.8099   18.4657 N   0  0  0  0  0  0  0  0  0  0  0  0
    8.9892   -0.7926   25.4573 C   0  0  0  0  0  0  0  0  0  0  0  0
   10.5677   -3.4462   20.5323 C   0  0  0  0  0  0  0  0  0  0  0  0
  1  8  1  0
  1 12  4  0
  1 14  4  0
  2  3  4  0
  2 18  4  0
  3 20  4  0
  3 22  4  0
  4 11  4  0
  4 21  4  0
  5  9  4  0
  5 16  4  0
  6 15  4  0
  6 16  4  0
  7 22  4  0
  7 26  4  0
  8 10  4  0
  8 25  4  0
  9 15  4  0
  9 17  1  0
 10 21  4  0
 11 25  4  0
 12 23  4  0
 13 20  4  0
 13 26  4  0
 14 19  4  0
 17 18  4  0
 17 24  4  0
 19 23  4  0
 20 24  4  0
 23 26  1  0
M  END
$$$$

 Created by Python create_sdf_string function

 26 30  0  0  0  0  0  0  0  0999 V2000
   10.0084   -1.8019   23.4945 C   0  0  0  0  0  0  0  0  0  0  0  0
   10.0005   -4.2520   16.5631 C   0  0  0  0  0  0  0  0  0  0  0  0
   10.2759   -4.0036   17.8845 C   0  0  0  0  0  0  0  0  0  0  0  0
    8.5652    1.5478   25.3778 N   0  0  0  0  0  0  0  0  0  0  0  0
    6.8048   -7.5457   17.8752 C   0  0  0  0  0  0  0  0  0  0  0  0
    6.1721   -8.2186   15.9886 N   0  0  0  0  0  0  0  0  0  0  0  0
   11.1764   -2.6600   19.5604 C   0  0  0  0  0  0  0  0  0  0  0  0
    9.5491   -0.6380   24.1912 C   0  0  0  0  0  0  0  0  0  0  0  0
    7.5337   -6.9256   16.9519 C   0  0  0  0  0  0  0  0  0  0  0  0
    9.6782    0.5671   23.5143 C   0  0  0  0  0  0  0  0  0  0  0  0
    8.4532    0.3482   26.0821 C   0  0  0  0  0  0  0  0  0  0  0  0
   10.4239   -1.7677   22.2230 N   0  0  0  0  0  0  0  0  0  0  0  0
    9.9468   -4.5953   20.1709 C   0  0  0  0  0  0  0  0  0  0  0  0
   10.0366   -3.0590   23.9864 N   0  0  0  0  0  0  0  0  0  0  0  0
    7.1191   -7.3636   15.7739 C   0  0  0  0  0  0  0  0  0  0  0  0
    5.9612   -8.3203   17.2732 N   0  0  0  0  0  0  0  0  0  0  0  0
    8.5296   -5.9814   17.1841 C   0  0  0  0  0  0  0  0  0  0  0  0
    9.1527   -5.2118   16.2116 C   0  0  0  0  0  0  0  0  0  0  0  0
   10.3364   -3.8368   22.9255 O   0  0  0  0  0  0  0  0  0  0  0  0
    9.6947   -4.8407   18.8534 C   0  0  0  0  0  0  0  0  0  0  0  0
    9.1596    1.7042   24.1381 C   0  0  0  0  0  0  0  0  0  0  0  0
   11.0456   -2.9774   18.2694 N   0  0  0  0  0  0  0  0  0  0  0  0
   10.4788   -3.0457   21.8593 C   0  0  0  0  0  0  0  0  0  0  0  0
    8.8693   -5.8099   18.4657 N   0  0  0  0  0  0  0  0  0  0  0  0
    8.9892   -0.7926   25.4573 C   0  0  0  0  0  0  0  0  0  0  0  0
   10.5677   -3.4462   20.5323 C   0  0  0  0  0  0  0  0  0  0  0  0
  1  8  1  0
  1 12  4  0
  1 14  4  0
  2  3  4  0
  2 18  4  0
  3 20  4  0
  3 22  4  0
  4 11  4  0
  4 21  4  0
  5  9  4  0
  5 16  4  0
  6 15  4  0
  6 16  4  0
  7 22  4  0
  7 26  4  0
  8 10  4  0
  8 25  4  0
  9 15  4  0
  9 17  1  0
 10 21  4  0
 11 25  4  0
 12 23  4  0
 13 20  4  0
 13 26  4  0
 14 19  4  0
 17 18  4  0
 17 24  4  0
 19 23  4  0
 20 24  4  0
 23 26  1  0
M  END
$$$$

 Created by Python create_sdf_string function

 26 30  0  0  0  0  0  0  0  0999 V2000
   10.0084   -1.8019   23.4945 C   0  0  0  0  0  0  0  0  0  0  0  0
   10.0005   -4.2520   16.5631 C   0  0  0  0  0  0  0  0  0  0  0  0
   10.2759   -4.0036   17.8845 C   0  0  0  0  0  0  0  0  0  0  0  0
    8.5652    1.5478   25.3778 N   0  0  0  0  0  0  0  0  0  0  0  0
    6.8048   -7.5457   17.8752 C   0  0  0  0  0  0  0  0  0  0  0  0
    6.1721   -8.2186   15.9886 N   0  0  0  0  0  0  0  0  0  0  0  0
   11.1764   -2.6600   19.5604 C   0  0  0  0  0  0  0  0  0  0  0  0
    9.5491   -0.6380   24.1912 C   0  0  0  0  0  0  0  0  0  0  0  0
    7.5337   -6.9256   16.9519 C   0  0  0  0  0  0  0  0  0  0  0  0
    9.6782    0.5671   23.5143 C   0  0  0  0  0  0  0  0  0  0  0  0
    8.4532    0.3482   26.0821 C   0  0  0  0  0  0  0  0  0  0  0  0
   10.4239   -1.7677   22.2230 N   0  0  0  0  0  0  0  0  0  0  0  0
    9.9468   -4.5953   20.1709 C   0  0  0  0  0  0  0  0  0  0  0  0
   10.0366   -3.0590   23.9864 N   0  0  0  0  0  0  0  0  0  0  0  0
    7.1191   -7.3636   15.7739 C   0  0  0  0  0  0  0  0  0  0  0  0
    5.9612   -8.3203   17.2732 N   0  0  0  0  0  0  0  0  0  0  0  0
    8.5296   -5.9814   17.1841 C   0  0  0  0  0  0  0  0  0  0  0  0
    9.1527   -5.2118   16.2116 C   0  0  0  0  0  0  0  0  0  0  0  0
   10.3364   -3.8368   22.9255 O   0  0  0  0  0  0  0  0  0  0  0  0
    9.6947   -4.8407   18.8534 C   0  0  0  0  0  0  0  0  0  0  0  0
    9.1596    1.7042   24.1381 C   0  0  0  0  0  0  0  0  0  0  0  0
   11.0456   -2.9774   18.2694 N   0  0  0  0  0  0  0  0  0  0  0  0
   10.4788   -3.0457   21.8593 C   0  0  0  0  0  0  0  0  0  0  0  0
    8.8693   -5.8099   18.4657 N   0  0  0  0  0  0  0  0  0  0  0  0
    8.9892   -0.7926   25.4573 C   0  0  0  0  0  0  0  0  0  0  0  0
   10.5677   -3.4462   20.5323 C   0  0  0  0  0  0  0  0  0  0  0  0
  1  8  1  0
  1 12  4  0
  1 14  4  0
  2  3  4  0
  2 18  4  0
  3 20  4  0
  3 22  4  0
  4 11  4  0
  4 21  4  0
  5  9  4  0
  5 16  4  0
  6 15  4  0
  6 16  4  0
  7 22  4  0
  7 26  4  0
  8 10  4  0
  8 25  4  0
  9 15  4  0
  9 17  1  0
 10 21  4  0
 11 25  4  0
 12 23  4  0
 13 20  4  0
 13 26  4  0
 14 19  4  0
 17 18  4  0
 17 24  4  0
 19 23  4  0
 20 24  4  0
 23 26  1  0
M  END
$$$$

 Created by Python create_sdf_string function

 26 30  0  0  0  0  0  0  0  0999 V2000
   10.0084   -1.8019   23.4945 C   0  0  0  0  0  0  0  0  0  0  0  0
   10.0005   -4.2520   16.5631 C   0  0  0  0  0  0  0  0  0  0  0  0
   10.2759   -4.0036   17.8845 C   0  0  0  0  0  0  0  0  0  0  0  0
    8.5652    1.5478   25.3778 N   0  0  0  0  0  0  0  0  0  0  0  0
    6.8048   -7.5457   17.8752 C   0  0  0  0  0  0  0  0  0  0  0  0
    6.1721   -8.2186   15.9886 N   0  0  0  0  0  0  0  0  0  0  0  0
   11.1764   -2.6600   19.5604 C   0  0  0  0  0  0  0  0  0  0  0  0
    9.5491   -0.6380   24.1912 C   0  0  0  0  0  0  0  0  0  0  0  0
    7.5337   -6.9256   16.9519 C   0  0  0  0  0  0  0  0  0  0  0  0
    9.6782    0.5671   23.5143 C   0  0  0  0  0  0  0  0  0  0  0  0
    8.4532    0.3482   26.0821 C   0  0  0  0  0  0  0  0  0  0  0  0
   10.4239   -1.7677   22.2230 N   0  0  0  0  0  0  0  0  0  0  0  0
    9.9468   -4.5953   20.1709 C   0  0  0  0  0  0  0  0  0  0  0  0
   10.0366   -3.0590   23.9864 N   0  0  0  0  0  0  0  0  0  0  0  0
    7.1191   -7.3636   15.7739 C   0  0  0  0  0  0  0  0  0  0  0  0
    5.9612   -8.3203   17.2732 N   0  0  0  0  0  0  0  0  0  0  0  0
    8.5296   -5.9814   17.1841 C   0  0  0  0  0  0  0  0  0  0  0  0
    9.1527   -5.2118   16.2116 C   0  0  0  0  0  0  0  0  0  0  0  0
   10.3364   -3.8368   22.9255 O   0  0  0  0  0  0  0  0  0  0  0  0
    9.6947   -4.8407   18.8534 C   0  0  0  0  0  0  0  0  0  0  0  0
    9.1596    1.7042   24.1381 C   0  0  0  0  0  0  0  0  0  0  0  0
   11.0456   -2.9774   18.2694 N   0  0  0  0  0  0  0  0  0  0  0  0
   10.4788   -3.0457   21.8593 C   0  0  0  0  0  0  0  0  0  0  0  0
    8.8693   -5.8099   18.4657 N   0  0  0  0  0  0  0  0  0  0  0  0
    8.9892   -0.7926   25.4573 C   0  0  0  0  0  0  0  0  0  0  0  0
   10.5677   -3.4462   20.5323 C   0  0  0  0  0  0  0  0  0  0  0  0
  1  8  1  0
  1 12  4  0
  1 14  4  0
  2  3  4  0
  2 18  4  0
  3 20  4  0
  3 22  4  0
  4 11  4  0
  4 21  4  0
  5  9  4  0
  5 16  4  0
  6 15  4  0
  6 16  4  0
  7 22  4  0
  7 26  4  0
  8 10  4  0
  8 25  4  0
  9 15  4  0
  9 17  1  0
 10 21  4  0
 11 25  4  0
 12 23  4  0
 13 20  4  0
 13 26  4  0
 14 19  4  0
 17 18  4  0
 17 24  4  0
 19 23  4  0
 20 24  4  0
 23 26  1  0
M  END
$$$$

 Created by Python create_sdf_string function

 26 30  0  0  0  0  0  0  0  0999 V2000
   10.0084   -1.8019   23.4945 C   0  0  0  0  0  0  0  0  0  0  0  0
   10.0005   -4.2520   16.5631 C   0  0  0  0  0  0  0  0  0  0  0  0
   10.2759   -4.0036   17.8845 C   0  0  0  0  0  0  0  0  0  0  0  0
    8.5652    1.5478   25.3778 N   0  0  0  0  0  0  0  0  0  0  0  0
    6.8048   -7.5457   17.8752 C   0  0  0  0  0  0  0  0  0  0  0  0
    6.1721   -8.2186   15.9886 N   0  0  0  0  0  0  0  0  0  0  0  0
   11.1764   -2.6600   19.5604 C   0  0  0  0  0  0  0  0  0  0  0  0
    9.5491   -0.6380   24.1912 C   0  0  0  0  0  0  0  0  0  0  0  0
    7.5337   -6.9256   16.9519 C   0  0  0  0  0  0  0  0  0  0  0  0
    9.6782    0.5671   23.5143 C   0  0  0  0  0  0  0  0  0  0  0  0
    8.4532    0.3482   26.0821 C   0  0  0  0  0  0  0  0  0  0  0  0
   10.4239   -1.7677   22.2230 N   0  0  0  0  0  0  0  0  0  0  0  0
    9.9468   -4.5953   20.1709 C   0  0  0  0  0  0  0  0  0  0  0  0
   10.0366   -3.0590   23.9864 N   0  0  0  0  0  0  0  0  0  0  0  0
    7.1191   -7.3636   15.7739 C   0  0  0  0  0  0  0  0  0  0  0  0
    5.9612   -8.3203   17.2732 N   0  0  0  0  0  0  0  0  0  0  0  0
    8.5296   -5.9814   17.1841 C   0  0  0  0  0  0  0  0  0  0  0  0
    9.1527   -5.2118   16.2116 C   0  0  0  0  0  0  0  0  0  0  0  0
   10.3364   -3.8368   22.9255 O   0  0  0  0  0  0  0  0  0  0  0  0
    9.6947   -4.8407   18.8534 C   0  0  0  0  0  0  0  0  0  0  0  0
    9.1596    1.7042   24.1381 C   0  0  0  0  0  0  0  0  0  0  0  0
   11.0456   -2.9774   18.2694 N   0  0  0  0  0  0  0  0  0  0  0  0
   10.4788   -3.0457   21.8593 C   0  0  0  0  0  0  0  0  0  0  0  0
    8.8693   -5.8099   18.4657 N   0  0  0  0  0  0  0  0  0  0  0  0
    8.9892   -0.7926   25.4573 C   0  0  0  0  0  0  0  0  0  0  0  0
   10.5677   -3.4462   20.5323 C   0  0  0  0  0  0  0  0  0  0  0  0
  1  8  1  0
  1 12  4  0
  1 14  4  0
  2  3  4  0
  2 18  4  0
  3 20  4  0
  3 22  4  0
  4 11  4  0
  4 21  4  0
  5  9  4  0
  5 16  4  0
  6 15  4  0
  6 16  4  0
  7 22  4  0
  7 26  4  0
  8 10  4  0
  8 25  4  0
  9 15  4  0
  9 17  1  0
 10 21  4  0
 11 25  4  0
 12 23  4  0
 13 20  4  0
 13 26  4  0
 14 19  4  0
 17 18  4  0
 17 24  4  0
 19 23  4  0
 20 24  4  0
 23 26  1  0
M  END
$$$$

 Created by Python create_sdf_string function

 26 30  0  0  0  0  0  0  0  0999 V2000
   10.0084   -1.8019   23.4945 C   0  0  0  0  0  0  0  0  0  0  0  0
   10.0005   -4.2520   16.5631 C   0  0  0  0  0  0  0  0  0  0  0  0
   10.2759   -4.0036   17.8845 C   0  0  0  0  0  0  0  0  0  0  0  0
    8.5652    1.5478   25.3778 N   0  0  0  0  0  0  0  0  0  0  0  0
    6.8048   -7.5457   17.8752 C   0  0  0  0  0  0  0  0  0  0  0  0
    6.1721   -8.2186   15.9886 N   0  0  0  0  0  0  0  0  0  0  0  0
   11.1764   -2.6600   19.5604 C   0  0  0  0  0  0  0  0  0  0  0  0
    9.5491   -0.6380   24.1912 C   0  0  0  0  0  0  0  0  0  0  0  0
    7.5337   -6.9256   16.9519 C   0  0  0  0  0  0  0  0  0  0  0  0
    9.6782    0.5671   23.5143 C   0  0  0  0  0  0  0  0  0  0  0  0
    8.4532    0.3482   26.0821 C   0  0  0  0  0  0  0  0  0  0  0  0
   10.4239   -1.7677   22.2230 N   0  0  0  0  0  0  0  0  0  0  0  0
    9.9468   -4.5953   20.1709 C   0  0  0  0  0  0  0  0  0  0  0  0
   10.0366   -3.0590   23.9864 N   0  0  0  0  0  0  0  0  0  0  0  0
    7.1191   -7.3636   15.7739 C   0  0  0  0  0  0  0  0  0  0  0  0
    5.9612   -8.3203   17.2732 N   0  0  0  0  0  0  0  0  0  0  0  0
    8.5296   -5.9814   17.1841 C   0  0  0  0  0  0  0  0  0  0  0  0
    9.1527   -5.2118   16.2116 C   0  0  0  0  0  0  0  0  0  0  0  0
   10.3364   -3.8368   22.9255 O   0  0  0  0  0  0  0  0  0  0  0  0
    9.6947   -4.8407   18.8534 C   0  0  0  0  0  0  0  0  0  0  0  0
    9.1596    1.7042   24.1381 C   0  0  0  0  0  0  0  0  0  0  0  0
   11.0456   -2.9774   18.2694 N   0  0  0  0  0  0  0  0  0  0  0  0
   10.4788   -3.0457   21.8593 C   0  0  0  0  0  0  0  0  0  0  0  0
    8.8693   -5.8099   18.4657 N   0  0  0  0  0  0  0  0  0  0  0  0
    8.9892   -0.7926   25.4573 C   0  0  0  0  0  0  0  0  0  0  0  0
   10.5677   -3.4462   20.5323 C   0  0  0  0  0  0  0  0  0  0  0  0
  1  8  1  0
  1 12  4  0
  1 14  4  0
  2  3  4  0
  2 18  4  0
  3 20  4  0
  3 22  4  0
  4 11  4  0
  4 21  4  0
  5  9  4  0
  5 16  4  0
  6 15  4  0
  6 16  4  0
  7 22  4  0
  7 26  4  0
  8 10  4  0
  8 25  4  0
  9 15  4  0
  9 17  1  0
 10 21  4  0
 11 25  4  0
 12 23  4  0
 13 20  4  0
 13 26  4  0
 14 19  4  0
 17 18  4  0
 17 24  4  0
 19 23  4  0
 20 24  4  0
 23 26  1  0
M  END
$$$$

 Created by Python create_sdf_string function

 26 30  0  0  0  0  0  0  0  0999 V2000
   10.0084   -1.8019   23.4945 C   0  0  0  0  0  0  0  0  0  0  0  0
   10.0005   -4.2520   16.5631 C   0  0  0  0  0  0  0  0  0  0  0  0
   10.2759   -4.0036   17.8845 C   0  0  0  0  0  0  0  0  0  0  0  0
    8.5652    1.5478   25.3778 N   0  0  0  0  0  0  0  0  0  0  0  0
    6.8048   -7.5457   17.8752 C   0  0  0  0  0  0  0  0  0  0  0  0
    6.1721   -8.2186   15.9886 N   0  0  0  0  0  0  0  0  0  0  0  0
   11.1764   -2.6600   19.5604 C   0  0  0  0  0  0  0  0  0  0  0  0
    9.5491   -0.6380   24.1912 C   0  0  0  0  0  0  0  0  0  0  0  0
    7.5337   -6.9256   16.9519 C   0  0  0  0  0  0  0  0  0  0  0  0
    9.6782    0.5671   23.5143 C   0  0  0  0  0  0  0  0  0  0  0  0
    8.4532    0.3482   26.0821 C   0  0  0  0  0  0  0  0  0  0  0  0
   10.4239   -1.7677   22.2230 N   0  0  0  0  0  0  0  0  0  0  0  0
    9.9468   -4.5953   20.1709 C   0  0  0  0  0  0  0  0  0  0  0  0
   10.0366   -3.0590   23.9864 N   0  0  0  0  0  0  0  0  0  0  0  0
    7.1191   -7.3636   15.7739 C   0  0  0  0  0  0  0  0  0  0  0  0
    5.9612   -8.3203   17.2732 N   0  0  0  0  0  0  0  0  0  0  0  0
    8.5296   -5.9814   17.1841 C   0  0  0  0  0  0  0  0  0  0  0  0
    9.1527   -5.2118   16.2116 C   0  0  0  0  0  0  0  0  0  0  0  0
   10.3364   -3.8368   22.9255 O   0  0  0  0  0  0  0  0  0  0  0  0
    9.6947   -4.8407   18.8534 C   0  0  0  0  0  0  0  0  0  0  0  0
    9.1596    1.7042   24.1381 C   0  0  0  0  0  0  0  0  0  0  0  0
   11.0456   -2.9774   18.2694 N   0  0  0  0  0  0  0  0  0  0  0  0
   10.4788   -3.0457   21.8593 C   0  0  0  0  0  0  0  0  0  0  0  0
    8.8693   -5.8099   18.4657 N   0  0  0  0  0  0  0  0  0  0  0  0
    8.9892   -0.7926   25.4573 C   0  0  0  0  0  0  0  0  0  0  0  0
   10.5677   -3.4462   20.5323 C   0  0  0  0  0  0  0  0  0  0  0  0
  1  8  1  0
  1 12  4  0
  1 14  4  0
  2  3  4  0
  2 18  4  0
  3 20  4  0
  3 22  4  0
  4 11  4  0
  4 21  4  0
  5  9  4  0
  5 16  4  0
  6 15  4  0
  6 16  4  0
  7 22  4  0
  7 26  4  0
  8 10  4  0
  8 25  4  0
  9 15  4  0
  9 17  1  0
 10 21  4  0
 11 25  4  0
 12 23  4  0
 13 20  4  0
 13 26  4  0
 14 19  4  0
 17 18  4  0
 17 24  4  0
 19 23  4  0
 20 24  4  0
 23 26  1  0
M  END
$$$$

 Created by Python create_sdf_string function

 26 30  0  0  0  0  0  0  0  0999 V2000
   10.0084   -1.8019   23.4945 C   0  0  0  0  0  0  0  0  0  0  0  0
   10.0005   -4.2520   16.5631 C   0  0  0  0  0  0  0  0  0  0  0  0
   10.2759   -4.0036   17.8845 C   0  0  0  0  0  0  0  0  0  0  0  0
    8.5652    1.5478   25.3778 N   0  0  0  0  0  0  0  0  0  0  0  0
    6.8048   -7.5457   17.8752 C   0  0  0  0  0  0  0  0  0  0  0  0
    6.1721   -8.2186   15.9886 N   0  0  0  0  0  0  0  0  0  0  0  0
   11.1764   -2.6600   19.5604 C   0  0  0  0  0  0  0  0  0  0  0  0
    9.5491   -0.6380   24.1912 C   0  0  0  0  0  0  0  0  0  0  0  0
    7.5337   -6.9256   16.9519 C   0  0  0  0  0  0  0  0  0  0  0  0
    9.6782    0.5671   23.5143 C   0  0  0  0  0  0  0  0  0  0  0  0
    8.4532    0.3482   26.0821 C   0  0  0  0  0  0  0  0  0  0  0  0
   10.4239   -1.7677   22.2230 N   0  0  0  0  0  0  0  0  0  0  0  0
    9.9468   -4.5953   20.1709 C   0  0  0  0  0  0  0  0  0  0  0  0
   10.0366   -3.0590   23.9864 N   0  0  0  0  0  0  0  0  0  0  0  0
    7.1191   -7.3636   15.7739 C   0  0  0  0  0  0  0  0  0  0  0  0
    5.9612   -8.3203   17.2732 N   0  0  0  0  0  0  0  0  0  0  0  0
    8.5296   -5.9814   17.1841 C   0  0  0  0  0  0  0  0  0  0  0  0
    9.1527   -5.2118   16.2116 C   0  0  0  0  0  0  0  0  0  0  0  0
   10.3364   -3.8368   22.9255 O   0  0  0  0  0  0  0  0  0  0  0  0
    9.6947   -4.8407   18.8534 C   0  0  0  0  0  0  0  0  0  0  0  0
    9.1596    1.7042   24.1381 C   0  0  0  0  0  0  0  0  0  0  0  0
   11.0456   -2.9774   18.2694 N   0  0  0  0  0  0  0  0  0  0  0  0
   10.4788   -3.0457   21.8593 C   0  0  0  0  0  0  0  0  0  0  0  0
    8.8693   -5.8099   18.4657 N   0  0  0  0  0  0  0  0  0  0  0  0
    8.9892   -0.7926   25.4573 C   0  0  0  0  0  0  0  0  0  0  0  0
   10.5677   -3.4462   20.5323 C   0  0  0  0  0  0  0  0  0  0  0  0
  1  8  1  0
  1 12  4  0
  1 14  4  0
  2  3  4  0
  2 18  4  0
  3 20  4  0
  3 22  4  0
  4 11  4  0
  4 21  4  0
  5  9  4  0
  5 16  4  0
  6 15  4  0
  6 16  4  0
  7 22  4  0
  7 26  4  0
  8 10  4  0
  8 25  4  0
  9 15  4  0
  9 17  1  0
 10 21  4  0
 11 25  4  0
 12 23  4  0
 13 20  4  0
 13 26  4  0
 14 19  4  0
 17 18  4  0
 17 24  4  0
 19 23  4  0
 20 24  4  0
 23 26  1  0
M  END
$$$$

 Created by Python create_sdf_string function

 26 30  0  0  0  0  0  0  0  0999 V2000
   10.0084   -1.8019   23.4945 C   0  0  0  0  0  0  0  0  0  0  0  0
   10.0005   -4.2520   16.5631 C   0  0  0  0  0  0  0  0  0  0  0  0
   10.2759   -4.0036   17.8845 C   0  0  0  0  0  0  0  0  0  0  0  0
    8.5652    1.5478   25.3778 N   0  0  0  0  0  0  0  0  0  0  0  0
    6.8048   -7.5457   17.8752 C   0  0  0  0  0  0  0  0  0  0  0  0
    6.1721   -8.2186   15.9886 N   0  0  0  0  0  0  0  0  0  0  0  0
   11.1764   -2.6600   19.5604 C   0  0  0  0  0  0  0  0  0  0  0  0
    9.5491   -0.6380   24.1912 C   0  0  0  0  0  0  0  0  0  0  0  0
    7.5337   -6.9256   16.9519 C   0  0  0  0  0  0  0  0  0  0  0  0
    9.6782    0.5671   23.5143 C   0  0  0  0  0  0  0  0  0  0  0  0
    8.4532    0.3482   26.0821 C   0  0  0  0  0  0  0  0  0  0  0  0
   10.4239   -1.7677   22.2230 N   0  0  0  0  0  0  0  0  0  0  0  0
    9.9468   -4.5953   20.1709 C   0  0  0  0  0  0  0  0  0  0  0  0
   10.0366   -3.0590   23.9864 N   0  0  0  0  0  0  0  0  0  0  0  0
    7.1191   -7.3636   15.7739 C   0  0  0  0  0  0  0  0  0  0  0  0
    5.9612   -8.3203   17.2732 N   0  0  0  0  0  0  0  0  0  0  0  0
    8.5296   -5.9814   17.1841 C   0  0  0  0  0  0  0  0  0  0  0  0
    9.1527   -5.2118   16.2116 C   0  0  0  0  0  0  0  0  0  0  0  0
   10.3364   -3.8368   22.9255 O   0  0  0  0  0  0  0  0  0  0  0  0
    9.6947   -4.8407   18.8534 C   0  0  0  0  0  0  0  0  0  0  0  0
    9.1596    1.7042   24.1381 C   0  0  0  0  0  0  0  0  0  0  0  0
   11.0456   -2.9774   18.2694 N   0  0  0  0  0  0  0  0  0  0  0  0
   10.4788   -3.0457   21.8593 C   0  0  0  0  0  0  0  0  0  0  0  0
    8.8693   -5.8099   18.4657 N   0  0  0  0  0  0  0  0  0  0  0  0
    8.9892   -0.7926   25.4573 C   0  0  0  0  0  0  0  0  0  0  0  0
   10.5677   -3.4462   20.5323 C   0  0  0  0  0  0  0  0  0  0  0  0
  1  8  1  0
  1 12  4  0
  1 14  4  0
  2  3  4  0
  2 18  4  0
  3 20  4  0
  3 22  4  0
  4 11  4  0
  4 21  4  0
  5  9  4  0
  5 16  4  0
  6 15  4  0
  6 16  4  0
  7 22  4  0
  7 26  4  0
  8 10  4  0
  8 25  4  0
  9 15  4  0
  9 17  1  0
 10 21  4  0
 11 25  4  0
 12 23  4  0
 13 20  4  0
 13 26  4  0
 14 19  4  0
 17 18  4  0
 17 24  4  0
 19 23  4  0
 20 24  4  0
 23 26  1  0
M  END
$$$$

 Created by Python create_sdf_string function

 26 30  0  0  0  0  0  0  0  0999 V2000
   10.0084   -1.8019   23.4945 C   0  0  0  0  0  0  0  0  0  0  0  0
   10.0005   -4.2520   16.5631 C   0  0  0  0  0  0  0  0  0  0  0  0
   10.2759   -4.0036   17.8845 C   0  0  0  0  0  0  0  0  0  0  0  0
    8.5652    1.5478   25.3778 N   0  0  0  0  0  0  0  0  0  0  0  0
    6.8048   -7.5457   17.8752 C   0  0  0  0  0  0  0  0  0  0  0  0
    6.1721   -8.2186   15.9886 N   0  0  0  0  0  0  0  0  0  0  0  0
   11.1764   -2.6600   19.5604 C   0  0  0  0  0  0  0  0  0  0  0  0
    9.5491   -0.6380   24.1912 C   0  0  0  0  0  0  0  0  0  0  0  0
    7.5337   -6.9256   16.9519 C   0  0  0  0  0  0  0  0  0  0  0  0
    9.6782    0.5671   23.5143 C   0  0  0  0  0  0  0  0  0  0  0  0
    8.4532    0.3482   26.0821 C   0  0  0  0  0  0  0  0  0  0  0  0
   10.4239   -1.7677   22.2230 N   0  0  0  0  0  0  0  0  0  0  0  0
    9.9468   -4.5953   20.1709 C   0  0  0  0  0  0  0  0  0  0  0  0
   10.0366   -3.0590   23.9864 N   0  0  0  0  0  0  0  0  0  0  0  0
    7.1191   -7.3636   15.7739 C   0  0  0  0  0  0  0  0  0  0  0  0
    5.9612   -8.3203   17.2732 N   0  0  0  0  0  0  0  0  0  0  0  0
    8.5296   -5.9814   17.1841 C   0  0  0  0  0  0  0  0  0  0  0  0
    9.1527   -5.2118   16.2116 C   0  0  0  0  0  0  0  0  0  0  0  0
   10.3364   -3.8368   22.9255 O   0  0  0  0  0  0  0  0  0  0  0  0
    9.6947   -4.8407   18.8534 C   0  0  0  0  0  0  0  0  0  0  0  0
    9.1596    1.7042   24.1381 C   0  0  0  0  0  0  0  0  0  0  0  0
   11.0456   -2.9774   18.2694 N   0  0  0  0  0  0  0  0  0  0  0  0
   10.4788   -3.0457   21.8593 C   0  0  0  0  0  0  0  0  0  0  0  0
    8.8693   -5.8099   18.4657 N   0  0  0  0  0  0  0  0  0  0  0  0
    8.9892   -0.7926   25.4573 C   0  0  0  0  0  0  0  0  0  0  0  0
   10.5677   -3.4462   20.5323 C   0  0  0  0  0  0  0  0  0  0  0  0
  1  8  1  0
  1 12  4  0
  1 14  4  0
  2  3  4  0
  2 18  4  0
  3 20  4  0
  3 22  4  0
  4 11  4  0
  4 21  4  0
  5  9  4  0
  5 16  4  0
  6 15  4  0
  6 16  4  0
  7 22  4  0
  7 26  4  0
  8 10  4  0
  8 25  4  0
  9 15  4  0
  9 17  1  0
 10 21  4  0
 11 25  4  0
 12 23  4  0
 13 20  4  0
 13 26  4  0
 14 19  4  0
 17 18  4  0
 17 24  4  0
 19 23  4  0
 20 24  4  0
 23 26  1  0
M  END
$$$$

 Created by Python create_sdf_string function

 26 30  0  0  0  0  0  0  0  0999 V2000
   10.0084   -1.8019   23.4945 C   0  0  0  0  0  0  0  0  0  0  0  0
   10.0005   -4.2520   16.5631 C   0  0  0  0  0  0  0  0  0  0  0  0
   10.2759   -4.0036   17.8845 C   0  0  0  0  0  0  0  0  0  0  0  0
    8.5652    1.5478   25.3778 N   0  0  0  0  0  0  0  0  0  0  0  0
    6.8048   -7.5457   17.8752 C   0  0  0  0  0  0  0  0  0  0  0  0
    6.1721   -8.2186   15.9886 N   0  0  0  0  0  0  0  0  0  0  0  0
   11.1764   -2.6600   19.5604 C   0  0  0  0  0  0  0  0  0  0  0  0
    9.5491   -0.6380   24.1912 C   0  0  0  0  0  0  0  0  0  0  0  0
    7.5337   -6.9256   16.9519 C   0  0  0  0  0  0  0  0  0  0  0  0
    9.6782    0.5671   23.5143 C   0  0  0  0  0  0  0  0  0  0  0  0
    8.4532    0.3482   26.0821 C   0  0  0  0  0  0  0  0  0  0  0  0
   10.4239   -1.7677   22.2230 N   0  0  0  0  0  0  0  0  0  0  0  0
    9.9468   -4.5953   20.1709 C   0  0  0  0  0  0  0  0  0  0  0  0
   10.0366   -3.0590   23.9864 N   0  0  0  0  0  0  0  0  0  0  0  0
    7.1191   -7.3636   15.7739 C   0  0  0  0  0  0  0  0  0  0  0  0
    5.9612   -8.3203   17.2732 N   0  0  0  0  0  0  0  0  0  0  0  0
    8.5296   -5.9814   17.1841 C   0  0  0  0  0  0  0  0  0  0  0  0
    9.1527   -5.2118   16.2116 C   0  0  0  0  0  0  0  0  0  0  0  0
   10.3364   -3.8368   22.9255 O   0  0  0  0  0  0  0  0  0  0  0  0
    9.6947   -4.8407   18.8534 C   0  0  0  0  0  0  0  0  0  0  0  0
    9.1596    1.7042   24.1381 C   0  0  0  0  0  0  0  0  0  0  0  0
   11.0456   -2.9774   18.2694 N   0  0  0  0  0  0  0  0  0  0  0  0
   10.4788   -3.0457   21.8593 C   0  0  0  0  0  0  0  0  0  0  0  0
    8.8693   -5.8099   18.4657 N   0  0  0  0  0  0  0  0  0  0  0  0
    8.9892   -0.7926   25.4573 C   0  0  0  0  0  0  0  0  0  0  0  0
   10.5677   -3.4462   20.5323 C   0  0  0  0  0  0  0  0  0  0  0  0
  1  8  1  0
  1 12  4  0
  1 14  4  0
  2  3  4  0
  2 18  4  0
  3 20  4  0
  3 22  4  0
  4 11  4  0
  4 21  4  0
  5  9  4  0
  5 16  4  0
  6 15  4  0
  6 16  4  0
  7 22  4  0
  7 26  4  0
  8 10  4  0
  8 25  4  0
  9 15  4  0
  9 17  1  0
 10 21  4  0
 11 25  4  0
 12 23  4  0
 13 20  4  0
 13 26  4  0
 14 19  4  0
 17 18  4  0
 17 24  4  0
 19 23  4  0
 20 24  4  0
 23 26  1  0
M  END
$$$$

 Created by Python create_sdf_string function

 26 30  0  0  0  0  0  0  0  0999 V2000
   10.0084   -1.8019   23.4945 C   0  0  0  0  0  0  0  0  0  0  0  0
   10.0005   -4.2520   16.5631 C   0  0  0  0  0  0  0  0  0  0  0  0
   10.2759   -4.0036   17.8845 C   0  0  0  0  0  0  0  0  0  0  0  0
    8.5652    1.5478   25.3778 N   0  0  0  0  0  0  0  0  0  0  0  0
    6.8048   -7.5457   17.8752 C   0  0  0  0  0  0  0  0  0  0  0  0
    6.1721   -8.2186   15.9886 N   0  0  0  0  0  0  0  0  0  0  0  0
   11.1764   -2.6600   19.5604 C   0  0  0  0  0  0  0  0  0  0  0  0
    9.5491   -0.6380   24.1912 C   0  0  0  0  0  0  0  0  0  0  0  0
    7.5337   -6.9256   16.9519 C   0  0  0  0  0  0  0  0  0  0  0  0
    9.6782    0.5671   23.5143 C   0  0  0  0  0  0  0  0  0  0  0  0
    8.4532    0.3482   26.0821 C   0  0  0  0  0  0  0  0  0  0  0  0
   10.4239   -1.7677   22.2230 N   0  0  0  0  0  0  0  0  0  0  0  0
    9.9468   -4.5953   20.1709 C   0  0  0  0  0  0  0  0  0  0  0  0
   10.0366   -3.0590   23.9864 N   0  0  0  0  0  0  0  0  0  0  0  0
    7.1191   -7.3636   15.7739 C   0  0  0  0  0  0  0  0  0  0  0  0
    5.9612   -8.3203   17.2732 N   0  0  0  0  0  0  0  0  0  0  0  0
    8.5296   -5.9814   17.1841 C   0  0  0  0  0  0  0  0  0  0  0  0
    9.1527   -5.2118   16.2116 C   0  0  0  0  0  0  0  0  0  0  0  0
   10.3364   -3.8368   22.9255 O   0  0  0  0  0  0  0  0  0  0  0  0
    9.6947   -4.8407   18.8534 C   0  0  0  0  0  0  0  0  0  0  0  0
    9.1596    1.7042   24.1381 C   0  0  0  0  0  0  0  0  0  0  0  0
   11.0456   -2.9774   18.2694 N   0  0  0  0  0  0  0  0  0  0  0  0
   10.4788   -3.0457   21.8593 C   0  0  0  0  0  0  0  0  0  0  0  0
    8.8693   -5.8099   18.4657 N   0  0  0  0  0  0  0  0  0  0  0  0
    8.9892   -0.7926   25.4573 C   0  0  0  0  0  0  0  0  0  0  0  0
   10.5677   -3.4462   20.5323 C   0  0  0  0  0  0  0  0  0  0  0  0
  1  8  1  0
  1 12  4  0
  1 14  4  0
  2  3  4  0
  2 18  4  0
  3 20  4  0
  3 22  4  0
  4 11  4  0
  4 21  4  0
  5  9  4  0
  5 16  4  0
  6 15  4  0
  6 16  4  0
  7 22  4  0
  7 26  4  0
  8 10  4  0
  8 25  4  0
  9 15  4  0
  9 17  1  0
 10 21  4  0
 11 25  4  0
 12 23  4  0
 13 20  4  0
 13 26  4  0
 14 19  4  0
 17 18  4  0
 17 24  4  0
 19 23  4  0
 20 24  4  0
 23 26  1  0
M  END
$$$$

 Created by Python create_sdf_string function

 26 30  0  0  0  0  0  0  0  0999 V2000
   10.0084   -1.8019   23.4945 C   0  0  0  0  0  0  0  0  0  0  0  0
   10.0005   -4.2520   16.5631 C   0  0  0  0  0  0  0  0  0  0  0  0
   10.2759   -4.0036   17.8845 C   0  0  0  0  0  0  0  0  0  0  0  0
    8.5652    1.5478   25.3778 N   0  0  0  0  0  0  0  0  0  0  0  0
    6.8048   -7.5457   17.8752 C   0  0  0  0  0  0  0  0  0  0  0  0
    6.1721   -8.2186   15.9886 N   0  0  0  0  0  0  0  0  0  0  0  0
   11.1764   -2.6600   19.5604 C   0  0  0  0  0  0  0  0  0  0  0  0
    9.5491   -0.6380   24.1912 C   0  0  0  0  0  0  0  0  0  0  0  0
    7.5337   -6.9256   16.9519 C   0  0  0  0  0  0  0  0  0  0  0  0
    9.6782    0.5671   23.5143 C   0  0  0  0  0  0  0  0  0  0  0  0
    8.4532    0.3482   26.0821 C   0  0  0  0  0  0  0  0  0  0  0  0
   10.4239   -1.7677   22.2230 N   0  0  0  0  0  0  0  0  0  0  0  0
    9.9468   -4.5953   20.1709 C   0  0  0  0  0  0  0  0  0  0  0  0
   10.0366   -3.0590   23.9864 N   0  0  0  0  0  0  0  0  0  0  0  0
    7.1191   -7.3636   15.7739 C   0  0  0  0  0  0  0  0  0  0  0  0
    5.9612   -8.3203   17.2732 N   0  0  0  0  0  0  0  0  0  0  0  0
    8.5296   -5.9814   17.1841 C   0  0  0  0  0  0  0  0  0  0  0  0
    9.1527   -5.2118   16.2116 C   0  0  0  0  0  0  0  0  0  0  0  0
   10.3364   -3.8368   22.9255 O   0  0  0  0  0  0  0  0  0  0  0  0
    9.6947   -4.8407   18.8534 C   0  0  0  0  0  0  0  0  0  0  0  0
    9.1596    1.7042   24.1381 C   0  0  0  0  0  0  0  0  0  0  0  0
   11.0456   -2.9774   18.2694 N   0  0  0  0  0  0  0  0  0  0  0  0
   10.4788   -3.0457   21.8593 C   0  0  0  0  0  0  0  0  0  0  0  0
    8.8693   -5.8099   18.4657 N   0  0  0  0  0  0  0  0  0  0  0  0
    8.9892   -0.7926   25.4573 C   0  0  0  0  0  0  0  0  0  0  0  0
   10.5677   -3.4462   20.5323 C   0  0  0  0  0  0  0  0  0  0  0  0
  1  8  1  0
  1 12  4  0
  1 14  4  0
  2  3  4  0
  2 18  4  0
  3 20  4  0
  3 22  4  0
  4 11  4  0
  4 21  4  0
  5  9  4  0
  5 16  4  0
  6 15  4  0
  6 16  4  0
  7 22  4  0
  7 26  4  0
  8 10  4  0
  8 25  4  0
  9 15  4  0
  9 17  1  0
 10 21  4  0
 11 25  4  0
 12 23  4  0
 13 20  4  0
 13 26  4  0
 14 19  4  0
 17 18  4  0
 17 24  4  0
 19 23  4  0
 20 24  4  0
 23 26  1  0
M  END
$$$$

 Created by Python create_sdf_string function

 26 30  0  0  0  0  0  0  0  0999 V2000
   10.0084   -1.8019   23.4945 C   0  0  0  0  0  0  0  0  0  0  0  0
   10.0005   -4.2520   16.5631 C   0  0  0  0  0  0  0  0  0  0  0  0
   10.2759   -4.0036   17.8845 C   0  0  0  0  0  0  0  0  0  0  0  0
    8.5652    1.5478   25.3778 N   0  0  0  0  0  0  0  0  0  0  0  0
    6.8048   -7.5457   17.8752 C   0  0  0  0  0  0  0  0  0  0  0  0
    6.1721   -8.2186   15.9886 N   0  0  0  0  0  0  0  0  0  0  0  0
   11.1764   -2.6600   19.5604 C   0  0  0  0  0  0  0  0  0  0  0  0
    9.5491   -0.6380   24.1912 C   0  0  0  0  0  0  0  0  0  0  0  0
    7.5337   -6.9256   16.9519 C   0  0  0  0  0  0  0  0  0  0  0  0
    9.6782    0.5671   23.5143 C   0  0  0  0  0  0  0  0  0  0  0  0
    8.4532    0.3482   26.0821 C   0  0  0  0  0  0  0  0  0  0  0  0
   10.4239   -1.7677   22.2230 N   0  0  0  0  0  0  0  0  0  0  0  0
    9.9468   -4.5953   20.1709 C   0  0  0  0  0  0  0  0  0  0  0  0
   10.0366   -3.0590   23.9864 N   0  0  0  0  0  0  0  0  0  0  0  0
    7.1191   -7.3636   15.7739 C   0  0  0  0  0  0  0  0  0  0  0  0
    5.9612   -8.3203   17.2732 N   0  0  0  0  0  0  0  0  0  0  0  0
    8.5296   -5.9814   17.1841 C   0  0  0  0  0  0  0  0  0  0  0  0
    9.1527   -5.2118   16.2116 C   0  0  0  0  0  0  0  0  0  0  0  0
   10.3364   -3.8368   22.9255 O   0  0  0  0  0  0  0  0  0  0  0  0
    9.6947   -4.8407   18.8534 C   0  0  0  0  0  0  0  0  0  0  0  0
    9.1596    1.7042   24.1381 C   0  0  0  0  0  0  0  0  0  0  0  0
   11.0456   -2.9774   18.2694 N   0  0  0  0  0  0  0  0  0  0  0  0
   10.4788   -3.0457   21.8593 C   0  0  0  0  0  0  0  0  0  0  0  0
    8.8693   -5.8099   18.4657 N   0  0  0  0  0  0  0  0  0  0  0  0
    8.9892   -0.7926   25.4573 C   0  0  0  0  0  0  0  0  0  0  0  0
   10.5677   -3.4462   20.5323 C   0  0  0  0  0  0  0  0  0  0  0  0
  1  8  1  0
  1 12  4  0
  1 14  4  0
  2  3  4  0
  2 18  4  0
  3 20  4  0
  3 22  4  0
  4 11  4  0
  4 21  4  0
  5  9  4  0
  5 16  4  0
  6 15  4  0
  6 16  4  0
  7 22  4  0
  7 26  4  0
  8 10  4  0
  8 25  4  0
  9 15  4  0
  9 17  1  0
 10 21  4  0
 11 25  4  0
 12 23  4  0
 13 20  4  0
 13 26  4  0
 14 19  4  0
 17 18  4  0
 17 24  4  0
 19 23  4  0
 20 24  4  0
 23 26  1  0
M  END
$$$$

 Created by Python create_sdf_string function

 26 30  0  0  0  0  0  0  0  0999 V2000
   10.0084   -1.8019   23.4945 C   0  0  0  0  0  0  0  0  0  0  0  0
   10.0005   -4.2520   16.5631 C   0  0  0  0  0  0  0  0  0  0  0  0
   10.2759   -4.0036   17.8845 C   0  0  0  0  0  0  0  0  0  0  0  0
    8.5652    1.5478   25.3778 N   0  0  0  0  0  0  0  0  0  0  0  0
    6.8048   -7.5457   17.8752 C   0  0  0  0  0  0  0  0  0  0  0  0
    6.1721   -8.2186   15.9886 N   0  0  0  0  0  0  0  0  0  0  0  0
   11.1764   -2.6600   19.5604 C   0  0  0  0  0  0  0  0  0  0  0  0
    9.5491   -0.6380   24.1912 C   0  0  0  0  0  0  0  0  0  0  0  0
    7.5337   -6.9256   16.9519 C   0  0  0  0  0  0  0  0  0  0  0  0
    9.6782    0.5671   23.5143 C   0  0  0  0  0  0  0  0  0  0  0  0
    8.4532    0.3482   26.0821 C   0  0  0  0  0  0  0  0  0  0  0  0
   10.4239   -1.7677   22.2230 N   0  0  0  0  0  0  0  0  0  0  0  0
    9.9468   -4.5953   20.1709 C   0  0  0  0  0  0  0  0  0  0  0  0
   10.0366   -3.0590   23.9864 N   0  0  0  0  0  0  0  0  0  0  0  0
    7.1191   -7.3636   15.7739 C   0  0  0  0  0  0  0  0  0  0  0  0
    5.9612   -8.3203   17.2732 N   0  0  0  0  0  0  0  0  0  0  0  0
    8.5296   -5.9814   17.1841 C   0  0  0  0  0  0  0  0  0  0  0  0
    9.1527   -5.2118   16.2116 C   0  0  0  0  0  0  0  0  0  0  0  0
   10.3364   -3.8368   22.9255 O   0  0  0  0  0  0  0  0  0  0  0  0
    9.6947   -4.8407   18.8534 C   0  0  0  0  0  0  0  0  0  0  0  0
    9.1596    1.7042   24.1381 C   0  0  0  0  0  0  0  0  0  0  0  0
   11.0456   -2.9774   18.2694 N   0  0  0  0  0  0  0  0  0  0  0  0
   10.4788   -3.0457   21.8593 C   0  0  0  0  0  0  0  0  0  0  0  0
    8.8693   -5.8099   18.4657 N   0  0  0  0  0  0  0  0  0  0  0  0
    8.9892   -0.7926   25.4573 C   0  0  0  0  0  0  0  0  0  0  0  0
   10.5677   -3.4462   20.5323 C   0  0  0  0  0  0  0  0  0  0  0  0
  1  8  1  0
  1 12  4  0
  1 14  4  0
  2  3  4  0
  2 18  4  0
  3 20  4  0
  3 22  4  0
  4 11  4  0
  4 21  4  0
  5  9  4  0
  5 16  4  0
  6 15  4  0
  6 16  4  0
  7 22  4  0
  7 26  4  0
  8 10  4  0
  8 25  4  0
  9 15  4  0
  9 17  1  0
 10 21  4  0
 11 25  4  0
 12 23  4  0
 13 20  4  0
 13 26  4  0
 14 19  4  0
 17 18  4  0
 17 24  4  0
 19 23  4  0
 20 24  4  0
 23 26  1  0
M  END
$$$$

 Created by Python create_sdf_string function

 26 30  0  0  0  0  0  0  0  0999 V2000
   10.0084   -1.8019   23.4945 C   0  0  0  0  0  0  0  0  0  0  0  0
   10.0005   -4.2520   16.5631 C   0  0  0  0  0  0  0  0  0  0  0  0
   10.2759   -4.0036   17.8845 C   0  0  0  0  0  0  0  0  0  0  0  0
    8.5652    1.5478   25.3778 N   0  0  0  0  0  0  0  0  0  0  0  0
    6.8048   -7.5457   17.8752 C   0  0  0  0  0  0  0  0  0  0  0  0
    6.1721   -8.2186   15.9886 N   0  0  0  0  0  0  0  0  0  0  0  0
   11.1764   -2.6600   19.5604 C   0  0  0  0  0  0  0  0  0  0  0  0
    9.5491   -0.6380   24.1912 C   0  0  0  0  0  0  0  0  0  0  0  0
    7.5337   -6.9256   16.9519 C   0  0  0  0  0  0  0  0  0  0  0  0
    9.6782    0.5671   23.5143 C   0  0  0  0  0  0  0  0  0  0  0  0
    8.4532    0.3482   26.0821 C   0  0  0  0  0  0  0  0  0  0  0  0
   10.4239   -1.7677   22.2230 N   0  0  0  0  0  0  0  0  0  0  0  0
    9.9468   -4.5953   20.1709 C   0  0  0  0  0  0  0  0  0  0  0  0
   10.0366   -3.0590   23.9864 N   0  0  0  0  0  0  0  0  0  0  0  0
    7.1191   -7.3636   15.7739 C   0  0  0  0  0  0  0  0  0  0  0  0
    5.9612   -8.3203   17.2732 N   0  0  0  0  0  0  0  0  0  0  0  0
    8.5296   -5.9814   17.1841 C   0  0  0  0  0  0  0  0  0  0  0  0
    9.1527   -5.2118   16.2116 C   0  0  0  0  0  0  0  0  0  0  0  0
   10.3364   -3.8368   22.9255 O   0  0  0  0  0  0  0  0  0  0  0  0
    9.6947   -4.8407   18.8534 C   0  0  0  0  0  0  0  0  0  0  0  0
    9.1596    1.7042   24.1381 C   0  0  0  0  0  0  0  0  0  0  0  0
   11.0456   -2.9774   18.2694 N   0  0  0  0  0  0  0  0  0  0  0  0
   10.4788   -3.0457   21.8593 C   0  0  0  0  0  0  0  0  0  0  0  0
    8.8693   -5.8099   18.4657 N   0  0  0  0  0  0  0  0  0  0  0  0
    8.9892   -0.7926   25.4573 C   0  0  0  0  0  0  0  0  0  0  0  0
   10.5677   -3.4462   20.5323 C   0  0  0  0  0  0  0  0  0  0  0  0
  1  8  1  0
  1 12  4  0
  1 14  4  0
  2  3  4  0
  2 18  4  0
  3 20  4  0
  3 22  4  0
  4 11  4  0
  4 21  4  0
  5  9  4  0
  5 16  4  0
  6 15  4  0
  6 16  4  0
  7 22  4  0
  7 26  4  0
  8 10  4  0
  8 25  4  0
  9 15  4  0
  9 17  1  0
 10 21  4  0
 11 25  4  0
 12 23  4  0
 13 20  4  0
 13 26  4  0
 14 19  4  0
 17 18  4  0
 17 24  4  0
 19 23  4  0
 20 24  4  0
 23 26  1  0
M  END
$$$$

 Created by Python create_sdf_string function

 26 30  0  0  0  0  0  0  0  0999 V2000
   10.0084   -1.8019   23.4945 C   0  0  0  0  0  0  0  0  0  0  0  0
   10.0005   -4.2520   16.5631 C   0  0  0  0  0  0  0  0  0  0  0  0
   10.2759   -4.0036   17.8845 C   0  0  0  0  0  0  0  0  0  0  0  0
    8.5652    1.5478   25.3778 N   0  0  0  0  0  0  0  0  0  0  0  0
    6.8048   -7.5457   17.8752 C   0  0  0  0  0  0  0  0  0  0  0  0
    6.1721   -8.2186   15.9886 N   0  0  0  0  0  0  0  0  0  0  0  0
   11.1764   -2.6600   19.5604 C   0  0  0  0  0  0  0  0  0  0  0  0
    9.5491   -0.6380   24.1912 C   0  0  0  0  0  0  0  0  0  0  0  0
    7.5337   -6.9256   16.9519 C   0  0  0  0  0  0  0  0  0  0  0  0
    9.6782    0.5671   23.5143 C   0  0  0  0  0  0  0  0  0  0  0  0
    8.4532    0.3482   26.0821 C   0  0  0  0  0  0  0  0  0  0  0  0
   10.4239   -1.7677   22.2230 N   0  0  0  0  0  0  0  0  0  0  0  0
    9.9468   -4.5953   20.1709 C   0  0  0  0  0  0  0  0  0  0  0  0
   10.0366   -3.0590   23.9864 N   0  0  0  0  0  0  0  0  0  0  0  0
    7.1191   -7.3636   15.7739 C   0  0  0  0  0  0  0  0  0  0  0  0
    5.9612   -8.3203   17.2732 N   0  0  0  0  0  0  0  0  0  0  0  0
    8.5296   -5.9814   17.1841 C   0  0  0  0  0  0  0  0  0  0  0  0
    9.1527   -5.2118   16.2116 C   0  0  0  0  0  0  0  0  0  0  0  0
   10.3364   -3.8368   22.9255 O   0  0  0  0  0  0  0  0  0  0  0  0
    9.6947   -4.8407   18.8534 C   0  0  0  0  0  0  0  0  0  0  0  0
    9.1596    1.7042   24.1381 C   0  0  0  0  0  0  0  0  0  0  0  0
   11.0456   -2.9774   18.2694 N   0  0  0  0  0  0  0  0  0  0  0  0
   10.4788   -3.0457   21.8593 C   0  0  0  0  0  0  0  0  0  0  0  0
    8.8693   -5.8099   18.4657 N   0  0  0  0  0  0  0  0  0  0  0  0
    8.9892   -0.7926   25.4573 C   0  0  0  0  0  0  0  0  0  0  0  0
   10.5677   -3.4462   20.5323 C   0  0  0  0  0  0  0  0  0  0  0  0
  1  8  1  0
  1 12  4  0
  1 14  4  0
  2  3  4  0
  2 18  4  0
  3 20  4  0
  3 22  4  0
  4 11  4  0
  4 21  4  0
  5  9  4  0
  5 16  4  0
  6 15  4  0
  6 16  4  0
  7 22  4  0
  7 26  4  0
  8 10  4  0
  8 25  4  0
  9 15  4  0
  9 17  1  0
 10 21  4  0
 11 25  4  0
 12 23  4  0
 13 20  4  0
 13 26  4  0
 14 19  4  0
 17 18  4  0
 17 24  4  0
 19 23  4  0
 20 24  4  0
 23 26  1  0
M  END
$$$$

 Created by Python create_sdf_string function

 26 30  0  0  0  0  0  0  0  0999 V2000
   10.0084   -1.8019   23.4945 C   0  0  0  0  0  0  0  0  0  0  0  0
   10.0005   -4.2520   16.5631 C   0  0  0  0  0  0  0  0  0  0  0  0
   10.2759   -4.0036   17.8845 C   0  0  0  0  0  0  0  0  0  0  0  0
    8.5652    1.5478   25.3778 N   0  0  0  0  0  0  0  0  0  0  0  0
    6.8048   -7.5457   17.8752 C   0  0  0  0  0  0  0  0  0  0  0  0
    6.1721   -8.2186   15.9886 N   0  0  0  0  0  0  0  0  0  0  0  0
   11.1764   -2.6600   19.5604 C   0  0  0  0  0  0  0  0  0  0  0  0
    9.5491   -0.6380   24.1912 C   0  0  0  0  0  0  0  0  0  0  0  0
    7.5337   -6.9256   16.9519 C   0  0  0  0  0  0  0  0  0  0  0  0
    9.6782    0.5671   23.5143 C   0  0  0  0  0  0  0  0  0  0  0  0
    8.4532    0.3482   26.0821 C   0  0  0  0  0  0  0  0  0  0  0  0
   10.4239   -1.7677   22.2230 N   0  0  0  0  0  0  0  0  0  0  0  0
    9.9468   -4.5953   20.1709 C   0  0  0  0  0  0  0  0  0  0  0  0
   10.0366   -3.0590   23.9864 N   0  0  0  0  0  0  0  0  0  0  0  0
    7.1191   -7.3636   15.7739 C   0  0  0  0  0  0  0  0  0  0  0  0
    5.9612   -8.3203   17.2732 N   0  0  0  0  0  0  0  0  0  0  0  0
    8.5296   -5.9814   17.1841 C   0  0  0  0  0  0  0  0  0  0  0  0
    9.1527   -5.2118   16.2116 C   0  0  0  0  0  0  0  0  0  0  0  0
   10.3364   -3.8368   22.9255 O   0  0  0  0  0  0  0  0  0  0  0  0
    9.6947   -4.8407   18.8534 C   0  0  0  0  0  0  0  0  0  0  0  0
    9.1596    1.7042   24.1381 C   0  0  0  0  0  0  0  0  0  0  0  0
   11.0456   -2.9774   18.2694 N   0  0  0  0  0  0  0  0  0  0  0  0
   10.4788   -3.0457   21.8593 C   0  0  0  0  0  0  0  0  0  0  0  0
    8.8693   -5.8099   18.4657 N   0  0  0  0  0  0  0  0  0  0  0  0
    8.9892   -0.7926   25.4573 C   0  0  0  0  0  0  0  0  0  0  0  0
   10.5677   -3.4462   20.5323 C   0  0  0  0  0  0  0  0  0  0  0  0
  1  8  1  0
  1 12  4  0
  1 14  4  0
  2  3  4  0
  2 18  4  0
  3 20  4  0
  3 22  4  0
  4 11  4  0
  4 21  4  0
  5  9  4  0
  5 16  4  0
  6 15  4  0
  6 16  4  0
  7 22  4  0
  7 26  4  0
  8 10  4  0
  8 25  4  0
  9 15  4  0
  9 17  1  0
 10 21  4  0
 11 25  4  0
 12 23  4  0
 13 20  4  0
 13 26  4  0
 14 19  4  0
 17 18  4  0
 17 24  4  0
 19 23  4  0
 20 24  4  0
 23 26  1  0
M  END
$$$$

 Created by Python create_sdf_string function

 26 30  0  0  0  0  0  0  0  0999 V2000
   10.0084   -1.8019   23.4945 C   0  0  0  0  0  0  0  0  0  0  0  0
   10.0005   -4.2520   16.5631 C   0  0  0  0  0  0  0  0  0  0  0  0
   10.2759   -4.0036   17.8845 C   0  0  0  0  0  0  0  0  0  0  0  0
    8.5652    1.5478   25.3778 N   0  0  0  0  0  0  0  0  0  0  0  0
    6.8048   -7.5457   17.8752 C   0  0  0  0  0  0  0  0  0  0  0  0
    6.1721   -8.2186   15.9886 N   0  0  0  0  0  0  0  0  0  0  0  0
   11.1764   -2.6600   19.5604 C   0  0  0  0  0  0  0  0  0  0  0  0
    9.5491   -0.6380   24.1912 C   0  0  0  0  0  0  0  0  0  0  0  0
    7.5337   -6.9256   16.9519 C   0  0  0  0  0  0  0  0  0  0  0  0
    9.6782    0.5671   23.5143 C   0  0  0  0  0  0  0  0  0  0  0  0
    8.4532    0.3482   26.0821 C   0  0  0  0  0  0  0  0  0  0  0  0
   10.4239   -1.7677   22.2230 N   0  0  0  0  0  0  0  0  0  0  0  0
    9.9468   -4.5953   20.1709 C   0  0  0  0  0  0  0  0  0  0  0  0
   10.0366   -3.0590   23.9864 N   0  0  0  0  0  0  0  0  0  0  0  0
    7.1191   -7.3636   15.7739 C   0  0  0  0  0  0  0  0  0  0  0  0
    5.9612   -8.3203   17.2732 N   0  0  0  0  0  0  0  0  0  0  0  0
    8.5296   -5.9814   17.1841 C   0  0  0  0  0  0  0  0  0  0  0  0
    9.1527   -5.2118   16.2116 C   0  0  0  0  0  0  0  0  0  0  0  0
   10.3364   -3.8368   22.9255 O   0  0  0  0  0  0  0  0  0  0  0  0
    9.6947   -4.8407   18.8534 C   0  0  0  0  0  0  0  0  0  0  0  0
    9.1596    1.7042   24.1381 C   0  0  0  0  0  0  0  0  0  0  0  0
   11.0456   -2.9774   18.2694 N   0  0  0  0  0  0  0  0  0  0  0  0
   10.4788   -3.0457   21.8593 C   0  0  0  0  0  0  0  0  0  0  0  0
    8.8693   -5.8099   18.4657 N   0  0  0  0  0  0  0  0  0  0  0  0
    8.9892   -0.7926   25.4573 C   0  0  0  0  0  0  0  0  0  0  0  0
   10.5677   -3.4462   20.5323 C   0  0  0  0  0  0  0  0  0  0  0  0
  1  8  1  0
  1 12  4  0
  1 14  4  0
  2  3  4  0
  2 18  4  0
  3 20  4  0
  3 22  4  0
  4 11  4  0
  4 21  4  0
  5  9  4  0
  5 16  4  0
  6 15  4  0
  6 16  4  0
  7 22  4  0
  7 26  4  0
  8 10  4  0
  8 25  4  0
  9 15  4  0
  9 17  1  0
 10 21  4  0
 11 25  4  0
 12 23  4  0
 13 20  4  0
 13 26  4  0
 14 19  4  0
 17 18  4  0
 17 24  4  0
 19 23  4  0
 20 24  4  0
 23 26  1  0
M  END
$$$$

 Created by Python create_sdf_string function

 26 30  0  0  0  0  0  0  0  0999 V2000
   10.0084   -1.8019   23.4945 C   0  0  0  0  0  0  0  0  0  0  0  0
   10.0005   -4.2520   16.5631 C   0  0  0  0  0  0  0  0  0  0  0  0
   10.2759   -4.0036   17.8845 C   0  0  0  0  0  0  0  0  0  0  0  0
    8.5652    1.5478   25.3778 N   0  0  0  0  0  0  0  0  0  0  0  0
    6.8048   -7.5457   17.8752 C   0  0  0  0  0  0  0  0  0  0  0  0
    6.1721   -8.2186   15.9886 N   0  0  0  0  0  0  0  0  0  0  0  0
   11.1764   -2.6600   19.5604 C   0  0  0  0  0  0  0  0  0  0  0  0
    9.5491   -0.6380   24.1912 C   0  0  0  0  0  0  0  0  0  0  0  0
    7.5337   -6.9256   16.9519 C   0  0  0  0  0  0  0  0  0  0  0  0
    9.6782    0.5671   23.5143 C   0  0  0  0  0  0  0  0  0  0  0  0
    8.4532    0.3482   26.0821 C   0  0  0  0  0  0  0  0  0  0  0  0
   10.4239   -1.7677   22.2230 N   0  0  0  0  0  0  0  0  0  0  0  0
    9.9468   -4.5953   20.1709 C   0  0  0  0  0  0  0  0  0  0  0  0
   10.0366   -3.0590   23.9864 N   0  0  0  0  0  0  0  0  0  0  0  0
    7.1191   -7.3636   15.7739 C   0  0  0  0  0  0  0  0  0  0  0  0
    5.9612   -8.3203   17.2732 N   0  0  0  0  0  0  0  0  0  0  0  0
    8.5296   -5.9814   17.1841 C   0  0  0  0  0  0  0  0  0  0  0  0
    9.1527   -5.2118   16.2116 C   0  0  0  0  0  0  0  0  0  0  0  0
   10.3364   -3.8368   22.9255 O   0  0  0  0  0  0  0  0  0  0  0  0
    9.6947   -4.8407   18.8534 C   0  0  0  0  0  0  0  0  0  0  0  0
    9.1596    1.7042   24.1381 C   0  0  0  0  0  0  0  0  0  0  0  0
   11.0456   -2.9774   18.2694 N   0  0  0  0  0  0  0  0  0  0  0  0
   10.4788   -3.0457   21.8593 C   0  0  0  0  0  0  0  0  0  0  0  0
    8.8693   -5.8099   18.4657 N   0  0  0  0  0  0  0  0  0  0  0  0
    8.9892   -0.7926   25.4573 C   0  0  0  0  0  0  0  0  0  0  0  0
   10.5677   -3.4462   20.5323 C   0  0  0  0  0  0  0  0  0  0  0  0
  1  8  1  0
  1 12  4  0
  1 14  4  0
  2  3  4  0
  2 18  4  0
  3 20  4  0
  3 22  4  0
  4 11  4  0
  4 21  4  0
  5  9  4  0
  5 16  4  0
  6 15  4  0
  6 16  4  0
  7 22  4  0
  7 26  4  0
  8 10  4  0
  8 25  4  0
  9 15  4  0
  9 17  1  0
 10 21  4  0
 11 25  4  0
 12 23  4  0
 13 20  4  0
 13 26  4  0
 14 19  4  0
 17 18  4  0
 17 24  4  0
 19 23  4  0
 20 24  4  0
 23 26  1  0
M  END
$$$$

 Created by Python create_sdf_string function

 26 30  0  0  0  0  0  0  0  0999 V2000
   10.0084   -1.8019   23.4945 C   0  0  0  0  0  0  0  0  0  0  0  0
   10.0005   -4.2520   16.5631 C   0  0  0  0  0  0  0  0  0  0  0  0
   10.2759   -4.0036   17.8845 C   0  0  0  0  0  0  0  0  0  0  0  0
    8.5652    1.5478   25.3778 N   0  0  0  0  0  0  0  0  0  0  0  0
    6.8048   -7.5457   17.8752 C   0  0  0  0  0  0  0  0  0  0  0  0
    6.1721   -8.2186   15.9886 N   0  0  0  0  0  0  0  0  0  0  0  0
   11.1764   -2.6600   19.5604 C   0  0  0  0  0  0  0  0  0  0  0  0
    9.5491   -0.6380   24.1912 C   0  0  0  0  0  0  0  0  0  0  0  0
    7.5337   -6.9256   16.9519 C   0  0  0  0  0  0  0  0  0  0  0  0
    9.6782    0.5671   23.5143 C   0  0  0  0  0  0  0  0  0  0  0  0
    8.4532    0.3482   26.0821 C   0  0  0  0  0  0  0  0  0  0  0  0
   10.4239   -1.7677   22.2230 N   0  0  0  0  0  0  0  0  0  0  0  0
    9.9468   -4.5953   20.1709 C   0  0  0  0  0  0  0  0  0  0  0  0
   10.0366   -3.0590   23.9864 N   0  0  0  0  0  0  0  0  0  0  0  0
    7.1191   -7.3636   15.7739 C   0  0  0  0  0  0  0  0  0  0  0  0
    5.9612   -8.3203   17.2732 N   0  0  0  0  0  0  0  0  0  0  0  0
    8.5296   -5.9814   17.1841 C   0  0  0  0  0  0  0  0  0  0  0  0
    9.1527   -5.2118   16.2116 C   0  0  0  0  0  0  0  0  0  0  0  0
   10.3364   -3.8368   22.9255 O   0  0  0  0  0  0  0  0  0  0  0  0
    9.6947   -4.8407   18.8534 C   0  0  0  0  0  0  0  0  0  0  0  0
    9.1596    1.7042   24.1381 C   0  0  0  0  0  0  0  0  0  0  0  0
   11.0456   -2.9774   18.2694 N   0  0  0  0  0  0  0  0  0  0  0  0
   10.4788   -3.0457   21.8593 C   0  0  0  0  0  0  0  0  0  0  0  0
    8.8693   -5.8099   18.4657 N   0  0  0  0  0  0  0  0  0  0  0  0
    8.9892   -0.7926   25.4573 C   0  0  0  0  0  0  0  0  0  0  0  0
   10.5677   -3.4462   20.5323 C   0  0  0  0  0  0  0  0  0  0  0  0
  1  8  1  0
  1 12  4  0
  1 14  4  0
  2  3  4  0
  2 18  4  0
  3 20  4  0
  3 22  4  0
  4 11  4  0
  4 21  4  0
  5  9  4  0
  5 16  4  0
  6 15  4  0
  6 16  4  0
  7 22  4  0
  7 26  4  0
  8 10  4  0
  8 25  4  0
  9 15  4  0
  9 17  1  0
 10 21  4  0
 11 25  4  0
 12 23  4  0
 13 20  4  0
 13 26  4  0
 14 19  4  0
 17 18  4  0
 17 24  4  0
 19 23  4  0
 20 24  4  0
 23 26  1  0
M  END
$$$$

 Created by Python create_sdf_string function

 26 30  0  0  0  0  0  0  0  0999 V2000
   10.0084   -1.8019   23.4945 C   0  0  0  0  0  0  0  0  0  0  0  0
   10.0005   -4.2520   16.5631 C   0  0  0  0  0  0  0  0  0  0  0  0
   10.2759   -4.0036   17.8845 C   0  0  0  0  0  0  0  0  0  0  0  0
    8.5652    1.5478   25.3778 N   0  0  0  0  0  0  0  0  0  0  0  0
    6.8048   -7.5457   17.8752 C   0  0  0  0  0  0  0  0  0  0  0  0
    6.1721   -8.2186   15.9886 N   0  0  0  0  0  0  0  0  0  0  0  0
   11.1764   -2.6600   19.5604 C   0  0  0  0  0  0  0  0  0  0  0  0
    9.5491   -0.6380   24.1912 C   0  0  0  0  0  0  0  0  0  0  0  0
    7.5337   -6.9256   16.9519 C   0  0  0  0  0  0  0  0  0  0  0  0
    9.6782    0.5671   23.5143 C   0  0  0  0  0  0  0  0  0  0  0  0
    8.4532    0.3482   26.0821 C   0  0  0  0  0  0  0  0  0  0  0  0
   10.4239   -1.7677   22.2230 N   0  0  0  0  0  0  0  0  0  0  0  0
    9.9468   -4.5953   20.1709 C   0  0  0  0  0  0  0  0  0  0  0  0
   10.0366   -3.0590   23.9864 N   0  0  0  0  0  0  0  0  0  0  0  0
    7.1191   -7.3636   15.7739 C   0  0  0  0  0  0  0  0  0  0  0  0
    5.9612   -8.3203   17.2732 N   0  0  0  0  0  0  0  0  0  0  0  0
    8.5296   -5.9814   17.1841 C   0  0  0  0  0  0  0  0  0  0  0  0
    9.1527   -5.2118   16.2116 C   0  0  0  0  0  0  0  0  0  0  0  0
   10.3364   -3.8368   22.9255 O   0  0  0  0  0  0  0  0  0  0  0  0
    9.6947   -4.8407   18.8534 C   0  0  0  0  0  0  0  0  0  0  0  0
    9.1596    1.7042   24.1381 C   0  0  0  0  0  0  0  0  0  0  0  0
   11.0456   -2.9774   18.2694 N   0  0  0  0  0  0  0  0  0  0  0  0
   10.4788   -3.0457   21.8593 C   0  0  0  0  0  0  0  0  0  0  0  0
    8.8693   -5.8099   18.4657 N   0  0  0  0  0  0  0  0  0  0  0  0
    8.9892   -0.7926   25.4573 C   0  0  0  0  0  0  0  0  0  0  0  0
   10.5677   -3.4462   20.5323 C   0  0  0  0  0  0  0  0  0  0  0  0
  1  8  1  0
  1 12  4  0
  1 14  4  0
  2  3  4  0
  2 18  4  0
  3 20  4  0
  3 22  4  0
  4 11  4  0
  4 21  4  0
  5  9  4  0
  5 16  4  0
  6 15  4  0
  6 16  4  0
  7 22  4  0
  7 26  4  0
  8 10  4  0
  8 25  4  0
  9 15  4  0
  9 17  1  0
 10 21  4  0
 11 25  4  0
 12 23  4  0
 13 20  4  0
 13 26  4  0
 14 19  4  0
 17 18  4  0
 17 24  4  0
 19 23  4  0
 20 24  4  0
 23 26  1  0
M  END
$$$$

 Created by Python create_sdf_string function

 26 30  0  0  0  0  0  0  0  0999 V2000
   10.0084   -1.8019   23.4945 C   0  0  0  0  0  0  0  0  0  0  0  0
   10.0005   -4.2520   16.5631 C   0  0  0  0  0  0  0  0  0  0  0  0
   10.2759   -4.0036   17.8845 C   0  0  0  0  0  0  0  0  0  0  0  0
    8.5652    1.5478   25.3778 N   0  0  0  0  0  0  0  0  0  0  0  0
    6.8048   -7.5457   17.8752 C   0  0  0  0  0  0  0  0  0  0  0  0
    6.1721   -8.2186   15.9886 N   0  0  0  0  0  0  0  0  0  0  0  0
   11.1764   -2.6600   19.5604 C   0  0  0  0  0  0  0  0  0  0  0  0
    9.5491   -0.6380   24.1912 C   0  0  0  0  0  0  0  0  0  0  0  0
    7.5337   -6.9256   16.9519 C   0  0  0  0  0  0  0  0  0  0  0  0
    9.6782    0.5671   23.5143 C   0  0  0  0  0  0  0  0  0  0  0  0
    8.4532    0.3482   26.0821 C   0  0  0  0  0  0  0  0  0  0  0  0
   10.4239   -1.7677   22.2230 N   0  0  0  0  0  0  0  0  0  0  0  0
    9.9468   -4.5953   20.1709 C   0  0  0  0  0  0  0  0  0  0  0  0
   10.0366   -3.0590   23.9864 N   0  0  0  0  0  0  0  0  0  0  0  0
    7.1191   -7.3636   15.7739 C   0  0  0  0  0  0  0  0  0  0  0  0
    5.9612   -8.3203   17.2732 N   0  0  0  0  0  0  0  0  0  0  0  0
    8.5296   -5.9814   17.1841 C   0  0  0  0  0  0  0  0  0  0  0  0
    9.1527   -5.2118   16.2116 C   0  0  0  0  0  0  0  0  0  0  0  0
   10.3364   -3.8368   22.9255 O   0  0  0  0  0  0  0  0  0  0  0  0
    9.6947   -4.8407   18.8534 C   0  0  0  0  0  0  0  0  0  0  0  0
    9.1596    1.7042   24.1381 C   0  0  0  0  0  0  0  0  0  0  0  0
   11.0456   -2.9774   18.2694 N   0  0  0  0  0  0  0  0  0  0  0  0
   10.4788   -3.0457   21.8593 C   0  0  0  0  0  0  0  0  0  0  0  0
    8.8693   -5.8099   18.4657 N   0  0  0  0  0  0  0  0  0  0  0  0
    8.9892   -0.7926   25.4573 C   0  0  0  0  0  0  0  0  0  0  0  0
   10.5677   -3.4462   20.5323 C   0  0  0  0  0  0  0  0  0  0  0  0
  1  8  1  0
  1 12  4  0
  1 14  4  0
  2  3  4  0
  2 18  4  0
  3 20  4  0
  3 22  4  0
  4 11  4  0
  4 21  4  0
  5  9  4  0
  5 16  4  0
  6 15  4  0
  6 16  4  0
  7 22  4  0
  7 26  4  0
  8 10  4  0
  8 25  4  0
  9 15  4  0
  9 17  1  0
 10 21  4  0
 11 25  4  0
 12 23  4  0
 13 20  4  0
 13 26  4  0
 14 19  4  0
 17 18  4  0
 17 24  4  0
 19 23  4  0
 20 24  4  0
 23 26  1  0
M  END
$$$$

 Created by Python create_sdf_string function

 26 30  0  0  0  0  0  0  0  0999 V2000
   10.0084   -1.8019   23.4945 C   0  0  0  0  0  0  0  0  0  0  0  0
   10.0005   -4.2520   16.5631 C   0  0  0  0  0  0  0  0  0  0  0  0
   10.2759   -4.0036   17.8845 C   0  0  0  0  0  0  0  0  0  0  0  0
    8.5652    1.5478   25.3778 N   0  0  0  0  0  0  0  0  0  0  0  0
    6.8048   -7.5457   17.8752 C   0  0  0  0  0  0  0  0  0  0  0  0
    6.1721   -8.2186   15.9886 N   0  0  0  0  0  0  0  0  0  0  0  0
   11.1764   -2.6600   19.5604 C   0  0  0  0  0  0  0  0  0  0  0  0
    9.5491   -0.6380   24.1912 C   0  0  0  0  0  0  0  0  0  0  0  0
    7.5337   -6.9256   16.9519 C   0  0  0  0  0  0  0  0  0  0  0  0
    9.6782    0.5671   23.5143 C   0  0  0  0  0  0  0  0  0  0  0  0
    8.4532    0.3482   26.0821 C   0  0  0  0  0  0  0  0  0  0  0  0
   10.4239   -1.7677   22.2230 N   0  0  0  0  0  0  0  0  0  0  0  0
    9.9468   -4.5953   20.1709 C   0  0  0  0  0  0  0  0  0  0  0  0
   10.0366   -3.0590   23.9864 N   0  0  0  0  0  0  0  0  0  0  0  0
    7.1191   -7.3636   15.7739 C   0  0  0  0  0  0  0  0  0  0  0  0
    5.9612   -8.3203   17.2732 N   0  0  0  0  0  0  0  0  0  0  0  0
    8.5296   -5.9814   17.1841 C   0  0  0  0  0  0  0  0  0  0  0  0
    9.1527   -5.2118   16.2116 C   0  0  0  0  0  0  0  0  0  0  0  0
   10.3364   -3.8368   22.9255 O   0  0  0  0  0  0  0  0  0  0  0  0
    9.6947   -4.8407   18.8534 C   0  0  0  0  0  0  0  0  0  0  0  0
    9.1596    1.7042   24.1381 C   0  0  0  0  0  0  0  0  0  0  0  0
   11.0456   -2.9774   18.2694 N   0  0  0  0  0  0  0  0  0  0  0  0
   10.4788   -3.0457   21.8593 C   0  0  0  0  0  0  0  0  0  0  0  0
    8.8693   -5.8099   18.4657 N   0  0  0  0  0  0  0  0  0  0  0  0
    8.9892   -0.7926   25.4573 C   0  0  0  0  0  0  0  0  0  0  0  0
   10.5677   -3.4462   20.5323 C   0  0  0  0  0  0  0  0  0  0  0  0
  1  8  1  0
  1 12  4  0
  1 14  4  0
  2  3  4  0
  2 18  4  0
  3 20  4  0
  3 22  4  0
  4 11  4  0
  4 21  4  0
  5  9  4  0
  5 16  4  0
  6 15  4  0
  6 16  4  0
  7 22  4  0
  7 26  4  0
  8 10  4  0
  8 25  4  0
  9 15  4  0
  9 17  1  0
 10 21  4  0
 11 25  4  0
 12 23  4  0
 13 20  4  0
 13 26  4  0
 14 19  4  0
 17 18  4  0
 17 24  4  0
 19 23  4  0
 20 24  4  0
 23 26  1  0
M  END
$$$$

 Created by Python create_sdf_string function

 26 30  0  0  0  0  0  0  0  0999 V2000
   10.0084   -1.8019   23.4945 C   0  0  0  0  0  0  0  0  0  0  0  0
   10.0005   -4.2520   16.5631 C   0  0  0  0  0  0  0  0  0  0  0  0
   10.2759   -4.0036   17.8845 C   0  0  0  0  0  0  0  0  0  0  0  0
    8.5652    1.5478   25.3778 N   0  0  0  0  0  0  0  0  0  0  0  0
    6.8048   -7.5457   17.8752 C   0  0  0  0  0  0  0  0  0  0  0  0
    6.1721   -8.2186   15.9886 N   0  0  0  0  0  0  0  0  0  0  0  0
   11.1764   -2.6600   19.5604 C   0  0  0  0  0  0  0  0  0  0  0  0
    9.5491   -0.6380   24.1912 C   0  0  0  0  0  0  0  0  0  0  0  0
    7.5337   -6.9256   16.9519 C   0  0  0  0  0  0  0  0  0  0  0  0
    9.6782    0.5671   23.5143 C   0  0  0  0  0  0  0  0  0  0  0  0
    8.4532    0.3482   26.0821 C   0  0  0  0  0  0  0  0  0  0  0  0
   10.4239   -1.7677   22.2230 N   0  0  0  0  0  0  0  0  0  0  0  0
    9.9468   -4.5953   20.1709 C   0  0  0  0  0  0  0  0  0  0  0  0
   10.0366   -3.0590   23.9864 N   0  0  0  0  0  0  0  0  0  0  0  0
    7.1191   -7.3636   15.7739 C   0  0  0  0  0  0  0  0  0  0  0  0
    5.9612   -8.3203   17.2732 N   0  0  0  0  0  0  0  0  0  0  0  0
    8.5296   -5.9814   17.1841 C   0  0  0  0  0  0  0  0  0  0  0  0
    9.1527   -5.2118   16.2116 C   0  0  0  0  0  0  0  0  0  0  0  0
   10.3364   -3.8368   22.9255 O   0  0  0  0  0  0  0  0  0  0  0  0
    9.6947   -4.8407   18.8534 C   0  0  0  0  0  0  0  0  0  0  0  0
    9.1596    1.7042   24.1381 C   0  0  0  0  0  0  0  0  0  0  0  0
   11.0456   -2.9774   18.2694 N   0  0  0  0  0  0  0  0  0  0  0  0
   10.4788   -3.0457   21.8593 C   0  0  0  0  0  0  0  0  0  0  0  0
    8.8693   -5.8099   18.4657 N   0  0  0  0  0  0  0  0  0  0  0  0
    8.9892   -0.7926   25.4573 C   0  0  0  0  0  0  0  0  0  0  0  0
   10.5677   -3.4462   20.5323 C   0  0  0  0  0  0  0  0  0  0  0  0
  1  8  1  0
  1 12  4  0
  1 14  4  0
  2  3  4  0
  2 18  4  0
  3 20  4  0
  3 22  4  0
  4 11  4  0
  4 21  4  0
  5  9  4  0
  5 16  4  0
  6 15  4  0
  6 16  4  0
  7 22  4  0
  7 26  4  0
  8 10  4  0
  8 25  4  0
  9 15  4  0
  9 17  1  0
 10 21  4  0
 11 25  4  0
 12 23  4  0
 13 20  4  0
 13 26  4  0
 14 19  4  0
 17 18  4  0
 17 24  4  0
 19 23  4  0
 20 24  4  0
 23 26  1  0
M  END
$$$$

 Created by Python create_sdf_string function

 26 30  0  0  0  0  0  0  0  0999 V2000
   10.0084   -1.8019   23.4945 C   0  0  0  0  0  0  0  0  0  0  0  0
   10.0005   -4.2520   16.5631 C   0  0  0  0  0  0  0  0  0  0  0  0
   10.2759   -4.0036   17.8845 C   0  0  0  0  0  0  0  0  0  0  0  0
    8.5652    1.5478   25.3778 N   0  0  0  0  0  0  0  0  0  0  0  0
    6.8048   -7.5457   17.8752 C   0  0  0  0  0  0  0  0  0  0  0  0
    6.1721   -8.2186   15.9886 N   0  0  0  0  0  0  0  0  0  0  0  0
   11.1764   -2.6600   19.5604 C   0  0  0  0  0  0  0  0  0  0  0  0
    9.5491   -0.6380   24.1912 C   0  0  0  0  0  0  0  0  0  0  0  0
    7.5337   -6.9256   16.9519 C   0  0  0  0  0  0  0  0  0  0  0  0
    9.6782    0.5671   23.5143 C   0  0  0  0  0  0  0  0  0  0  0  0
    8.4532    0.3482   26.0821 C   0  0  0  0  0  0  0  0  0  0  0  0
   10.4239   -1.7677   22.2230 N   0  0  0  0  0  0  0  0  0  0  0  0
    9.9468   -4.5953   20.1709 C   0  0  0  0  0  0  0  0  0  0  0  0
   10.0366   -3.0590   23.9864 N   0  0  0  0  0  0  0  0  0  0  0  0
    7.1191   -7.3636   15.7739 C   0  0  0  0  0  0  0  0  0  0  0  0
    5.9612   -8.3203   17.2732 N   0  0  0  0  0  0  0  0  0  0  0  0
    8.5296   -5.9814   17.1841 C   0  0  0  0  0  0  0  0  0  0  0  0
    9.1527   -5.2118   16.2116 C   0  0  0  0  0  0  0  0  0  0  0  0
   10.3364   -3.8368   22.9255 O   0  0  0  0  0  0  0  0  0  0  0  0
    9.6947   -4.8407   18.8534 C   0  0  0  0  0  0  0  0  0  0  0  0
    9.1596    1.7042   24.1381 C   0  0  0  0  0  0  0  0  0  0  0  0
   11.0456   -2.9774   18.2694 N   0  0  0  0  0  0  0  0  0  0  0  0
   10.4788   -3.0457   21.8593 C   0  0  0  0  0  0  0  0  0  0  0  0
    8.8693   -5.8099   18.4657 N   0  0  0  0  0  0  0  0  0  0  0  0
    8.9892   -0.7926   25.4573 C   0  0  0  0  0  0  0  0  0  0  0  0
   10.5677   -3.4462   20.5323 C   0  0  0  0  0  0  0  0  0  0  0  0
  1  8  1  0
  1 12  4  0
  1 14  4  0
  2  3  4  0
  2 18  4  0
  3 20  4  0
  3 22  4  0
  4 11  4  0
  4 21  4  0
  5  9  4  0
  5 16  4  0
  6 15  4  0
  6 16  4  0
  7 22  4  0
  7 26  4  0
  8 10  4  0
  8 25  4  0
  9 15  4  0
  9 17  1  0
 10 21  4  0
 11 25  4  0
 12 23  4  0
 13 20  4  0
 13 26  4  0
 14 19  4  0
 17 18  4  0
 17 24  4  0
 19 23  4  0
 20 24  4  0
 23 26  1  0
M  END
$$$$

 Created by Python create_sdf_string function

 26 30  0  0  0  0  0  0  0  0999 V2000
   10.0084   -1.8019   23.4945 C   0  0  0  0  0  0  0  0  0  0  0  0
   10.0005   -4.2520   16.5631 C   0  0  0  0  0  0  0  0  0  0  0  0
   10.2759   -4.0036   17.8845 C   0  0  0  0  0  0  0  0  0  0  0  0
    8.5652    1.5478   25.3778 N   0  0  0  0  0  0  0  0  0  0  0  0
    6.8048   -7.5457   17.8752 C   0  0  0  0  0  0  0  0  0  0  0  0
    6.1721   -8.2186   15.9886 N   0  0  0  0  0  0  0  0  0  0  0  0
   11.1764   -2.6600   19.5604 C   0  0  0  0  0  0  0  0  0  0  0  0
    9.5491   -0.6380   24.1912 C   0  0  0  0  0  0  0  0  0  0  0  0
    7.5337   -6.9256   16.9519 C   0  0  0  0  0  0  0  0  0  0  0  0
    9.6782    0.5671   23.5143 C   0  0  0  0  0  0  0  0  0  0  0  0
    8.4532    0.3482   26.0821 C   0  0  0  0  0  0  0  0  0  0  0  0
   10.4239   -1.7677   22.2230 N   0  0  0  0  0  0  0  0  0  0  0  0
    9.9468   -4.5953   20.1709 C   0  0  0  0  0  0  0  0  0  0  0  0
   10.0366   -3.0590   23.9864 N   0  0  0  0  0  0  0  0  0  0  0  0
    7.1191   -7.3636   15.7739 C   0  0  0  0  0  0  0  0  0  0  0  0
    5.9612   -8.3203   17.2732 N   0  0  0  0  0  0  0  0  0  0  0  0
    8.5296   -5.9814   17.1841 C   0  0  0  0  0  0  0  0  0  0  0  0
    9.1527   -5.2118   16.2116 C   0  0  0  0  0  0  0  0  0  0  0  0
   10.3364   -3.8368   22.9255 O   0  0  0  0  0  0  0  0  0  0  0  0
    9.6947   -4.8407   18.8534 C   0  0  0  0  0  0  0  0  0  0  0  0
    9.1596    1.7042   24.1381 C   0  0  0  0  0  0  0  0  0  0  0  0
   11.0456   -2.9774   18.2694 N   0  0  0  0  0  0  0  0  0  0  0  0
   10.4788   -3.0457   21.8593 C   0  0  0  0  0  0  0  0  0  0  0  0
    8.8693   -5.8099   18.4657 N   0  0  0  0  0  0  0  0  0  0  0  0
    8.9892   -0.7926   25.4573 C   0  0  0  0  0  0  0  0  0  0  0  0
   10.5677   -3.4462   20.5323 C   0  0  0  0  0  0  0  0  0  0  0  0
  1  8  1  0
  1 12  4  0
  1 14  4  0
  2  3  4  0
  2 18  4  0
  3 20  4  0
  3 22  4  0
  4 11  4  0
  4 21  4  0
  5  9  4  0
  5 16  4  0
  6 15  4  0
  6 16  4  0
  7 22  4  0
  7 26  4  0
  8 10  4  0
  8 25  4  0
  9 15  4  0
  9 17  1  0
 10 21  4  0
 11 25  4  0
 12 23  4  0
 13 20  4  0
 13 26  4  0
 14 19  4  0
 17 18  4  0
 17 24  4  0
 19 23  4  0
 20 24  4  0
 23 26  1  0
M  END
$$$$

 Created by Python create_sdf_string function

 26 30  0  0  0  0  0  0  0  0999 V2000
   10.0084   -1.8019   23.4945 C   0  0  0  0  0  0  0  0  0  0  0  0
   10.0005   -4.2520   16.5631 C   0  0  0  0  0  0  0  0  0  0  0  0
   10.2759   -4.0036   17.8845 C   0  0  0  0  0  0  0  0  0  0  0  0
    8.5652    1.5478   25.3778 N   0  0  0  0  0  0  0  0  0  0  0  0
    6.8048   -7.5457   17.8752 C   0  0  0  0  0  0  0  0  0  0  0  0
    6.1721   -8.2186   15.9886 N   0  0  0  0  0  0  0  0  0  0  0  0
   11.1764   -2.6600   19.5604 C   0  0  0  0  0  0  0  0  0  0  0  0
    9.5491   -0.6380   24.1912 C   0  0  0  0  0  0  0  0  0  0  0  0
    7.5337   -6.9256   16.9519 C   0  0  0  0  0  0  0  0  0  0  0  0
    9.6782    0.5671   23.5143 C   0  0  0  0  0  0  0  0  0  0  0  0
    8.4532    0.3482   26.0821 C   0  0  0  0  0  0  0  0  0  0  0  0
   10.4239   -1.7677   22.2230 N   0  0  0  0  0  0  0  0  0  0  0  0
    9.9468   -4.5953   20.1709 C   0  0  0  0  0  0  0  0  0  0  0  0
   10.0366   -3.0590   23.9864 N   0  0  0  0  0  0  0  0  0  0  0  0
    7.1191   -7.3636   15.7739 C   0  0  0  0  0  0  0  0  0  0  0  0
    5.9612   -8.3203   17.2732 N   0  0  0  0  0  0  0  0  0  0  0  0
    8.5296   -5.9814   17.1841 C   0  0  0  0  0  0  0  0  0  0  0  0
    9.1527   -5.2118   16.2116 C   0  0  0  0  0  0  0  0  0  0  0  0
   10.3364   -3.8368   22.9255 O   0  0  0  0  0  0  0  0  0  0  0  0
    9.6947   -4.8407   18.8534 C   0  0  0  0  0  0  0  0  0  0  0  0
    9.1596    1.7042   24.1381 C   0  0  0  0  0  0  0  0  0  0  0  0
   11.0456   -2.9774   18.2694 N   0  0  0  0  0  0  0  0  0  0  0  0
   10.4788   -3.0457   21.8593 C   0  0  0  0  0  0  0  0  0  0  0  0
    8.8693   -5.8099   18.4657 N   0  0  0  0  0  0  0  0  0  0  0  0
    8.9892   -0.7926   25.4573 C   0  0  0  0  0  0  0  0  0  0  0  0
   10.5677   -3.4462   20.5323 C   0  0  0  0  0  0  0  0  0  0  0  0
  1  8  1  0
  1 12  4  0
  1 14  4  0
  2  3  4  0
  2 18  4  0
  3 20  4  0
  3 22  4  0
  4 11  4  0
  4 21  4  0
  5  9  4  0
  5 16  4  0
  6 15  4  0
  6 16  4  0
  7 22  4  0
  7 26  4  0
  8 10  4  0
  8 25  4  0
  9 15  4  0
  9 17  1  0
 10 21  4  0
 11 25  4  0
 12 23  4  0
 13 20  4  0
 13 26  4  0
 14 19  4  0
 17 18  4  0
 17 24  4  0
 19 23  4  0
 20 24  4  0
 23 26  1  0
M  END
$$$$

 Created by Python create_sdf_string function

 26 30  0  0  0  0  0  0  0  0999 V2000
   10.0084   -1.8019   23.4945 C   0  0  0  0  0  0  0  0  0  0  0  0
   10.0005   -4.2520   16.5631 C   0  0  0  0  0  0  0  0  0  0  0  0
   10.2759   -4.0036   17.8845 C   0  0  0  0  0  0  0  0  0  0  0  0
    8.5652    1.5478   25.3778 N   0  0  0  0  0  0  0  0  0  0  0  0
    6.8048   -7.5457   17.8752 C   0  0  0  0  0  0  0  0  0  0  0  0
    6.1721   -8.2186   15.9886 N   0  0  0  0  0  0  0  0  0  0  0  0
   11.1764   -2.6600   19.5604 C   0  0  0  0  0  0  0  0  0  0  0  0
    9.5491   -0.6380   24.1912 C   0  0  0  0  0  0  0  0  0  0  0  0
    7.5337   -6.9256   16.9519 C   0  0  0  0  0  0  0  0  0  0  0  0
    9.6782    0.5671   23.5143 C   0  0  0  0  0  0  0  0  0  0  0  0
    8.4532    0.3482   26.0821 C   0  0  0  0  0  0  0  0  0  0  0  0
   10.4239   -1.7677   22.2230 N   0  0  0  0  0  0  0  0  0  0  0  0
    9.9468   -4.5953   20.1709 C   0  0  0  0  0  0  0  0  0  0  0  0
   10.0366   -3.0590   23.9864 N   0  0  0  0  0  0  0  0  0  0  0  0
    7.1191   -7.3636   15.7739 C   0  0  0  0  0  0  0  0  0  0  0  0
    5.9612   -8.3203   17.2732 N   0  0  0  0  0  0  0  0  0  0  0  0
    8.5296   -5.9814   17.1841 C   0  0  0  0  0  0  0  0  0  0  0  0
    9.1527   -5.2118   16.2116 C   0  0  0  0  0  0  0  0  0  0  0  0
   10.3364   -3.8368   22.9255 O   0  0  0  0  0  0  0  0  0  0  0  0
    9.6947   -4.8407   18.8534 C   0  0  0  0  0  0  0  0  0  0  0  0
    9.1596    1.7042   24.1381 C   0  0  0  0  0  0  0  0  0  0  0  0
   11.0456   -2.9774   18.2694 N   0  0  0  0  0  0  0  0  0  0  0  0
   10.4788   -3.0457   21.8593 C   0  0  0  0  0  0  0  0  0  0  0  0
    8.8693   -5.8099   18.4657 N   0  0  0  0  0  0  0  0  0  0  0  0
    8.9892   -0.7926   25.4573 C   0  0  0  0  0  0  0  0  0  0  0  0
   10.5677   -3.4462   20.5323 C   0  0  0  0  0  0  0  0  0  0  0  0
  1  8  1  0
  1 12  4  0
  1 14  4  0
  2  3  4  0
  2 18  4  0
  3 20  4  0
  3 22  4  0
  4 11  4  0
  4 21  4  0
  5  9  4  0
  5 16  4  0
  6 15  4  0
  6 16  4  0
  7 22  4  0
  7 26  4  0
  8 10  4  0
  8 25  4  0
  9 15  4  0
  9 17  1  0
 10 21  4  0
 11 25  4  0
 12 23  4  0
 13 20  4  0
 13 26  4  0
 14 19  4  0
 17 18  4  0
 17 24  4  0
 19 23  4  0
 20 24  4  0
 23 26  1  0
M  END
$$$$

 Created by Python create_sdf_string function

 26 30  0  0  0  0  0  0  0  0999 V2000
   10.0084   -1.8019   23.4945 C   0  0  0  0  0  0  0  0  0  0  0  0
   10.0005   -4.2520   16.5631 C   0  0  0  0  0  0  0  0  0  0  0  0
   10.2759   -4.0036   17.8845 C   0  0  0  0  0  0  0  0  0  0  0  0
    8.5652    1.5478   25.3778 N   0  0  0  0  0  0  0  0  0  0  0  0
    6.8048   -7.5457   17.8752 C   0  0  0  0  0  0  0  0  0  0  0  0
    6.1721   -8.2186   15.9886 N   0  0  0  0  0  0  0  0  0  0  0  0
   11.1764   -2.6600   19.5604 C   0  0  0  0  0  0  0  0  0  0  0  0
    9.5491   -0.6380   24.1912 C   0  0  0  0  0  0  0  0  0  0  0  0
    7.5337   -6.9256   16.9519 C   0  0  0  0  0  0  0  0  0  0  0  0
    9.6782    0.5671   23.5143 C   0  0  0  0  0  0  0  0  0  0  0  0
    8.4532    0.3482   26.0821 C   0  0  0  0  0  0  0  0  0  0  0  0
   10.4239   -1.7677   22.2230 N   0  0  0  0  0  0  0  0  0  0  0  0
    9.9468   -4.5953   20.1709 C   0  0  0  0  0  0  0  0  0  0  0  0
   10.0366   -3.0590   23.9864 N   0  0  0  0  0  0  0  0  0  0  0  0
    7.1191   -7.3636   15.7739 C   0  0  0  0  0  0  0  0  0  0  0  0
    5.9612   -8.3203   17.2732 N   0  0  0  0  0  0  0  0  0  0  0  0
    8.5296   -5.9814   17.1841 C   0  0  0  0  0  0  0  0  0  0  0  0
    9.1527   -5.2118   16.2116 C   0  0  0  0  0  0  0  0  0  0  0  0
   10.3364   -3.8368   22.9255 O   0  0  0  0  0  0  0  0  0  0  0  0
    9.6947   -4.8407   18.8534 C   0  0  0  0  0  0  0  0  0  0  0  0
    9.1596    1.7042   24.1381 C   0  0  0  0  0  0  0  0  0  0  0  0
   11.0456   -2.9774   18.2694 N   0  0  0  0  0  0  0  0  0  0  0  0
   10.4788   -3.0457   21.8593 C   0  0  0  0  0  0  0  0  0  0  0  0
    8.8693   -5.8099   18.4657 N   0  0  0  0  0  0  0  0  0  0  0  0
    8.9892   -0.7926   25.4573 C   0  0  0  0  0  0  0  0  0  0  0  0
   10.5677   -3.4462   20.5323 C   0  0  0  0  0  0  0  0  0  0  0  0
  1  8  1  0
  1 12  4  0
  1 14  4  0
  2  3  4  0
  2 18  4  0
  3 20  4  0
  3 22  4  0
  4 11  4  0
  4 21  4  0
  5  9  4  0
  5 16  4  0
  6 15  4  0
  6 16  4  0
  7 22  4  0
  7 26  4  0
  8 10  4  0
  8 25  4  0
  9 15  4  0
  9 17  1  0
 10 21  4  0
 11 25  4  0
 12 23  4  0
 13 20  4  0
 13 26  4  0
 14 19  4  0
 17 18  4  0
 17 24  4  0
 19 23  4  0
 20 24  4  0
 23 26  1  0
M  END
$$$$

 Created by Python create_sdf_string function

 26 30  0  0  0  0  0  0  0  0999 V2000
   10.0084   -1.8019   23.4945 C   0  0  0  0  0  0  0  0  0  0  0  0
   10.0005   -4.2520   16.5631 C   0  0  0  0  0  0  0  0  0  0  0  0
   10.2759   -4.0036   17.8845 C   0  0  0  0  0  0  0  0  0  0  0  0
    8.5652    1.5478   25.3778 N   0  0  0  0  0  0  0  0  0  0  0  0
    6.8048   -7.5457   17.8752 C   0  0  0  0  0  0  0  0  0  0  0  0
    6.1721   -8.2186   15.9886 N   0  0  0  0  0  0  0  0  0  0  0  0
   11.1764   -2.6600   19.5604 C   0  0  0  0  0  0  0  0  0  0  0  0
    9.5491   -0.6380   24.1912 C   0  0  0  0  0  0  0  0  0  0  0  0
    7.5337   -6.9256   16.9519 C   0  0  0  0  0  0  0  0  0  0  0  0
    9.6782    0.5671   23.5143 C   0  0  0  0  0  0  0  0  0  0  0  0
    8.4532    0.3482   26.0821 C   0  0  0  0  0  0  0  0  0  0  0  0
   10.4239   -1.7677   22.2230 N   0  0  0  0  0  0  0  0  0  0  0  0
    9.9468   -4.5953   20.1709 C   0  0  0  0  0  0  0  0  0  0  0  0
   10.0366   -3.0590   23.9864 N   0  0  0  0  0  0  0  0  0  0  0  0
    7.1191   -7.3636   15.7739 C   0  0  0  0  0  0  0  0  0  0  0  0
    5.9612   -8.3203   17.2732 N   0  0  0  0  0  0  0  0  0  0  0  0
    8.5296   -5.9814   17.1841 C   0  0  0  0  0  0  0  0  0  0  0  0
    9.1527   -5.2118   16.2116 C   0  0  0  0  0  0  0  0  0  0  0  0
   10.3364   -3.8368   22.9255 O   0  0  0  0  0  0  0  0  0  0  0  0
    9.6947   -4.8407   18.8534 C   0  0  0  0  0  0  0  0  0  0  0  0
    9.1596    1.7042   24.1381 C   0  0  0  0  0  0  0  0  0  0  0  0
   11.0456   -2.9774   18.2694 N   0  0  0  0  0  0  0  0  0  0  0  0
   10.4788   -3.0457   21.8593 C   0  0  0  0  0  0  0  0  0  0  0  0
    8.8693   -5.8099   18.4657 N   0  0  0  0  0  0  0  0  0  0  0  0
    8.9892   -0.7926   25.4573 C   0  0  0  0  0  0  0  0  0  0  0  0
   10.5677   -3.4462   20.5323 C   0  0  0  0  0  0  0  0  0  0  0  0
  1  8  1  0
  1 12  4  0
  1 14  4  0
  2  3  4  0
  2 18  4  0
  3 20  4  0
  3 22  4  0
  4 11  4  0
  4 21  4  0
  5  9  4  0
  5 16  4  0
  6 15  4  0
  6 16  4  0
  7 22  4  0
  7 26  4  0
  8 10  4  0
  8 25  4  0
  9 15  4  0
  9 17  1  0
 10 21  4  0
 11 25  4  0
 12 23  4  0
 13 20  4  0
 13 26  4  0
 14 19  4  0
 17 18  4  0
 17 24  4  0
 19 23  4  0
 20 24  4  0
 23 26  1  0
M  END
$$$$

 Created by Python create_sdf_string function

 26 30  0  0  0  0  0  0  0  0999 V2000
   10.0084   -1.8019   23.4945 C   0  0  0  0  0  0  0  0  0  0  0  0
   10.0005   -4.2520   16.5631 C   0  0  0  0  0  0  0  0  0  0  0  0
   10.2759   -4.0036   17.8845 C   0  0  0  0  0  0  0  0  0  0  0  0
    8.5652    1.5478   25.3778 N   0  0  0  0  0  0  0  0  0  0  0  0
    6.8048   -7.5457   17.8752 C   0  0  0  0  0  0  0  0  0  0  0  0
    6.1721   -8.2186   15.9886 N   0  0  0  0  0  0  0  0  0  0  0  0
   11.1764   -2.6600   19.5604 C   0  0  0  0  0  0  0  0  0  0  0  0
    9.5491   -0.6380   24.1912 C   0  0  0  0  0  0  0  0  0  0  0  0
    7.5337   -6.9256   16.9519 C   0  0  0  0  0  0  0  0  0  0  0  0
    9.6782    0.5671   23.5143 C   0  0  0  0  0  0  0  0  0  0  0  0
    8.4532    0.3482   26.0821 C   0  0  0  0  0  0  0  0  0  0  0  0
   10.4239   -1.7677   22.2230 N   0  0  0  0  0  0  0  0  0  0  0  0
    9.9468   -4.5953   20.1709 C   0  0  0  0  0  0  0  0  0  0  0  0
   10.0366   -3.0590   23.9864 N   0  0  0  0  0  0  0  0  0  0  0  0
    7.1191   -7.3636   15.7739 C   0  0  0  0  0  0  0  0  0  0  0  0
    5.9612   -8.3203   17.2732 N   0  0  0  0  0  0  0  0  0  0  0  0
    8.5296   -5.9814   17.1841 C   0  0  0  0  0  0  0  0  0  0  0  0
    9.1527   -5.2118   16.2116 C   0  0  0  0  0  0  0  0  0  0  0  0
   10.3364   -3.8368   22.9255 O   0  0  0  0  0  0  0  0  0  0  0  0
    9.6947   -4.8407   18.8534 C   0  0  0  0  0  0  0  0  0  0  0  0
    9.1596    1.7042   24.1381 C   0  0  0  0  0  0  0  0  0  0  0  0
   11.0456   -2.9774   18.2694 N   0  0  0  0  0  0  0  0  0  0  0  0
   10.4788   -3.0457   21.8593 C   0  0  0  0  0  0  0  0  0  0  0  0
    8.8693   -5.8099   18.4657 N   0  0  0  0  0  0  0  0  0  0  0  0
    8.9892   -0.7926   25.4573 C   0  0  0  0  0  0  0  0  0  0  0  0
   10.5677   -3.4462   20.5323 C   0  0  0  0  0  0  0  0  0  0  0  0
  1  8  1  0
  1 12  4  0
  1 14  4  0
  2  3  4  0
  2 18  4  0
  3 20  4  0
  3 22  4  0
  4 11  4  0
  4 21  4  0
  5  9  4  0
  5 16  4  0
  6 15  4  0
  6 16  4  0
  7 22  4  0
  7 26  4  0
  8 10  4  0
  8 25  4  0
  9 15  4  0
  9 17  1  0
 10 21  4  0
 11 25  4  0
 12 23  4  0
 13 20  4  0
 13 26  4  0
 14 19  4  0
 17 18  4  0
 17 24  4  0
 19 23  4  0
 20 24  4  0
 23 26  1  0
M  END
$$$$

 Created by Python create_sdf_string function

 26 30  0  0  0  0  0  0  0  0999 V2000
   10.0084   -1.8019   23.4945 C   0  0  0  0  0  0  0  0  0  0  0  0
   10.0005   -4.2520   16.5631 C   0  0  0  0  0  0  0  0  0  0  0  0
   10.2759   -4.0036   17.8845 C   0  0  0  0  0  0  0  0  0  0  0  0
    8.5652    1.5478   25.3778 N   0  0  0  0  0  0  0  0  0  0  0  0
    6.8048   -7.5457   17.8752 C   0  0  0  0  0  0  0  0  0  0  0  0
    6.1721   -8.2186   15.9886 N   0  0  0  0  0  0  0  0  0  0  0  0
   11.1764   -2.6600   19.5604 C   0  0  0  0  0  0  0  0  0  0  0  0
    9.5491   -0.6380   24.1912 C   0  0  0  0  0  0  0  0  0  0  0  0
    7.5337   -6.9256   16.9519 C   0  0  0  0  0  0  0  0  0  0  0  0
    9.6782    0.5671   23.5143 C   0  0  0  0  0  0  0  0  0  0  0  0
    8.4532    0.3482   26.0821 C   0  0  0  0  0  0  0  0  0  0  0  0
   10.4239   -1.7677   22.2230 N   0  0  0  0  0  0  0  0  0  0  0  0
    9.9468   -4.5953   20.1709 C   0  0  0  0  0  0  0  0  0  0  0  0
   10.0366   -3.0590   23.9864 N   0  0  0  0  0  0  0  0  0  0  0  0
    7.1191   -7.3636   15.7739 C   0  0  0  0  0  0  0  0  0  0  0  0
    5.9612   -8.3203   17.2732 N   0  0  0  0  0  0  0  0  0  0  0  0
    8.5296   -5.9814   17.1841 C   0  0  0  0  0  0  0  0  0  0  0  0
    9.1527   -5.2118   16.2116 C   0  0  0  0  0  0  0  0  0  0  0  0
   10.3364   -3.8368   22.9255 O   0  0  0  0  0  0  0  0  0  0  0  0
    9.6947   -4.8407   18.8534 C   0  0  0  0  0  0  0  0  0  0  0  0
    9.1596    1.7042   24.1381 C   0  0  0  0  0  0  0  0  0  0  0  0
   11.0456   -2.9774   18.2694 N   0  0  0  0  0  0  0  0  0  0  0  0
   10.4788   -3.0457   21.8593 C   0  0  0  0  0  0  0  0  0  0  0  0
    8.8693   -5.8099   18.4657 N   0  0  0  0  0  0  0  0  0  0  0  0
    8.9892   -0.7926   25.4573 C   0  0  0  0  0  0  0  0  0  0  0  0
   10.5677   -3.4462   20.5323 C   0  0  0  0  0  0  0  0  0  0  0  0
  1  8  1  0
  1 12  4  0
  1 14  4  0
  2  3  4  0
  2 18  4  0
  3 20  4  0
  3 22  4  0
  4 11  4  0
  4 21  4  0
  5  9  4  0
  5 16  4  0
  6 15  4  0
  6 16  4  0
  7 22  4  0
  7 26  4  0
  8 10  4  0
  8 25  4  0
  9 15  4  0
  9 17  1  0
 10 21  4  0
 11 25  4  0
 12 23  4  0
 13 20  4  0
 13 26  4  0
 14 19  4  0
 17 18  4  0
 17 24  4  0
 19 23  4  0
 20 24  4  0
 23 26  1  0
M  END
$$$$

 Created by Python create_sdf_string function

 26 30  0  0  0  0  0  0  0  0999 V2000
   10.0084   -1.8019   23.4945 C   0  0  0  0  0  0  0  0  0  0  0  0
   10.0005   -4.2520   16.5631 C   0  0  0  0  0  0  0  0  0  0  0  0
   10.2759   -4.0036   17.8845 C   0  0  0  0  0  0  0  0  0  0  0  0
    8.5652    1.5478   25.3778 N   0  0  0  0  0  0  0  0  0  0  0  0
    6.8048   -7.5457   17.8752 C   0  0  0  0  0  0  0  0  0  0  0  0
    6.1721   -8.2186   15.9886 N   0  0  0  0  0  0  0  0  0  0  0  0
   11.1764   -2.6600   19.5604 C   0  0  0  0  0  0  0  0  0  0  0  0
    9.5491   -0.6380   24.1912 C   0  0  0  0  0  0  0  0  0  0  0  0
    7.5337   -6.9256   16.9519 C   0  0  0  0  0  0  0  0  0  0  0  0
    9.6782    0.5671   23.5143 C   0  0  0  0  0  0  0  0  0  0  0  0
    8.4532    0.3482   26.0821 C   0  0  0  0  0  0  0  0  0  0  0  0
   10.4239   -1.7677   22.2230 N   0  0  0  0  0  0  0  0  0  0  0  0
    9.9468   -4.5953   20.1709 C   0  0  0  0  0  0  0  0  0  0  0  0
   10.0366   -3.0590   23.9864 N   0  0  0  0  0  0  0  0  0  0  0  0
    7.1191   -7.3636   15.7739 C   0  0  0  0  0  0  0  0  0  0  0  0
    5.9612   -8.3203   17.2732 N   0  0  0  0  0  0  0  0  0  0  0  0
    8.5296   -5.9814   17.1841 C   0  0  0  0  0  0  0  0  0  0  0  0
    9.1527   -5.2118   16.2116 C   0  0  0  0  0  0  0  0  0  0  0  0
   10.3364   -3.8368   22.9255 O   0  0  0  0  0  0  0  0  0  0  0  0
    9.6947   -4.8407   18.8534 C   0  0  0  0  0  0  0  0  0  0  0  0
    9.1596    1.7042   24.1381 C   0  0  0  0  0  0  0  0  0  0  0  0
   11.0456   -2.9774   18.2694 N   0  0  0  0  0  0  0  0  0  0  0  0
   10.4788   -3.0457   21.8593 C   0  0  0  0  0  0  0  0  0  0  0  0
    8.8693   -5.8099   18.4657 N   0  0  0  0  0  0  0  0  0  0  0  0
    8.9892   -0.7926   25.4573 C   0  0  0  0  0  0  0  0  0  0  0  0
   10.5677   -3.4462   20.5323 C   0  0  0  0  0  0  0  0  0  0  0  0
  1  8  1  0
  1 12  4  0
  1 14  4  0
  2  3  4  0
  2 18  4  0
  3 20  4  0
  3 22  4  0
  4 11  4  0
  4 21  4  0
  5  9  4  0
  5 16  4  0
  6 15  4  0
  6 16  4  0
  7 22  4  0
  7 26  4  0
  8 10  4  0
  8 25  4  0
  9 15  4  0
  9 17  1  0
 10 21  4  0
 11 25  4  0
 12 23  4  0
 13 20  4  0
 13 26  4  0
 14 19  4  0
 17 18  4  0
 17 24  4  0
 19 23  4  0
 20 24  4  0
 23 26  1  0
M  END
$$$$

 Created by Python create_sdf_string function

 26 30  0  0  0  0  0  0  0  0999 V2000
   10.0084   -1.8019   23.4945 C   0  0  0  0  0  0  0  0  0  0  0  0
   10.0005   -4.2520   16.5631 C   0  0  0  0  0  0  0  0  0  0  0  0
   10.2759   -4.0036   17.8845 C   0  0  0  0  0  0  0  0  0  0  0  0
    8.5652    1.5478   25.3778 N   0  0  0  0  0  0  0  0  0  0  0  0
    6.8048   -7.5457   17.8752 C   0  0  0  0  0  0  0  0  0  0  0  0
    6.1721   -8.2186   15.9886 N   0  0  0  0  0  0  0  0  0  0  0  0
   11.1764   -2.6600   19.5604 C   0  0  0  0  0  0  0  0  0  0  0  0
    9.5491   -0.6380   24.1912 C   0  0  0  0  0  0  0  0  0  0  0  0
    7.5337   -6.9256   16.9519 C   0  0  0  0  0  0  0  0  0  0  0  0
    9.6782    0.5671   23.5143 C   0  0  0  0  0  0  0  0  0  0  0  0
    8.4532    0.3482   26.0821 C   0  0  0  0  0  0  0  0  0  0  0  0
   10.4239   -1.7677   22.2230 N   0  0  0  0  0  0  0  0  0  0  0  0
    9.9468   -4.5953   20.1709 C   0  0  0  0  0  0  0  0  0  0  0  0
   10.0366   -3.0590   23.9864 N   0  0  0  0  0  0  0  0  0  0  0  0
    7.1191   -7.3636   15.7739 C   0  0  0  0  0  0  0  0  0  0  0  0
    5.9612   -8.3203   17.2732 N   0  0  0  0  0  0  0  0  0  0  0  0
    8.5296   -5.9814   17.1841 C   0  0  0  0  0  0  0  0  0  0  0  0
    9.1527   -5.2118   16.2116 C   0  0  0  0  0  0  0  0  0  0  0  0
   10.3364   -3.8368   22.9255 O   0  0  0  0  0  0  0  0  0  0  0  0
    9.6947   -4.8407   18.8534 C   0  0  0  0  0  0  0  0  0  0  0  0
    9.1596    1.7042   24.1381 C   0  0  0  0  0  0  0  0  0  0  0  0
   11.0456   -2.9774   18.2694 N   0  0  0  0  0  0  0  0  0  0  0  0
   10.4788   -3.0457   21.8593 C   0  0  0  0  0  0  0  0  0  0  0  0
    8.8693   -5.8099   18.4657 N   0  0  0  0  0  0  0  0  0  0  0  0
    8.9892   -0.7926   25.4573 C   0  0  0  0  0  0  0  0  0  0  0  0
   10.5677   -3.4462   20.5323 C   0  0  0  0  0  0  0  0  0  0  0  0
  1  8  1  0
  1 12  4  0
  1 14  4  0
  2  3  4  0
  2 18  4  0
  3 20  4  0
  3 22  4  0
  4 11  4  0
  4 21  4  0
  5  9  4  0
  5 16  4  0
  6 15  4  0
  6 16  4  0
  7 22  4  0
  7 26  4  0
  8 10  4  0
  8 25  4  0
  9 15  4  0
  9 17  1  0
 10 21  4  0
 11 25  4  0
 12 23  4  0
 13 20  4  0
 13 26  4  0
 14 19  4  0
 17 18  4  0
 17 24  4  0
 19 23  4  0
 20 24  4  0
 23 26  1  0
M  END
$$$$

 Created by Python create_sdf_string function

 26 30  0  0  0  0  0  0  0  0999 V2000
   10.0084   -1.8019   23.4945 C   0  0  0  0  0  0  0  0  0  0  0  0
   10.0005   -4.2520   16.5631 C   0  0  0  0  0  0  0  0  0  0  0  0
   10.2759   -4.0036   17.8845 C   0  0  0  0  0  0  0  0  0  0  0  0
    8.5652    1.5478   25.3778 N   0  0  0  0  0  0  0  0  0  0  0  0
    6.8048   -7.5457   17.8752 C   0  0  0  0  0  0  0  0  0  0  0  0
    6.1721   -8.2186   15.9886 N   0  0  0  0  0  0  0  0  0  0  0  0
   11.1764   -2.6600   19.5604 C   0  0  0  0  0  0  0  0  0  0  0  0
    9.5491   -0.6380   24.1912 C   0  0  0  0  0  0  0  0  0  0  0  0
    7.5337   -6.9256   16.9519 C   0  0  0  0  0  0  0  0  0  0  0  0
    9.6782    0.5671   23.5143 C   0  0  0  0  0  0  0  0  0  0  0  0
    8.4532    0.3482   26.0821 C   0  0  0  0  0  0  0  0  0  0  0  0
   10.4239   -1.7677   22.2230 N   0  0  0  0  0  0  0  0  0  0  0  0
    9.9468   -4.5953   20.1709 C   0  0  0  0  0  0  0  0  0  0  0  0
   10.0366   -3.0590   23.9864 N   0  0  0  0  0  0  0  0  0  0  0  0
    7.1191   -7.3636   15.7739 C   0  0  0  0  0  0  0  0  0  0  0  0
    5.9612   -8.3203   17.2732 N   0  0  0  0  0  0  0  0  0  0  0  0
    8.5296   -5.9814   17.1841 C   0  0  0  0  0  0  0  0  0  0  0  0
    9.1527   -5.2118   16.2116 C   0  0  0  0  0  0  0  0  0  0  0  0
   10.3364   -3.8368   22.9255 O   0  0  0  0  0  0  0  0  0  0  0  0
    9.6947   -4.8407   18.8534 C   0  0  0  0  0  0  0  0  0  0  0  0
    9.1596    1.7042   24.1381 C   0  0  0  0  0  0  0  0  0  0  0  0
   11.0456   -2.9774   18.2694 N   0  0  0  0  0  0  0  0  0  0  0  0
   10.4788   -3.0457   21.8593 C   0  0  0  0  0  0  0  0  0  0  0  0
    8.8693   -5.8099   18.4657 N   0  0  0  0  0  0  0  0  0  0  0  0
    8.9892   -0.7926   25.4573 C   0  0  0  0  0  0  0  0  0  0  0  0
   10.5677   -3.4462   20.5323 C   0  0  0  0  0  0  0  0  0  0  0  0
  1  8  1  0
  1 12  4  0
  1 14  4  0
  2  3  4  0
  2 18  4  0
  3 20  4  0
  3 22  4  0
  4 11  4  0
  4 21  4  0
  5  9  4  0
  5 16  4  0
  6 15  4  0
  6 16  4  0
  7 22  4  0
  7 26  4  0
  8 10  4  0
  8 25  4  0
  9 15  4  0
  9 17  1  0
 10 21  4  0
 11 25  4  0
 12 23  4  0
 13 20  4  0
 13 26  4  0
 14 19  4  0
 17 18  4  0
 17 24  4  0
 19 23  4  0
 20 24  4  0
 23 26  1  0
M  END
$$$$

 Created by Python create_sdf_string function

 26 30  0  0  0  0  0  0  0  0999 V2000
   10.0084   -1.8019   23.4945 C   0  0  0  0  0  0  0  0  0  0  0  0
   10.0005   -4.2520   16.5631 C   0  0  0  0  0  0  0  0  0  0  0  0
   10.2759   -4.0036   17.8845 C   0  0  0  0  0  0  0  0  0  0  0  0
    8.5652    1.5478   25.3778 N   0  0  0  0  0  0  0  0  0  0  0  0
    6.8048   -7.5457   17.8752 C   0  0  0  0  0  0  0  0  0  0  0  0
    6.1721   -8.2186   15.9886 N   0  0  0  0  0  0  0  0  0  0  0  0
   11.1764   -2.6600   19.5604 C   0  0  0  0  0  0  0  0  0  0  0  0
    9.5491   -0.6380   24.1912 C   0  0  0  0  0  0  0  0  0  0  0  0
    7.5337   -6.9256   16.9519 C   0  0  0  0  0  0  0  0  0  0  0  0
    9.6782    0.5671   23.5143 C   0  0  0  0  0  0  0  0  0  0  0  0
    8.4532    0.3482   26.0821 C   0  0  0  0  0  0  0  0  0  0  0  0
   10.4239   -1.7677   22.2230 N   0  0  0  0  0  0  0  0  0  0  0  0
    9.9468   -4.5953   20.1709 C   0  0  0  0  0  0  0  0  0  0  0  0
   10.0366   -3.0590   23.9864 N   0  0  0  0  0  0  0  0  0  0  0  0
    7.1191   -7.3636   15.7739 C   0  0  0  0  0  0  0  0  0  0  0  0
    5.9612   -8.3203   17.2732 N   0  0  0  0  0  0  0  0  0  0  0  0
    8.5296   -5.9814   17.1841 C   0  0  0  0  0  0  0  0  0  0  0  0
    9.1527   -5.2118   16.2116 C   0  0  0  0  0  0  0  0  0  0  0  0
   10.3364   -3.8368   22.9255 O   0  0  0  0  0  0  0  0  0  0  0  0
    9.6947   -4.8407   18.8534 C   0  0  0  0  0  0  0  0  0  0  0  0
    9.1596    1.7042   24.1381 C   0  0  0  0  0  0  0  0  0  0  0  0
   11.0456   -2.9774   18.2694 N   0  0  0  0  0  0  0  0  0  0  0  0
   10.4788   -3.0457   21.8593 C   0  0  0  0  0  0  0  0  0  0  0  0
    8.8693   -5.8099   18.4657 N   0  0  0  0  0  0  0  0  0  0  0  0
    8.9892   -0.7926   25.4573 C   0  0  0  0  0  0  0  0  0  0  0  0
   10.5677   -3.4462   20.5323 C   0  0  0  0  0  0  0  0  0  0  0  0
  1  8  1  0
  1 12  4  0
  1 14  4  0
  2  3  4  0
  2 18  4  0
  3 20  4  0
  3 22  4  0
  4 11  4  0
  4 21  4  0
  5  9  4  0
  5 16  4  0
  6 15  4  0
  6 16  4  0
  7 22  4  0
  7 26  4  0
  8 10  4  0
  8 25  4  0
  9 15  4  0
  9 17  1  0
 10 21  4  0
 11 25  4  0
 12 23  4  0
 13 20  4  0
 13 26  4  0
 14 19  4  0
 17 18  4  0
 17 24  4  0
 19 23  4  0
 20 24  4  0
 23 26  1  0
M  END
$$$$

 Created by Python create_sdf_string function

 26 30  0  0  0  0  0  0  0  0999 V2000
   10.0084   -1.8019   23.4945 C   0  0  0  0  0  0  0  0  0  0  0  0
   10.0005   -4.2520   16.5631 C   0  0  0  0  0  0  0  0  0  0  0  0
   10.2759   -4.0036   17.8845 C   0  0  0  0  0  0  0  0  0  0  0  0
    8.5652    1.5478   25.3778 N   0  0  0  0  0  0  0  0  0  0  0  0
    6.8048   -7.5457   17.8752 C   0  0  0  0  0  0  0  0  0  0  0  0
    6.1721   -8.2186   15.9886 N   0  0  0  0  0  0  0  0  0  0  0  0
   11.1764   -2.6600   19.5604 C   0  0  0  0  0  0  0  0  0  0  0  0
    9.5491   -0.6380   24.1912 C   0  0  0  0  0  0  0  0  0  0  0  0
    7.5337   -6.9256   16.9519 C   0  0  0  0  0  0  0  0  0  0  0  0
    9.6782    0.5671   23.5143 C   0  0  0  0  0  0  0  0  0  0  0  0
    8.4532    0.3482   26.0821 C   0  0  0  0  0  0  0  0  0  0  0  0
   10.4239   -1.7677   22.2230 N   0  0  0  0  0  0  0  0  0  0  0  0
    9.9468   -4.5953   20.1709 C   0  0  0  0  0  0  0  0  0  0  0  0
   10.0366   -3.0590   23.9864 N   0  0  0  0  0  0  0  0  0  0  0  0
    7.1191   -7.3636   15.7739 C   0  0  0  0  0  0  0  0  0  0  0  0
    5.9612   -8.3203   17.2732 N   0  0  0  0  0  0  0  0  0  0  0  0
    8.5296   -5.9814   17.1841 C   0  0  0  0  0  0  0  0  0  0  0  0
    9.1527   -5.2118   16.2116 C   0  0  0  0  0  0  0  0  0  0  0  0
   10.3364   -3.8368   22.9255 O   0  0  0  0  0  0  0  0  0  0  0  0
    9.6947   -4.8407   18.8534 C   0  0  0  0  0  0  0  0  0  0  0  0
    9.1596    1.7042   24.1381 C   0  0  0  0  0  0  0  0  0  0  0  0
   11.0456   -2.9774   18.2694 N   0  0  0  0  0  0  0  0  0  0  0  0
   10.4788   -3.0457   21.8593 C   0  0  0  0  0  0  0  0  0  0  0  0
    8.8693   -5.8099   18.4657 N   0  0  0  0  0  0  0  0  0  0  0  0
    8.9892   -0.7926   25.4573 C   0  0  0  0  0  0  0  0  0  0  0  0
   10.5677   -3.4462   20.5323 C   0  0  0  0  0  0  0  0  0  0  0  0
  1  8  1  0
  1 12  4  0
  1 14  4  0
  2  3  4  0
  2 18  4  0
  3 20  4  0
  3 22  4  0
  4 11  4  0
  4 21  4  0
  5  9  4  0
  5 16  4  0
  6 15  4  0
  6 16  4  0
  7 22  4  0
  7 26  4  0
  8 10  4  0
  8 25  4  0
  9 15  4  0
  9 17  1  0
 10 21  4  0
 11 25  4  0
 12 23  4  0
 13 20  4  0
 13 26  4  0
 14 19  4  0
 17 18  4  0
 17 24  4  0
 19 23  4  0
 20 24  4  0
 23 26  1  0
M  END
$$$$

 Created by Python create_sdf_string function

 26 30  0  0  0  0  0  0  0  0999 V2000
   10.0084   -1.8019   23.4945 C   0  0  0  0  0  0  0  0  0  0  0  0
   10.0005   -4.2520   16.5631 C   0  0  0  0  0  0  0  0  0  0  0  0
   10.2759   -4.0036   17.8845 C   0  0  0  0  0  0  0  0  0  0  0  0
    8.5652    1.5478   25.3778 N   0  0  0  0  0  0  0  0  0  0  0  0
    6.8048   -7.5457   17.8752 C   0  0  0  0  0  0  0  0  0  0  0  0
    6.1721   -8.2186   15.9886 N   0  0  0  0  0  0  0  0  0  0  0  0
   11.1764   -2.6600   19.5604 C   0  0  0  0  0  0  0  0  0  0  0  0
    9.5491   -0.6380   24.1912 C   0  0  0  0  0  0  0  0  0  0  0  0
    7.5337   -6.9256   16.9519 C   0  0  0  0  0  0  0  0  0  0  0  0
    9.6782    0.5671   23.5143 C   0  0  0  0  0  0  0  0  0  0  0  0
    8.4532    0.3482   26.0821 C   0  0  0  0  0  0  0  0  0  0  0  0
   10.4239   -1.7677   22.2230 N   0  0  0  0  0  0  0  0  0  0  0  0
    9.9468   -4.5953   20.1709 C   0  0  0  0  0  0  0  0  0  0  0  0
   10.0366   -3.0590   23.9864 N   0  0  0  0  0  0  0  0  0  0  0  0
    7.1191   -7.3636   15.7739 C   0  0  0  0  0  0  0  0  0  0  0  0
    5.9612   -8.3203   17.2732 N   0  0  0  0  0  0  0  0  0  0  0  0
    8.5296   -5.9814   17.1841 C   0  0  0  0  0  0  0  0  0  0  0  0
    9.1527   -5.2118   16.2116 C   0  0  0  0  0  0  0  0  0  0  0  0
   10.3364   -3.8368   22.9255 O   0  0  0  0  0  0  0  0  0  0  0  0
    9.6947   -4.8407   18.8534 C   0  0  0  0  0  0  0  0  0  0  0  0
    9.1596    1.7042   24.1381 C   0  0  0  0  0  0  0  0  0  0  0  0
   11.0456   -2.9774   18.2694 N   0  0  0  0  0  0  0  0  0  0  0  0
   10.4788   -3.0457   21.8593 C   0  0  0  0  0  0  0  0  0  0  0  0
    8.8693   -5.8099   18.4657 N   0  0  0  0  0  0  0  0  0  0  0  0
    8.9892   -0.7926   25.4573 C   0  0  0  0  0  0  0  0  0  0  0  0
   10.5677   -3.4462   20.5323 C   0  0  0  0  0  0  0  0  0  0  0  0
  1  8  1  0
  1 12  4  0
  1 14  4  0
  2  3  4  0
  2 18  4  0
  3 20  4  0
  3 22  4  0
  4 11  4  0
  4 21  4  0
  5  9  4  0
  5 16  4  0
  6 15  4  0
  6 16  4  0
  7 22  4  0
  7 26  4  0
  8 10  4  0
  8 25  4  0
  9 15  4  0
  9 17  1  0
 10 21  4  0
 11 25  4  0
 12 23  4  0
 13 20  4  0
 13 26  4  0
 14 19  4  0
 17 18  4  0
 17 24  4  0
 19 23  4  0
 20 24  4  0
 23 26  1  0
M  END
$$$$

 Created by Python create_sdf_string function

 26 30  0  0  0  0  0  0  0  0999 V2000
   10.0084   -1.8019   23.4945 C   0  0  0  0  0  0  0  0  0  0  0  0
   10.0005   -4.2520   16.5631 C   0  0  0  0  0  0  0  0  0  0  0  0
   10.2759   -4.0036   17.8845 C   0  0  0  0  0  0  0  0  0  0  0  0
    8.5652    1.5478   25.3778 N   0  0  0  0  0  0  0  0  0  0  0  0
    6.8048   -7.5457   17.8752 C   0  0  0  0  0  0  0  0  0  0  0  0
    6.1721   -8.2186   15.9886 N   0  0  0  0  0  0  0  0  0  0  0  0
   11.1764   -2.6600   19.5604 C   0  0  0  0  0  0  0  0  0  0  0  0
    9.5491   -0.6380   24.1912 C   0  0  0  0  0  0  0  0  0  0  0  0
    7.5337   -6.9256   16.9519 C   0  0  0  0  0  0  0  0  0  0  0  0
    9.6782    0.5671   23.5143 C   0  0  0  0  0  0  0  0  0  0  0  0
    8.4532    0.3482   26.0821 C   0  0  0  0  0  0  0  0  0  0  0  0
   10.4239   -1.7677   22.2230 N   0  0  0  0  0  0  0  0  0  0  0  0
    9.9468   -4.5953   20.1709 C   0  0  0  0  0  0  0  0  0  0  0  0
   10.0366   -3.0590   23.9864 N   0  0  0  0  0  0  0  0  0  0  0  0
    7.1191   -7.3636   15.7739 C   0  0  0  0  0  0  0  0  0  0  0  0
    5.9612   -8.3203   17.2732 N   0  0  0  0  0  0  0  0  0  0  0  0
    8.5296   -5.9814   17.1841 C   0  0  0  0  0  0  0  0  0  0  0  0
    9.1527   -5.2118   16.2116 C   0  0  0  0  0  0  0  0  0  0  0  0
   10.3364   -3.8368   22.9255 O   0  0  0  0  0  0  0  0  0  0  0  0
    9.6947   -4.8407   18.8534 C   0  0  0  0  0  0  0  0  0  0  0  0
    9.1596    1.7042   24.1381 C   0  0  0  0  0  0  0  0  0  0  0  0
   11.0456   -2.9774   18.2694 N   0  0  0  0  0  0  0  0  0  0  0  0
   10.4788   -3.0457   21.8593 C   0  0  0  0  0  0  0  0  0  0  0  0
    8.8693   -5.8099   18.4657 N   0  0  0  0  0  0  0  0  0  0  0  0
    8.9892   -0.7926   25.4573 C   0  0  0  0  0  0  0  0  0  0  0  0
   10.5677   -3.4462   20.5323 C   0  0  0  0  0  0  0  0  0  0  0  0
  1  8  1  0
  1 12  4  0
  1 14  4  0
  2  3  4  0
  2 18  4  0
  3 20  4  0
  3 22  4  0
  4 11  4  0
  4 21  4  0
  5  9  4  0
  5 16  4  0
  6 15  4  0
  6 16  4  0
  7 22  4  0
  7 26  4  0
  8 10  4  0
  8 25  4  0
  9 15  4  0
  9 17  1  0
 10 21  4  0
 11 25  4  0
 12 23  4  0
 13 20  4  0
 13 26  4  0
 14 19  4  0
 17 18  4  0
 17 24  4  0
 19 23  4  0
 20 24  4  0
 23 26  1  0
M  END
$$$$

 Created by Python create_sdf_string function

 26 30  0  0  0  0  0  0  0  0999 V2000
   10.0084   -1.8019   23.4945 C   0  0  0  0  0  0  0  0  0  0  0  0
   10.0005   -4.2520   16.5631 C   0  0  0  0  0  0  0  0  0  0  0  0
   10.2759   -4.0036   17.8845 C   0  0  0  0  0  0  0  0  0  0  0  0
    8.5652    1.5478   25.3778 N   0  0  0  0  0  0  0  0  0  0  0  0
    6.8048   -7.5457   17.8752 C   0  0  0  0  0  0  0  0  0  0  0  0
    6.1721   -8.2186   15.9886 N   0  0  0  0  0  0  0  0  0  0  0  0
   11.1764   -2.6600   19.5604 C   0  0  0  0  0  0  0  0  0  0  0  0
    9.5491   -0.6380   24.1912 C   0  0  0  0  0  0  0  0  0  0  0  0
    7.5337   -6.9256   16.9519 C   0  0  0  0  0  0  0  0  0  0  0  0
    9.6782    0.5671   23.5143 C   0  0  0  0  0  0  0  0  0  0  0  0
    8.4532    0.3482   26.0821 C   0  0  0  0  0  0  0  0  0  0  0  0
   10.4239   -1.7677   22.2230 N   0  0  0  0  0  0  0  0  0  0  0  0
    9.9468   -4.5953   20.1709 C   0  0  0  0  0  0  0  0  0  0  0  0
   10.0366   -3.0590   23.9864 N   0  0  0  0  0  0  0  0  0  0  0  0
    7.1191   -7.3636   15.7739 C   0  0  0  0  0  0  0  0  0  0  0  0
    5.9612   -8.3203   17.2732 N   0  0  0  0  0  0  0  0  0  0  0  0
    8.5296   -5.9814   17.1841 C   0  0  0  0  0  0  0  0  0  0  0  0
    9.1527   -5.2118   16.2116 C   0  0  0  0  0  0  0  0  0  0  0  0
   10.3364   -3.8368   22.9255 O   0  0  0  0  0  0  0  0  0  0  0  0
    9.6947   -4.8407   18.8534 C   0  0  0  0  0  0  0  0  0  0  0  0
    9.1596    1.7042   24.1381 C   0  0  0  0  0  0  0  0  0  0  0  0
   11.0456   -2.9774   18.2694 N   0  0  0  0  0  0  0  0  0  0  0  0
   10.4788   -3.0457   21.8593 C   0  0  0  0  0  0  0  0  0  0  0  0
    8.8693   -5.8099   18.4657 N   0  0  0  0  0  0  0  0  0  0  0  0
    8.9892   -0.7926   25.4573 C   0  0  0  0  0  0  0  0  0  0  0  0
   10.5677   -3.4462   20.5323 C   0  0  0  0  0  0  0  0  0  0  0  0
  1  8  1  0
  1 12  4  0
  1 14  4  0
  2  3  4  0
  2 18  4  0
  3 20  4  0
  3 22  4  0
  4 11  4  0
  4 21  4  0
  5  9  4  0
  5 16  4  0
  6 15  4  0
  6 16  4  0
  7 22  4  0
  7 26  4  0
  8 10  4  0
  8 25  4  0
  9 15  4  0
  9 17  1  0
 10 21  4  0
 11 25  4  0
 12 23  4  0
 13 20  4  0
 13 26  4  0
 14 19  4  0
 17 18  4  0
 17 24  4  0
 19 23  4  0
 20 24  4  0
 23 26  1  0
M  END
$$$$

 Created by Python create_sdf_string function

 26 30  0  0  0  0  0  0  0  0999 V2000
   10.0084   -1.8019   23.4945 C   0  0  0  0  0  0  0  0  0  0  0  0
   10.0005   -4.2520   16.5631 C   0  0  0  0  0  0  0  0  0  0  0  0
   10.2759   -4.0036   17.8845 C   0  0  0  0  0  0  0  0  0  0  0  0
    8.5652    1.5478   25.3778 N   0  0  0  0  0  0  0  0  0  0  0  0
    6.8048   -7.5457   17.8752 C   0  0  0  0  0  0  0  0  0  0  0  0
    6.1721   -8.2186   15.9886 N   0  0  0  0  0  0  0  0  0  0  0  0
   11.1764   -2.6600   19.5604 C   0  0  0  0  0  0  0  0  0  0  0  0
    9.5491   -0.6380   24.1912 C   0  0  0  0  0  0  0  0  0  0  0  0
    7.5337   -6.9256   16.9519 C   0  0  0  0  0  0  0  0  0  0  0  0
    9.6782    0.5671   23.5143 C   0  0  0  0  0  0  0  0  0  0  0  0
    8.4532    0.3482   26.0821 C   0  0  0  0  0  0  0  0  0  0  0  0
   10.4239   -1.7677   22.2230 N   0  0  0  0  0  0  0  0  0  0  0  0
    9.9468   -4.5953   20.1709 C   0  0  0  0  0  0  0  0  0  0  0  0
   10.0366   -3.0590   23.9864 N   0  0  0  0  0  0  0  0  0  0  0  0
    7.1191   -7.3636   15.7739 C   0  0  0  0  0  0  0  0  0  0  0  0
    5.9612   -8.3203   17.2732 N   0  0  0  0  0  0  0  0  0  0  0  0
    8.5296   -5.9814   17.1841 C   0  0  0  0  0  0  0  0  0  0  0  0
    9.1527   -5.2118   16.2116 C   0  0  0  0  0  0  0  0  0  0  0  0
   10.3364   -3.8368   22.9255 O   0  0  0  0  0  0  0  0  0  0  0  0
    9.6947   -4.8407   18.8534 C   0  0  0  0  0  0  0  0  0  0  0  0
    9.1596    1.7042   24.1381 C   0  0  0  0  0  0  0  0  0  0  0  0
   11.0456   -2.9774   18.2694 N   0  0  0  0  0  0  0  0  0  0  0  0
   10.4788   -3.0457   21.8593 C   0  0  0  0  0  0  0  0  0  0  0  0
    8.8693   -5.8099   18.4657 N   0  0  0  0  0  0  0  0  0  0  0  0
    8.9892   -0.7926   25.4573 C   0  0  0  0  0  0  0  0  0  0  0  0
   10.5677   -3.4462   20.5323 C   0  0  0  0  0  0  0  0  0  0  0  0
  1  8  1  0
  1 12  4  0
  1 14  4  0
  2  3  4  0
  2 18  4  0
  3 20  4  0
  3 22  4  0
  4 11  4  0
  4 21  4  0
  5  9  4  0
  5 16  4  0
  6 15  4  0
  6 16  4  0
  7 22  4  0
  7 26  4  0
  8 10  4  0
  8 25  4  0
  9 15  4  0
  9 17  1  0
 10 21  4  0
 11 25  4  0
 12 23  4  0
 13 20  4  0
 13 26  4  0
 14 19  4  0
 17 18  4  0
 17 24  4  0
 19 23  4  0
 20 24  4  0
 23 26  1  0
M  END
$$$$

 Created by Python create_sdf_string function

 26 30  0  0  0  0  0  0  0  0999 V2000
   10.0084   -1.8019   23.4945 C   0  0  0  0  0  0  0  0  0  0  0  0
   10.0005   -4.2520   16.5631 C   0  0  0  0  0  0  0  0  0  0  0  0
   10.2759   -4.0036   17.8845 C   0  0  0  0  0  0  0  0  0  0  0  0
    8.5652    1.5478   25.3778 N   0  0  0  0  0  0  0  0  0  0  0  0
    6.8048   -7.5457   17.8752 C   0  0  0  0  0  0  0  0  0  0  0  0
    6.1721   -8.2186   15.9886 N   0  0  0  0  0  0  0  0  0  0  0  0
   11.1764   -2.6600   19.5604 C   0  0  0  0  0  0  0  0  0  0  0  0
    9.5491   -0.6380   24.1912 C   0  0  0  0  0  0  0  0  0  0  0  0
    7.5337   -6.9256   16.9519 C   0  0  0  0  0  0  0  0  0  0  0  0
    9.6782    0.5671   23.5143 C   0  0  0  0  0  0  0  0  0  0  0  0
    8.4532    0.3482   26.0821 C   0  0  0  0  0  0  0  0  0  0  0  0
   10.4239   -1.7677   22.2230 N   0  0  0  0  0  0  0  0  0  0  0  0
    9.9468   -4.5953   20.1709 C   0  0  0  0  0  0  0  0  0  0  0  0
   10.0366   -3.0590   23.9864 N   0  0  0  0  0  0  0  0  0  0  0  0
    7.1191   -7.3636   15.7739 C   0  0  0  0  0  0  0  0  0  0  0  0
    5.9612   -8.3203   17.2732 N   0  0  0  0  0  0  0  0  0  0  0  0
    8.5296   -5.9814   17.1841 C   0  0  0  0  0  0  0  0  0  0  0  0
    9.1527   -5.2118   16.2116 C   0  0  0  0  0  0  0  0  0  0  0  0
   10.3364   -3.8368   22.9255 O   0  0  0  0  0  0  0  0  0  0  0  0
    9.6947   -4.8407   18.8534 C   0  0  0  0  0  0  0  0  0  0  0  0
    9.1596    1.7042   24.1381 C   0  0  0  0  0  0  0  0  0  0  0  0
   11.0456   -2.9774   18.2694 N   0  0  0  0  0  0  0  0  0  0  0  0
   10.4788   -3.0457   21.8593 C   0  0  0  0  0  0  0  0  0  0  0  0
    8.8693   -5.8099   18.4657 N   0  0  0  0  0  0  0  0  0  0  0  0
    8.9892   -0.7926   25.4573 C   0  0  0  0  0  0  0  0  0  0  0  0
   10.5677   -3.4462   20.5323 C   0  0  0  0  0  0  0  0  0  0  0  0
  1  8  1  0
  1 12  4  0
  1 14  4  0
  2  3  4  0
  2 18  4  0
  3 20  4  0
  3 22  4  0
  4 11  4  0
  4 21  4  0
  5  9  4  0
  5 16  4  0
  6 15  4  0
  6 16  4  0
  7 22  4  0
  7 26  4  0
  8 10  4  0
  8 25  4  0
  9 15  4  0
  9 17  1  0
 10 21  4  0
 11 25  4  0
 12 23  4  0
 13 20  4  0
 13 26  4  0
 14 19  4  0
 17 18  4  0
 17 24  4  0
 19 23  4  0
 20 24  4  0
 23 26  1  0
M  END
$$$$

 Created by Python create_sdf_string function

 26 30  0  0  0  0  0  0  0  0999 V2000
   10.0084   -1.8019   23.4945 C   0  0  0  0  0  0  0  0  0  0  0  0
   10.0005   -4.2520   16.5631 C   0  0  0  0  0  0  0  0  0  0  0  0
   10.2759   -4.0036   17.8845 C   0  0  0  0  0  0  0  0  0  0  0  0
    8.5652    1.5478   25.3778 N   0  0  0  0  0  0  0  0  0  0  0  0
    6.8048   -7.5457   17.8752 C   0  0  0  0  0  0  0  0  0  0  0  0
    6.1721   -8.2186   15.9886 N   0  0  0  0  0  0  0  0  0  0  0  0
   11.1764   -2.6600   19.5604 C   0  0  0  0  0  0  0  0  0  0  0  0
    9.5491   -0.6380   24.1912 C   0  0  0  0  0  0  0  0  0  0  0  0
    7.5337   -6.9256   16.9519 C   0  0  0  0  0  0  0  0  0  0  0  0
    9.6782    0.5671   23.5143 C   0  0  0  0  0  0  0  0  0  0  0  0
    8.4532    0.3482   26.0821 C   0  0  0  0  0  0  0  0  0  0  0  0
   10.4239   -1.7677   22.2230 N   0  0  0  0  0  0  0  0  0  0  0  0
    9.9468   -4.5953   20.1709 C   0  0  0  0  0  0  0  0  0  0  0  0
   10.0366   -3.0590   23.9864 N   0  0  0  0  0  0  0  0  0  0  0  0
    7.1191   -7.3636   15.7739 C   0  0  0  0  0  0  0  0  0  0  0  0
    5.9612   -8.3203   17.2732 N   0  0  0  0  0  0  0  0  0  0  0  0
    8.5296   -5.9814   17.1841 C   0  0  0  0  0  0  0  0  0  0  0  0
    9.1527   -5.2118   16.2116 C   0  0  0  0  0  0  0  0  0  0  0  0
   10.3364   -3.8368   22.9255 O   0  0  0  0  0  0  0  0  0  0  0  0
    9.6947   -4.8407   18.8534 C   0  0  0  0  0  0  0  0  0  0  0  0
    9.1596    1.7042   24.1381 C   0  0  0  0  0  0  0  0  0  0  0  0
   11.0456   -2.9774   18.2694 N   0  0  0  0  0  0  0  0  0  0  0  0
   10.4788   -3.0457   21.8593 C   0  0  0  0  0  0  0  0  0  0  0  0
    8.8693   -5.8099   18.4657 N   0  0  0  0  0  0  0  0  0  0  0  0
    8.9892   -0.7926   25.4573 C   0  0  0  0  0  0  0  0  0  0  0  0
   10.5677   -3.4462   20.5323 C   0  0  0  0  0  0  0  0  0  0  0  0
  1  8  1  0
  1 12  4  0
  1 14  4  0
  2  3  4  0
  2 18  4  0
  3 20  4  0
  3 22  4  0
  4 11  4  0
  4 21  4  0
  5  9  4  0
  5 16  4  0
  6 15  4  0
  6 16  4  0
  7 22  4  0
  7 26  4  0
  8 10  4  0
  8 25  4  0
  9 15  4  0
  9 17  1  0
 10 21  4  0
 11 25  4  0
 12 23  4  0
 13 20  4  0
 13 26  4  0
 14 19  4  0
 17 18  4  0
 17 24  4  0
 19 23  4  0
 20 24  4  0
 23 26  1  0
M  END
$$$$

 Created by Python create_sdf_string function

 26 30  0  0  0  0  0  0  0  0999 V2000
   10.0084   -1.8019   23.4945 C   0  0  0  0  0  0  0  0  0  0  0  0
   10.0005   -4.2520   16.5631 C   0  0  0  0  0  0  0  0  0  0  0  0
   10.2759   -4.0036   17.8845 C   0  0  0  0  0  0  0  0  0  0  0  0
    8.5652    1.5478   25.3778 N   0  0  0  0  0  0  0  0  0  0  0  0
    6.8048   -7.5457   17.8752 C   0  0  0  0  0  0  0  0  0  0  0  0
    6.1721   -8.2186   15.9886 N   0  0  0  0  0  0  0  0  0  0  0  0
   11.1764   -2.6600   19.5604 C   0  0  0  0  0  0  0  0  0  0  0  0
    9.5491   -0.6380   24.1912 C   0  0  0  0  0  0  0  0  0  0  0  0
    7.5337   -6.9256   16.9519 C   0  0  0  0  0  0  0  0  0  0  0  0
    9.6782    0.5671   23.5143 C   0  0  0  0  0  0  0  0  0  0  0  0
    8.4532    0.3482   26.0821 C   0  0  0  0  0  0  0  0  0  0  0  0
   10.4239   -1.7677   22.2230 N   0  0  0  0  0  0  0  0  0  0  0  0
    9.9468   -4.5953   20.1709 C   0  0  0  0  0  0  0  0  0  0  0  0
   10.0366   -3.0590   23.9864 N   0  0  0  0  0  0  0  0  0  0  0  0
    7.1191   -7.3636   15.7739 C   0  0  0  0  0  0  0  0  0  0  0  0
    5.9612   -8.3203   17.2732 N   0  0  0  0  0  0  0  0  0  0  0  0
    8.5296   -5.9814   17.1841 C   0  0  0  0  0  0  0  0  0  0  0  0
    9.1527   -5.2118   16.2116 C   0  0  0  0  0  0  0  0  0  0  0  0
   10.3364   -3.8368   22.9255 O   0  0  0  0  0  0  0  0  0  0  0  0
    9.6947   -4.8407   18.8534 C   0  0  0  0  0  0  0  0  0  0  0  0
    9.1596    1.7042   24.1381 C   0  0  0  0  0  0  0  0  0  0  0  0
   11.0456   -2.9774   18.2694 N   0  0  0  0  0  0  0  0  0  0  0  0
   10.4788   -3.0457   21.8593 C   0  0  0  0  0  0  0  0  0  0  0  0
    8.8693   -5.8099   18.4657 N   0  0  0  0  0  0  0  0  0  0  0  0
    8.9892   -0.7926   25.4573 C   0  0  0  0  0  0  0  0  0  0  0  0
   10.5677   -3.4462   20.5323 C   0  0  0  0  0  0  0  0  0  0  0  0
  1  8  1  0
  1 12  4  0
  1 14  4  0
  2  3  4  0
  2 18  4  0
  3 20  4  0
  3 22  4  0
  4 11  4  0
  4 21  4  0
  5  9  4  0
  5 16  4  0
  6 15  4  0
  6 16  4  0
  7 22  4  0
  7 26  4  0
  8 10  4  0
  8 25  4  0
  9 15  4  0
  9 17  1  0
 10 21  4  0
 11 25  4  0
 12 23  4  0
 13 20  4  0
 13 26  4  0
 14 19  4  0
 17 18  4  0
 17 24  4  0
 19 23  4  0
 20 24  4  0
 23 26  1  0
M  END
$$$$

 Created by Python create_sdf_string function

 26 30  0  0  0  0  0  0  0  0999 V2000
   10.0084   -1.8019   23.4945 C   0  0  0  0  0  0  0  0  0  0  0  0
   10.0005   -4.2520   16.5631 C   0  0  0  0  0  0  0  0  0  0  0  0
   10.2759   -4.0036   17.8845 C   0  0  0  0  0  0  0  0  0  0  0  0
    8.5652    1.5478   25.3778 N   0  0  0  0  0  0  0  0  0  0  0  0
    6.8048   -7.5457   17.8752 C   0  0  0  0  0  0  0  0  0  0  0  0
    6.1721   -8.2186   15.9886 N   0  0  0  0  0  0  0  0  0  0  0  0
   11.1764   -2.6600   19.5604 C   0  0  0  0  0  0  0  0  0  0  0  0
    9.5491   -0.6380   24.1912 C   0  0  0  0  0  0  0  0  0  0  0  0
    7.5337   -6.9256   16.9519 C   0  0  0  0  0  0  0  0  0  0  0  0
    9.6782    0.5671   23.5143 C   0  0  0  0  0  0  0  0  0  0  0  0
    8.4532    0.3482   26.0821 C   0  0  0  0  0  0  0  0  0  0  0  0
   10.4239   -1.7677   22.2230 N   0  0  0  0  0  0  0  0  0  0  0  0
    9.9468   -4.5953   20.1709 C   0  0  0  0  0  0  0  0  0  0  0  0
   10.0366   -3.0590   23.9864 N   0  0  0  0  0  0  0  0  0  0  0  0
    7.1191   -7.3636   15.7739 C   0  0  0  0  0  0  0  0  0  0  0  0
    5.9612   -8.3203   17.2732 N   0  0  0  0  0  0  0  0  0  0  0  0
    8.5296   -5.9814   17.1841 C   0  0  0  0  0  0  0  0  0  0  0  0
    9.1527   -5.2118   16.2116 C   0  0  0  0  0  0  0  0  0  0  0  0
   10.3364   -3.8368   22.9255 O   0  0  0  0  0  0  0  0  0  0  0  0
    9.6947   -4.8407   18.8534 C   0  0  0  0  0  0  0  0  0  0  0  0
    9.1596    1.7042   24.1381 C   0  0  0  0  0  0  0  0  0  0  0  0
   11.0456   -2.9774   18.2694 N   0  0  0  0  0  0  0  0  0  0  0  0
   10.4788   -3.0457   21.8593 C   0  0  0  0  0  0  0  0  0  0  0  0
    8.8693   -5.8099   18.4657 N   0  0  0  0  0  0  0  0  0  0  0  0
    8.9892   -0.7926   25.4573 C   0  0  0  0  0  0  0  0  0  0  0  0
   10.5677   -3.4462   20.5323 C   0  0  0  0  0  0  0  0  0  0  0  0
  1  8  1  0
  1 12  4  0
  1 14  4  0
  2  3  4  0
  2 18  4  0
  3 20  4  0
  3 22  4  0
  4 11  4  0
  4 21  4  0
  5  9  4  0
  5 16  4  0
  6 15  4  0
  6 16  4  0
  7 22  4  0
  7 26  4  0
  8 10  4  0
  8 25  4  0
  9 15  4  0
  9 17  1  0
 10 21  4  0
 11 25  4  0
 12 23  4  0
 13 20  4  0
 13 26  4  0
 14 19  4  0
 17 18  4  0
 17 24  4  0
 19 23  4  0
 20 24  4  0
 23 26  1  0
M  END
$$$$

 Created by Python create_sdf_string function

 26 30  0  0  0  0  0  0  0  0999 V2000
   10.0084   -1.8019   23.4945 C   0  0  0  0  0  0  0  0  0  0  0  0
   10.0005   -4.2520   16.5631 C   0  0  0  0  0  0  0  0  0  0  0  0
   10.2759   -4.0036   17.8845 C   0  0  0  0  0  0  0  0  0  0  0  0
    8.5652    1.5478   25.3778 N   0  0  0  0  0  0  0  0  0  0  0  0
    6.8048   -7.5457   17.8752 C   0  0  0  0  0  0  0  0  0  0  0  0
    6.1721   -8.2186   15.9886 N   0  0  0  0  0  0  0  0  0  0  0  0
   11.1764   -2.6600   19.5604 C   0  0  0  0  0  0  0  0  0  0  0  0
    9.5491   -0.6380   24.1912 C   0  0  0  0  0  0  0  0  0  0  0  0
    7.5337   -6.9256   16.9519 C   0  0  0  0  0  0  0  0  0  0  0  0
    9.6782    0.5671   23.5143 C   0  0  0  0  0  0  0  0  0  0  0  0
    8.4532    0.3482   26.0821 C   0  0  0  0  0  0  0  0  0  0  0  0
   10.4239   -1.7677   22.2230 N   0  0  0  0  0  0  0  0  0  0  0  0
    9.9468   -4.5953   20.1709 C   0  0  0  0  0  0  0  0  0  0  0  0
   10.0366   -3.0590   23.9864 N   0  0  0  0  0  0  0  0  0  0  0  0
    7.1191   -7.3636   15.7739 C   0  0  0  0  0  0  0  0  0  0  0  0
    5.9612   -8.3203   17.2732 N   0  0  0  0  0  0  0  0  0  0  0  0
    8.5296   -5.9814   17.1841 C   0  0  0  0  0  0  0  0  0  0  0  0
    9.1527   -5.2118   16.2116 C   0  0  0  0  0  0  0  0  0  0  0  0
   10.3364   -3.8368   22.9255 O   0  0  0  0  0  0  0  0  0  0  0  0
    9.6947   -4.8407   18.8534 C   0  0  0  0  0  0  0  0  0  0  0  0
    9.1596    1.7042   24.1381 C   0  0  0  0  0  0  0  0  0  0  0  0
   11.0456   -2.9774   18.2694 N   0  0  0  0  0  0  0  0  0  0  0  0
   10.4788   -3.0457   21.8593 C   0  0  0  0  0  0  0  0  0  0  0  0
    8.8693   -5.8099   18.4657 N   0  0  0  0  0  0  0  0  0  0  0  0
    8.9892   -0.7926   25.4573 C   0  0  0  0  0  0  0  0  0  0  0  0
   10.5677   -3.4462   20.5323 C   0  0  0  0  0  0  0  0  0  0  0  0
  1  8  1  0
  1 12  4  0
  1 14  4  0
  2  3  4  0
  2 18  4  0
  3 20  4  0
  3 22  4  0
  4 11  4  0
  4 21  4  0
  5  9  4  0
  5 16  4  0
  6 15  4  0
  6 16  4  0
  7 22  4  0
  7 26  4  0
  8 10  4  0
  8 25  4  0
  9 15  4  0
  9 17  1  0
 10 21  4  0
 11 25  4  0
 12 23  4  0
 13 20  4  0
 13 26  4  0
 14 19  4  0
 17 18  4  0
 17 24  4  0
 19 23  4  0
 20 24  4  0
 23 26  1  0
M  END
$$$$

 Created by Python create_sdf_string function

 26 30  0  0  0  0  0  0  0  0999 V2000
   10.0084   -1.8019   23.4945 C   0  0  0  0  0  0  0  0  0  0  0  0
   10.0005   -4.2520   16.5631 C   0  0  0  0  0  0  0  0  0  0  0  0
   10.2759   -4.0036   17.8845 C   0  0  0  0  0  0  0  0  0  0  0  0
    8.5652    1.5478   25.3778 N   0  0  0  0  0  0  0  0  0  0  0  0
    6.8048   -7.5457   17.8752 C   0  0  0  0  0  0  0  0  0  0  0  0
    6.1721   -8.2186   15.9886 N   0  0  0  0  0  0  0  0  0  0  0  0
   11.1764   -2.6600   19.5604 C   0  0  0  0  0  0  0  0  0  0  0  0
    9.5491   -0.6380   24.1912 C   0  0  0  0  0  0  0  0  0  0  0  0
    7.5337   -6.9256   16.9519 C   0  0  0  0  0  0  0  0  0  0  0  0
    9.6782    0.5671   23.5143 C   0  0  0  0  0  0  0  0  0  0  0  0
    8.4532    0.3482   26.0821 C   0  0  0  0  0  0  0  0  0  0  0  0
   10.4239   -1.7677   22.2230 N   0  0  0  0  0  0  0  0  0  0  0  0
    9.9468   -4.5953   20.1709 C   0  0  0  0  0  0  0  0  0  0  0  0
   10.0366   -3.0590   23.9864 N   0  0  0  0  0  0  0  0  0  0  0  0
    7.1191   -7.3636   15.7739 C   0  0  0  0  0  0  0  0  0  0  0  0
    5.9612   -8.3203   17.2732 N   0  0  0  0  0  0  0  0  0  0  0  0
    8.5296   -5.9814   17.1841 C   0  0  0  0  0  0  0  0  0  0  0  0
    9.1527   -5.2118   16.2116 C   0  0  0  0  0  0  0  0  0  0  0  0
   10.3364   -3.8368   22.9255 O   0  0  0  0  0  0  0  0  0  0  0  0
    9.6947   -4.8407   18.8534 C   0  0  0  0  0  0  0  0  0  0  0  0
    9.1596    1.7042   24.1381 C   0  0  0  0  0  0  0  0  0  0  0  0
   11.0456   -2.9774   18.2694 N   0  0  0  0  0  0  0  0  0  0  0  0
   10.4788   -3.0457   21.8593 C   0  0  0  0  0  0  0  0  0  0  0  0
    8.8693   -5.8099   18.4657 N   0  0  0  0  0  0  0  0  0  0  0  0
    8.9892   -0.7926   25.4573 C   0  0  0  0  0  0  0  0  0  0  0  0
   10.5677   -3.4462   20.5323 C   0  0  0  0  0  0  0  0  0  0  0  0
  1  8  1  0
  1 12  4  0
  1 14  4  0
  2  3  4  0
  2 18  4  0
  3 20  4  0
  3 22  4  0
  4 11  4  0
  4 21  4  0
  5  9  4  0
  5 16  4  0
  6 15  4  0
  6 16  4  0
  7 22  4  0
  7 26  4  0
  8 10  4  0
  8 25  4  0
  9 15  4  0
  9 17  1  0
 10 21  4  0
 11 25  4  0
 12 23  4  0
 13 20  4  0
 13 26  4  0
 14 19  4  0
 17 18  4  0
 17 24  4  0
 19 23  4  0
 20 24  4  0
 23 26  1  0
M  END
$$$$

 Created by Python create_sdf_string function

 26 30  0  0  0  0  0  0  0  0999 V2000
   10.0084   -1.8019   23.4945 C   0  0  0  0  0  0  0  0  0  0  0  0
   10.0005   -4.2520   16.5631 C   0  0  0  0  0  0  0  0  0  0  0  0
   10.2759   -4.0036   17.8845 C   0  0  0  0  0  0  0  0  0  0  0  0
    8.5652    1.5478   25.3778 N   0  0  0  0  0  0  0  0  0  0  0  0
    6.8048   -7.5457   17.8752 C   0  0  0  0  0  0  0  0  0  0  0  0
    6.1721   -8.2186   15.9886 N   0  0  0  0  0  0  0  0  0  0  0  0
   11.1764   -2.6600   19.5604 C   0  0  0  0  0  0  0  0  0  0  0  0
    9.5491   -0.6380   24.1912 C   0  0  0  0  0  0  0  0  0  0  0  0
    7.5337   -6.9256   16.9519 C   0  0  0  0  0  0  0  0  0  0  0  0
    9.6782    0.5671   23.5143 C   0  0  0  0  0  0  0  0  0  0  0  0
    8.4532    0.3482   26.0821 C   0  0  0  0  0  0  0  0  0  0  0  0
   10.4239   -1.7677   22.2230 N   0  0  0  0  0  0  0  0  0  0  0  0
    9.9468   -4.5953   20.1709 C   0  0  0  0  0  0  0  0  0  0  0  0
   10.0366   -3.0590   23.9864 N   0  0  0  0  0  0  0  0  0  0  0  0
    7.1191   -7.3636   15.7739 C   0  0  0  0  0  0  0  0  0  0  0  0
    5.9612   -8.3203   17.2732 N   0  0  0  0  0  0  0  0  0  0  0  0
    8.5296   -5.9814   17.1841 C   0  0  0  0  0  0  0  0  0  0  0  0
    9.1527   -5.2118   16.2116 C   0  0  0  0  0  0  0  0  0  0  0  0
   10.3364   -3.8368   22.9255 O   0  0  0  0  0  0  0  0  0  0  0  0
    9.6947   -4.8407   18.8534 C   0  0  0  0  0  0  0  0  0  0  0  0
    9.1596    1.7042   24.1381 C   0  0  0  0  0  0  0  0  0  0  0  0
   11.0456   -2.9774   18.2694 N   0  0  0  0  0  0  0  0  0  0  0  0
   10.4788   -3.0457   21.8593 C   0  0  0  0  0  0  0  0  0  0  0  0
    8.8693   -5.8099   18.4657 N   0  0  0  0  0  0  0  0  0  0  0  0
    8.9892   -0.7926   25.4573 C   0  0  0  0  0  0  0  0  0  0  0  0
   10.5677   -3.4462   20.5323 C   0  0  0  0  0  0  0  0  0  0  0  0
  1  8  1  0
  1 12  4  0
  1 14  4  0
  2  3  4  0
  2 18  4  0
  3 20  4  0
  3 22  4  0
  4 11  4  0
  4 21  4  0
  5  9  4  0
  5 16  4  0
  6 15  4  0
  6 16  4  0
  7 22  4  0
  7 26  4  0
  8 10  4  0
  8 25  4  0
  9 15  4  0
  9 17  1  0
 10 21  4  0
 11 25  4  0
 12 23  4  0
 13 20  4  0
 13 26  4  0
 14 19  4  0
 17 18  4  0
 17 24  4  0
 19 23  4  0
 20 24  4  0
 23 26  1  0
M  END
$$$$

 Created by Python create_sdf_string function

 26 30  0  0  0  0  0  0  0  0999 V2000
   10.0084   -1.8019   23.4945 C   0  0  0  0  0  0  0  0  0  0  0  0
   10.0005   -4.2520   16.5631 C   0  0  0  0  0  0  0  0  0  0  0  0
   10.2759   -4.0036   17.8845 C   0  0  0  0  0  0  0  0  0  0  0  0
    8.5652    1.5478   25.3778 N   0  0  0  0  0  0  0  0  0  0  0  0
    6.8048   -7.5457   17.8752 C   0  0  0  0  0  0  0  0  0  0  0  0
    6.1721   -8.2186   15.9886 N   0  0  0  0  0  0  0  0  0  0  0  0
   11.1764   -2.6600   19.5604 C   0  0  0  0  0  0  0  0  0  0  0  0
    9.5491   -0.6380   24.1912 C   0  0  0  0  0  0  0  0  0  0  0  0
    7.5337   -6.9256   16.9519 C   0  0  0  0  0  0  0  0  0  0  0  0
    9.6782    0.5671   23.5143 C   0  0  0  0  0  0  0  0  0  0  0  0
    8.4532    0.3482   26.0821 C   0  0  0  0  0  0  0  0  0  0  0  0
   10.4239   -1.7677   22.2230 N   0  0  0  0  0  0  0  0  0  0  0  0
    9.9468   -4.5953   20.1709 C   0  0  0  0  0  0  0  0  0  0  0  0
   10.0366   -3.0590   23.9864 N   0  0  0  0  0  0  0  0  0  0  0  0
    7.1191   -7.3636   15.7739 C   0  0  0  0  0  0  0  0  0  0  0  0
    5.9612   -8.3203   17.2732 N   0  0  0  0  0  0  0  0  0  0  0  0
    8.5296   -5.9814   17.1841 C   0  0  0  0  0  0  0  0  0  0  0  0
    9.1527   -5.2118   16.2116 C   0  0  0  0  0  0  0  0  0  0  0  0
   10.3364   -3.8368   22.9255 O   0  0  0  0  0  0  0  0  0  0  0  0
    9.6947   -4.8407   18.8534 C   0  0  0  0  0  0  0  0  0  0  0  0
    9.1596    1.7042   24.1381 C   0  0  0  0  0  0  0  0  0  0  0  0
   11.0456   -2.9774   18.2694 N   0  0  0  0  0  0  0  0  0  0  0  0
   10.4788   -3.0457   21.8593 C   0  0  0  0  0  0  0  0  0  0  0  0
    8.8693   -5.8099   18.4657 N   0  0  0  0  0  0  0  0  0  0  0  0
    8.9892   -0.7926   25.4573 C   0  0  0  0  0  0  0  0  0  0  0  0
   10.5677   -3.4462   20.5323 C   0  0  0  0  0  0  0  0  0  0  0  0
  1  8  1  0
  1 12  4  0
  1 14  4  0
  2  3  4  0
  2 18  4  0
  3 20  4  0
  3 22  4  0
  4 11  4  0
  4 21  4  0
  5  9  4  0
  5 16  4  0
  6 15  4  0
  6 16  4  0
  7 22  4  0
  7 26  4  0
  8 10  4  0
  8 25  4  0
  9 15  4  0
  9 17  1  0
 10 21  4  0
 11 25  4  0
 12 23  4  0
 13 20  4  0
 13 26  4  0
 14 19  4  0
 17 18  4  0
 17 24  4  0
 19 23  4  0
 20 24  4  0
 23 26  1  0
M  END
$$$$

 Created by Python create_sdf_string function

 26 30  0  0  0  0  0  0  0  0999 V2000
   10.0084   -1.8019   23.4945 C   0  0  0  0  0  0  0  0  0  0  0  0
   10.0005   -4.2520   16.5631 C   0  0  0  0  0  0  0  0  0  0  0  0
   10.2759   -4.0036   17.8845 C   0  0  0  0  0  0  0  0  0  0  0  0
    8.5652    1.5478   25.3778 N   0  0  0  0  0  0  0  0  0  0  0  0
    6.8048   -7.5457   17.8752 C   0  0  0  0  0  0  0  0  0  0  0  0
    6.1721   -8.2186   15.9886 N   0  0  0  0  0  0  0  0  0  0  0  0
   11.1764   -2.6600   19.5604 C   0  0  0  0  0  0  0  0  0  0  0  0
    9.5491   -0.6380   24.1912 C   0  0  0  0  0  0  0  0  0  0  0  0
    7.5337   -6.9256   16.9519 C   0  0  0  0  0  0  0  0  0  0  0  0
    9.6782    0.5671   23.5143 C   0  0  0  0  0  0  0  0  0  0  0  0
    8.4532    0.3482   26.0821 C   0  0  0  0  0  0  0  0  0  0  0  0
   10.4239   -1.7677   22.2230 N   0  0  0  0  0  0  0  0  0  0  0  0
    9.9468   -4.5953   20.1709 C   0  0  0  0  0  0  0  0  0  0  0  0
   10.0366   -3.0590   23.9864 N   0  0  0  0  0  0  0  0  0  0  0  0
    7.1191   -7.3636   15.7739 C   0  0  0  0  0  0  0  0  0  0  0  0
    5.9612   -8.3203   17.2732 N   0  0  0  0  0  0  0  0  0  0  0  0
    8.5296   -5.9814   17.1841 C   0  0  0  0  0  0  0  0  0  0  0  0
    9.1527   -5.2118   16.2116 C   0  0  0  0  0  0  0  0  0  0  0  0
   10.3364   -3.8368   22.9255 O   0  0  0  0  0  0  0  0  0  0  0  0
    9.6947   -4.8407   18.8534 C   0  0  0  0  0  0  0  0  0  0  0  0
    9.1596    1.7042   24.1381 C   0  0  0  0  0  0  0  0  0  0  0  0
   11.0456   -2.9774   18.2694 N   0  0  0  0  0  0  0  0  0  0  0  0
   10.4788   -3.0457   21.8593 C   0  0  0  0  0  0  0  0  0  0  0  0
    8.8693   -5.8099   18.4657 N   0  0  0  0  0  0  0  0  0  0  0  0
    8.9892   -0.7926   25.4573 C   0  0  0  0  0  0  0  0  0  0  0  0
   10.5677   -3.4462   20.5323 C   0  0  0  0  0  0  0  0  0  0  0  0
  1  8  1  0
  1 12  4  0
  1 14  4  0
  2  3  4  0
  2 18  4  0
  3 20  4  0
  3 22  4  0
  4 11  4  0
  4 21  4  0
  5  9  4  0
  5 16  4  0
  6 15  4  0
  6 16  4  0
  7 22  4  0
  7 26  4  0
  8 10  4  0
  8 25  4  0
  9 15  4  0
  9 17  1  0
 10 21  4  0
 11 25  4  0
 12 23  4  0
 13 20  4  0
 13 26  4  0
 14 19  4  0
 17 18  4  0
 17 24  4  0
 19 23  4  0
 20 24  4  0
 23 26  1  0
M  END
$$$$

 Created by Python create_sdf_string function

 26 30  0  0  0  0  0  0  0  0999 V2000
   10.0084   -1.8019   23.4945 C   0  0  0  0  0  0  0  0  0  0  0  0
   10.0005   -4.2520   16.5631 C   0  0  0  0  0  0  0  0  0  0  0  0
   10.2759   -4.0036   17.8845 C   0  0  0  0  0  0  0  0  0  0  0  0
    8.5652    1.5478   25.3778 N   0  0  0  0  0  0  0  0  0  0  0  0
    6.8048   -7.5457   17.8752 C   0  0  0  0  0  0  0  0  0  0  0  0
    6.1721   -8.2186   15.9886 N   0  0  0  0  0  0  0  0  0  0  0  0
   11.1764   -2.6600   19.5604 C   0  0  0  0  0  0  0  0  0  0  0  0
    9.5491   -0.6380   24.1912 C   0  0  0  0  0  0  0  0  0  0  0  0
    7.5337   -6.9256   16.9519 C   0  0  0  0  0  0  0  0  0  0  0  0
    9.6782    0.5671   23.5143 C   0  0  0  0  0  0  0  0  0  0  0  0
    8.4532    0.3482   26.0821 C   0  0  0  0  0  0  0  0  0  0  0  0
   10.4239   -1.7677   22.2230 N   0  0  0  0  0  0  0  0  0  0  0  0
    9.9468   -4.5953   20.1709 C   0  0  0  0  0  0  0  0  0  0  0  0
   10.0366   -3.0590   23.9864 N   0  0  0  0  0  0  0  0  0  0  0  0
    7.1191   -7.3636   15.7739 C   0  0  0  0  0  0  0  0  0  0  0  0
    5.9612   -8.3203   17.2732 N   0  0  0  0  0  0  0  0  0  0  0  0
    8.5296   -5.9814   17.1841 C   0  0  0  0  0  0  0  0  0  0  0  0
    9.1527   -5.2118   16.2116 C   0  0  0  0  0  0  0  0  0  0  0  0
   10.3364   -3.8368   22.9255 O   0  0  0  0  0  0  0  0  0  0  0  0
    9.6947   -4.8407   18.8534 C   0  0  0  0  0  0  0  0  0  0  0  0
    9.1596    1.7042   24.1381 C   0  0  0  0  0  0  0  0  0  0  0  0
   11.0456   -2.9774   18.2694 N   0  0  0  0  0  0  0  0  0  0  0  0
   10.4788   -3.0457   21.8593 C   0  0  0  0  0  0  0  0  0  0  0  0
    8.8693   -5.8099   18.4657 N   0  0  0  0  0  0  0  0  0  0  0  0
    8.9892   -0.7926   25.4573 C   0  0  0  0  0  0  0  0  0  0  0  0
   10.5677   -3.4462   20.5323 C   0  0  0  0  0  0  0  0  0  0  0  0
  1  8  1  0
  1 12  4  0
  1 14  4  0
  2  3  4  0
  2 18  4  0
  3 20  4  0
  3 22  4  0
  4 11  4  0
  4 21  4  0
  5  9  4  0
  5 16  4  0
  6 15  4  0
  6 16  4  0
  7 22  4  0
  7 26  4  0
  8 10  4  0
  8 25  4  0
  9 15  4  0
  9 17  1  0
 10 21  4  0
 11 25  4  0
 12 23  4  0
 13 20  4  0
 13 26  4  0
 14 19  4  0
 17 18  4  0
 17 24  4  0
 19 23  4  0
 20 24  4  0
 23 26  1  0
M  END
$$$$

 Created by Python create_sdf_string function

 26 30  0  0  0  0  0  0  0  0999 V2000
   10.0084   -1.8019   23.4945 C   0  0  0  0  0  0  0  0  0  0  0  0
   10.0005   -4.2520   16.5631 C   0  0  0  0  0  0  0  0  0  0  0  0
   10.2759   -4.0036   17.8845 C   0  0  0  0  0  0  0  0  0  0  0  0
    8.5652    1.5478   25.3778 N   0  0  0  0  0  0  0  0  0  0  0  0
    6.8048   -7.5457   17.8752 C   0  0  0  0  0  0  0  0  0  0  0  0
    6.1721   -8.2186   15.9886 N   0  0  0  0  0  0  0  0  0  0  0  0
   11.1764   -2.6600   19.5604 C   0  0  0  0  0  0  0  0  0  0  0  0
    9.5491   -0.6380   24.1912 C   0  0  0  0  0  0  0  0  0  0  0  0
    7.5337   -6.9256   16.9519 C   0  0  0  0  0  0  0  0  0  0  0  0
    9.6782    0.5671   23.5143 C   0  0  0  0  0  0  0  0  0  0  0  0
    8.4532    0.3482   26.0821 C   0  0  0  0  0  0  0  0  0  0  0  0
   10.4239   -1.7677   22.2230 N   0  0  0  0  0  0  0  0  0  0  0  0
    9.9468   -4.5953   20.1709 C   0  0  0  0  0  0  0  0  0  0  0  0
   10.0366   -3.0590   23.9864 N   0  0  0  0  0  0  0  0  0  0  0  0
    7.1191   -7.3636   15.7739 C   0  0  0  0  0  0  0  0  0  0  0  0
    5.9612   -8.3203   17.2732 N   0  0  0  0  0  0  0  0  0  0  0  0
    8.5296   -5.9814   17.1841 C   0  0  0  0  0  0  0  0  0  0  0  0
    9.1527   -5.2118   16.2116 C   0  0  0  0  0  0  0  0  0  0  0  0
   10.3364   -3.8368   22.9255 O   0  0  0  0  0  0  0  0  0  0  0  0
    9.6947   -4.8407   18.8534 C   0  0  0  0  0  0  0  0  0  0  0  0
    9.1596    1.7042   24.1381 C   0  0  0  0  0  0  0  0  0  0  0  0
   11.0456   -2.9774   18.2694 N   0  0  0  0  0  0  0  0  0  0  0  0
   10.4788   -3.0457   21.8593 C   0  0  0  0  0  0  0  0  0  0  0  0
    8.8693   -5.8099   18.4657 N   0  0  0  0  0  0  0  0  0  0  0  0
    8.9892   -0.7926   25.4573 C   0  0  0  0  0  0  0  0  0  0  0  0
   10.5677   -3.4462   20.5323 C   0  0  0  0  0  0  0  0  0  0  0  0
  1  8  1  0
  1 12  4  0
  1 14  4  0
  2  3  4  0
  2 18  4  0
  3 20  4  0
  3 22  4  0
  4 11  4  0
  4 21  4  0
  5  9  4  0
  5 16  4  0
  6 15  4  0
  6 16  4  0
  7 22  4  0
  7 26  4  0
  8 10  4  0
  8 25  4  0
  9 15  4  0
  9 17  1  0
 10 21  4  0
 11 25  4  0
 12 23  4  0
 13 20  4  0
 13 26  4  0
 14 19  4  0
 17 18  4  0
 17 24  4  0
 19 23  4  0
 20 24  4  0
 23 26  1  0
M  END
$$$$

 Created by Python create_sdf_string function

 26 30  0  0  0  0  0  0  0  0999 V2000
   10.0084   -1.8019   23.4945 C   0  0  0  0  0  0  0  0  0  0  0  0
   10.0005   -4.2520   16.5631 C   0  0  0  0  0  0  0  0  0  0  0  0
   10.2759   -4.0036   17.8845 C   0  0  0  0  0  0  0  0  0  0  0  0
    8.5652    1.5478   25.3778 N   0  0  0  0  0  0  0  0  0  0  0  0
    6.8048   -7.5457   17.8752 C   0  0  0  0  0  0  0  0  0  0  0  0
    6.1721   -8.2186   15.9886 N   0  0  0  0  0  0  0  0  0  0  0  0
   11.1764   -2.6600   19.5604 C   0  0  0  0  0  0  0  0  0  0  0  0
    9.5491   -0.6380   24.1912 C   0  0  0  0  0  0  0  0  0  0  0  0
    7.5337   -6.9256   16.9519 C   0  0  0  0  0  0  0  0  0  0  0  0
    9.6782    0.5671   23.5143 C   0  0  0  0  0  0  0  0  0  0  0  0
    8.4532    0.3482   26.0821 C   0  0  0  0  0  0  0  0  0  0  0  0
   10.4239   -1.7677   22.2230 N   0  0  0  0  0  0  0  0  0  0  0  0
    9.9468   -4.5953   20.1709 C   0  0  0  0  0  0  0  0  0  0  0  0
   10.0366   -3.0590   23.9864 N   0  0  0  0  0  0  0  0  0  0  0  0
    7.1191   -7.3636   15.7739 C   0  0  0  0  0  0  0  0  0  0  0  0
    5.9612   -8.3203   17.2732 N   0  0  0  0  0  0  0  0  0  0  0  0
    8.5296   -5.9814   17.1841 C   0  0  0  0  0  0  0  0  0  0  0  0
    9.1527   -5.2118   16.2116 C   0  0  0  0  0  0  0  0  0  0  0  0
   10.3364   -3.8368   22.9255 O   0  0  0  0  0  0  0  0  0  0  0  0
    9.6947   -4.8407   18.8534 C   0  0  0  0  0  0  0  0  0  0  0  0
    9.1596    1.7042   24.1381 C   0  0  0  0  0  0  0  0  0  0  0  0
   11.0456   -2.9774   18.2694 N   0  0  0  0  0  0  0  0  0  0  0  0
   10.4788   -3.0457   21.8593 C   0  0  0  0  0  0  0  0  0  0  0  0
    8.8693   -5.8099   18.4657 N   0  0  0  0  0  0  0  0  0  0  0  0
    8.9892   -0.7926   25.4573 C   0  0  0  0  0  0  0  0  0  0  0  0
   10.5677   -3.4462   20.5323 C   0  0  0  0  0  0  0  0  0  0  0  0
  1  8  1  0
  1 12  4  0
  1 14  4  0
  2  3  4  0
  2 18  4  0
  3 20  4  0
  3 22  4  0
  4 11  4  0
  4 21  4  0
  5  9  4  0
  5 16  4  0
  6 15  4  0
  6 16  4  0
  7 22  4  0
  7 26  4  0
  8 10  4  0
  8 25  4  0
  9 15  4  0
  9 17  1  0
 10 21  4  0
 11 25  4  0
 12 23  4  0
 13 20  4  0
 13 26  4  0
 14 19  4  0
 17 18  4  0
 17 24  4  0
 19 23  4  0
 20 24  4  0
 23 26  1  0
M  END
$$$$

 Created by Python create_sdf_string function

 26 30  0  0  0  0  0  0  0  0999 V2000
   10.0084   -1.8019   23.4945 C   0  0  0  0  0  0  0  0  0  0  0  0
   10.0005   -4.2520   16.5631 C   0  0  0  0  0  0  0  0  0  0  0  0
   10.2759   -4.0036   17.8845 C   0  0  0  0  0  0  0  0  0  0  0  0
    8.5652    1.5478   25.3778 N   0  0  0  0  0  0  0  0  0  0  0  0
    6.8048   -7.5457   17.8752 C   0  0  0  0  0  0  0  0  0  0  0  0
    6.1721   -8.2186   15.9886 N   0  0  0  0  0  0  0  0  0  0  0  0
   11.1764   -2.6600   19.5604 C   0  0  0  0  0  0  0  0  0  0  0  0
    9.5491   -0.6380   24.1912 C   0  0  0  0  0  0  0  0  0  0  0  0
    7.5337   -6.9256   16.9519 C   0  0  0  0  0  0  0  0  0  0  0  0
    9.6782    0.5671   23.5143 C   0  0  0  0  0  0  0  0  0  0  0  0
    8.4532    0.3482   26.0821 C   0  0  0  0  0  0  0  0  0  0  0  0
   10.4239   -1.7677   22.2230 N   0  0  0  0  0  0  0  0  0  0  0  0
    9.9468   -4.5953   20.1709 C   0  0  0  0  0  0  0  0  0  0  0  0
   10.0366   -3.0590   23.9864 N   0  0  0  0  0  0  0  0  0  0  0  0
    7.1191   -7.3636   15.7739 C   0  0  0  0  0  0  0  0  0  0  0  0
    5.9612   -8.3203   17.2732 N   0  0  0  0  0  0  0  0  0  0  0  0
    8.5296   -5.9814   17.1841 C   0  0  0  0  0  0  0  0  0  0  0  0
    9.1527   -5.2118   16.2116 C   0  0  0  0  0  0  0  0  0  0  0  0
   10.3364   -3.8368   22.9255 O   0  0  0  0  0  0  0  0  0  0  0  0
    9.6947   -4.8407   18.8534 C   0  0  0  0  0  0  0  0  0  0  0  0
    9.1596    1.7042   24.1381 C   0  0  0  0  0  0  0  0  0  0  0  0
   11.0456   -2.9774   18.2694 N   0  0  0  0  0  0  0  0  0  0  0  0
   10.4788   -3.0457   21.8593 C   0  0  0  0  0  0  0  0  0  0  0  0
    8.8693   -5.8099   18.4657 N   0  0  0  0  0  0  0  0  0  0  0  0
    8.9892   -0.7926   25.4573 C   0  0  0  0  0  0  0  0  0  0  0  0
   10.5677   -3.4462   20.5323 C   0  0  0  0  0  0  0  0  0  0  0  0
  1  8  1  0
  1 12  4  0
  1 14  4  0
  2  3  4  0
  2 18  4  0
  3 20  4  0
  3 22  4  0
  4 11  4  0
  4 21  4  0
  5  9  4  0
  5 16  4  0
  6 15  4  0
  6 16  4  0
  7 22  4  0
  7 26  4  0
  8 10  4  0
  8 25  4  0
  9 15  4  0
  9 17  1  0
 10 21  4  0
 11 25  4  0
 12 23  4  0
 13 20  4  0
 13 26  4  0
 14 19  4  0
 17 18  4  0
 17 24  4  0
 19 23  4  0
 20 24  4  0
 23 26  1  0
M  END
$$$$

 Created by Python create_sdf_string function

 26 30  0  0  0  0  0  0  0  0999 V2000
   10.0084   -1.8019   23.4945 C   0  0  0  0  0  0  0  0  0  0  0  0
   10.0005   -4.2520   16.5631 C   0  0  0  0  0  0  0  0  0  0  0  0
   10.2759   -4.0036   17.8845 C   0  0  0  0  0  0  0  0  0  0  0  0
    8.5652    1.5478   25.3778 N   0  0  0  0  0  0  0  0  0  0  0  0
    6.8048   -7.5457   17.8752 C   0  0  0  0  0  0  0  0  0  0  0  0
    6.1721   -8.2186   15.9886 N   0  0  0  0  0  0  0  0  0  0  0  0
   11.1764   -2.6600   19.5604 C   0  0  0  0  0  0  0  0  0  0  0  0
    9.5491   -0.6380   24.1912 C   0  0  0  0  0  0  0  0  0  0  0  0
    7.5337   -6.9256   16.9519 C   0  0  0  0  0  0  0  0  0  0  0  0
    9.6782    0.5671   23.5143 C   0  0  0  0  0  0  0  0  0  0  0  0
    8.4532    0.3482   26.0821 C   0  0  0  0  0  0  0  0  0  0  0  0
   10.4239   -1.7677   22.2230 N   0  0  0  0  0  0  0  0  0  0  0  0
    9.9468   -4.5953   20.1709 C   0  0  0  0  0  0  0  0  0  0  0  0
   10.0366   -3.0590   23.9864 N   0  0  0  0  0  0  0  0  0  0  0  0
    7.1191   -7.3636   15.7739 C   0  0  0  0  0  0  0  0  0  0  0  0
    5.9612   -8.3203   17.2732 N   0  0  0  0  0  0  0  0  0  0  0  0
    8.5296   -5.9814   17.1841 C   0  0  0  0  0  0  0  0  0  0  0  0
    9.1527   -5.2118   16.2116 C   0  0  0  0  0  0  0  0  0  0  0  0
   10.3364   -3.8368   22.9255 O   0  0  0  0  0  0  0  0  0  0  0  0
    9.6947   -4.8407   18.8534 C   0  0  0  0  0  0  0  0  0  0  0  0
    9.1596    1.7042   24.1381 C   0  0  0  0  0  0  0  0  0  0  0  0
   11.0456   -2.9774   18.2694 N   0  0  0  0  0  0  0  0  0  0  0  0
   10.4788   -3.0457   21.8593 C   0  0  0  0  0  0  0  0  0  0  0  0
    8.8693   -5.8099   18.4657 N   0  0  0  0  0  0  0  0  0  0  0  0
    8.9892   -0.7926   25.4573 C   0  0  0  0  0  0  0  0  0  0  0  0
   10.5677   -3.4462   20.5323 C   0  0  0  0  0  0  0  0  0  0  0  0
  1  8  1  0
  1 12  4  0
  1 14  4  0
  2  3  4  0
  2 18  4  0
  3 20  4  0
  3 22  4  0
  4 11  4  0
  4 21  4  0
  5  9  4  0
  5 16  4  0
  6 15  4  0
  6 16  4  0
  7 22  4  0
  7 26  4  0
  8 10  4  0
  8 25  4  0
  9 15  4  0
  9 17  1  0
 10 21  4  0
 11 25  4  0
 12 23  4  0
 13 20  4  0
 13 26  4  0
 14 19  4  0
 17 18  4  0
 17 24  4  0
 19 23  4  0
 20 24  4  0
 23 26  1  0
M  END
$$$$

 Created by Python create_sdf_string function

 26 30  0  0  0  0  0  0  0  0999 V2000
   10.0084   -1.8019   23.4945 C   0  0  0  0  0  0  0  0  0  0  0  0
   10.0005   -4.2520   16.5631 C   0  0  0  0  0  0  0  0  0  0  0  0
   10.2759   -4.0036   17.8845 C   0  0  0  0  0  0  0  0  0  0  0  0
    8.5652    1.5478   25.3778 N   0  0  0  0  0  0  0  0  0  0  0  0
    6.8048   -7.5457   17.8752 C   0  0  0  0  0  0  0  0  0  0  0  0
    6.1721   -8.2186   15.9886 N   0  0  0  0  0  0  0  0  0  0  0  0
   11.1764   -2.6600   19.5604 C   0  0  0  0  0  0  0  0  0  0  0  0
    9.5491   -0.6380   24.1912 C   0  0  0  0  0  0  0  0  0  0  0  0
    7.5337   -6.9256   16.9519 C   0  0  0  0  0  0  0  0  0  0  0  0
    9.6782    0.5671   23.5143 C   0  0  0  0  0  0  0  0  0  0  0  0
    8.4532    0.3482   26.0821 C   0  0  0  0  0  0  0  0  0  0  0  0
   10.4239   -1.7677   22.2230 N   0  0  0  0  0  0  0  0  0  0  0  0
    9.9468   -4.5953   20.1709 C   0  0  0  0  0  0  0  0  0  0  0  0
   10.0366   -3.0590   23.9864 N   0  0  0  0  0  0  0  0  0  0  0  0
    7.1191   -7.3636   15.7739 C   0  0  0  0  0  0  0  0  0  0  0  0
    5.9612   -8.3203   17.2732 N   0  0  0  0  0  0  0  0  0  0  0  0
    8.5296   -5.9814   17.1841 C   0  0  0  0  0  0  0  0  0  0  0  0
    9.1527   -5.2118   16.2116 C   0  0  0  0  0  0  0  0  0  0  0  0
   10.3364   -3.8368   22.9255 O   0  0  0  0  0  0  0  0  0  0  0  0
    9.6947   -4.8407   18.8534 C   0  0  0  0  0  0  0  0  0  0  0  0
    9.1596    1.7042   24.1381 C   0  0  0  0  0  0  0  0  0  0  0  0
   11.0456   -2.9774   18.2694 N   0  0  0  0  0  0  0  0  0  0  0  0
   10.4788   -3.0457   21.8593 C   0  0  0  0  0  0  0  0  0  0  0  0
    8.8693   -5.8099   18.4657 N   0  0  0  0  0  0  0  0  0  0  0  0
    8.9892   -0.7926   25.4573 C   0  0  0  0  0  0  0  0  0  0  0  0
   10.5677   -3.4462   20.5323 C   0  0  0  0  0  0  0  0  0  0  0  0
  1  8  1  0
  1 12  4  0
  1 14  4  0
  2  3  4  0
  2 18  4  0
  3 20  4  0
  3 22  4  0
  4 11  4  0
  4 21  4  0
  5  9  4  0
  5 16  4  0
  6 15  4  0
  6 16  4  0
  7 22  4  0
  7 26  4  0
  8 10  4  0
  8 25  4  0
  9 15  4  0
  9 17  1  0
 10 21  4  0
 11 25  4  0
 12 23  4  0
 13 20  4  0
 13 26  4  0
 14 19  4  0
 17 18  4  0
 17 24  4  0
 19 23  4  0
 20 24  4  0
 23 26  1  0
M  END
$$$$

 Created by Python create_sdf_string function

 26 30  0  0  0  0  0  0  0  0999 V2000
   10.0084   -1.8019   23.4945 C   0  0  0  0  0  0  0  0  0  0  0  0
   10.0005   -4.2520   16.5631 C   0  0  0  0  0  0  0  0  0  0  0  0
   10.2759   -4.0036   17.8845 C   0  0  0  0  0  0  0  0  0  0  0  0
    8.5652    1.5478   25.3778 N   0  0  0  0  0  0  0  0  0  0  0  0
    6.8048   -7.5457   17.8752 C   0  0  0  0  0  0  0  0  0  0  0  0
    6.1721   -8.2186   15.9886 N   0  0  0  0  0  0  0  0  0  0  0  0
   11.1764   -2.6600   19.5604 C   0  0  0  0  0  0  0  0  0  0  0  0
    9.5491   -0.6380   24.1912 C   0  0  0  0  0  0  0  0  0  0  0  0
    7.5337   -6.9256   16.9519 C   0  0  0  0  0  0  0  0  0  0  0  0
    9.6782    0.5671   23.5143 C   0  0  0  0  0  0  0  0  0  0  0  0
    8.4532    0.3482   26.0821 C   0  0  0  0  0  0  0  0  0  0  0  0
   10.4239   -1.7677   22.2230 N   0  0  0  0  0  0  0  0  0  0  0  0
    9.9468   -4.5953   20.1709 C   0  0  0  0  0  0  0  0  0  0  0  0
   10.0366   -3.0590   23.9864 N   0  0  0  0  0  0  0  0  0  0  0  0
    7.1191   -7.3636   15.7739 C   0  0  0  0  0  0  0  0  0  0  0  0
    5.9612   -8.3203   17.2732 N   0  0  0  0  0  0  0  0  0  0  0  0
    8.5296   -5.9814   17.1841 C   0  0  0  0  0  0  0  0  0  0  0  0
    9.1527   -5.2118   16.2116 C   0  0  0  0  0  0  0  0  0  0  0  0
   10.3364   -3.8368   22.9255 O   0  0  0  0  0  0  0  0  0  0  0  0
    9.6947   -4.8407   18.8534 C   0  0  0  0  0  0  0  0  0  0  0  0
    9.1596    1.7042   24.1381 C   0  0  0  0  0  0  0  0  0  0  0  0
   11.0456   -2.9774   18.2694 N   0  0  0  0  0  0  0  0  0  0  0  0
   10.4788   -3.0457   21.8593 C   0  0  0  0  0  0  0  0  0  0  0  0
    8.8693   -5.8099   18.4657 N   0  0  0  0  0  0  0  0  0  0  0  0
    8.9892   -0.7926   25.4573 C   0  0  0  0  0  0  0  0  0  0  0  0
   10.5677   -3.4462   20.5323 C   0  0  0  0  0  0  0  0  0  0  0  0
  1  8  1  0
  1 12  4  0
  1 14  4  0
  2  3  4  0
  2 18  4  0
  3 20  4  0
  3 22  4  0
  4 11  4  0
  4 21  4  0
  5  9  4  0
  5 16  4  0
  6 15  4  0
  6 16  4  0
  7 22  4  0
  7 26  4  0
  8 10  4  0
  8 25  4  0
  9 15  4  0
  9 17  1  0
 10 21  4  0
 11 25  4  0
 12 23  4  0
 13 20  4  0
 13 26  4  0
 14 19  4  0
 17 18  4  0
 17 24  4  0
 19 23  4  0
 20 24  4  0
 23 26  1  0
M  END
$$$$

 Created by Python create_sdf_string function

 26 30  0  0  0  0  0  0  0  0999 V2000
   10.0084   -1.8019   23.4945 C   0  0  0  0  0  0  0  0  0  0  0  0
   10.0005   -4.2520   16.5631 C   0  0  0  0  0  0  0  0  0  0  0  0
   10.2759   -4.0036   17.8845 C   0  0  0  0  0  0  0  0  0  0  0  0
    8.5652    1.5478   25.3778 N   0  0  0  0  0  0  0  0  0  0  0  0
    6.8048   -7.5457   17.8752 C   0  0  0  0  0  0  0  0  0  0  0  0
    6.1721   -8.2186   15.9886 N   0  0  0  0  0  0  0  0  0  0  0  0
   11.1764   -2.6600   19.5604 C   0  0  0  0  0  0  0  0  0  0  0  0
    9.5491   -0.6380   24.1912 C   0  0  0  0  0  0  0  0  0  0  0  0
    7.5337   -6.9256   16.9519 C   0  0  0  0  0  0  0  0  0  0  0  0
    9.6782    0.5671   23.5143 C   0  0  0  0  0  0  0  0  0  0  0  0
    8.4532    0.3482   26.0821 C   0  0  0  0  0  0  0  0  0  0  0  0
   10.4239   -1.7677   22.2230 N   0  0  0  0  0  0  0  0  0  0  0  0
    9.9468   -4.5953   20.1709 C   0  0  0  0  0  0  0  0  0  0  0  0
   10.0366   -3.0590   23.9864 N   0  0  0  0  0  0  0  0  0  0  0  0
    7.1191   -7.3636   15.7739 C   0  0  0  0  0  0  0  0  0  0  0  0
    5.9612   -8.3203   17.2732 N   0  0  0  0  0  0  0  0  0  0  0  0
    8.5296   -5.9814   17.1841 C   0  0  0  0  0  0  0  0  0  0  0  0
    9.1527   -5.2118   16.2116 C   0  0  0  0  0  0  0  0  0  0  0  0
   10.3364   -3.8368   22.9255 O   0  0  0  0  0  0  0  0  0  0  0  0
    9.6947   -4.8407   18.8534 C   0  0  0  0  0  0  0  0  0  0  0  0
    9.1596    1.7042   24.1381 C   0  0  0  0  0  0  0  0  0  0  0  0
   11.0456   -2.9774   18.2694 N   0  0  0  0  0  0  0  0  0  0  0  0
   10.4788   -3.0457   21.8593 C   0  0  0  0  0  0  0  0  0  0  0  0
    8.8693   -5.8099   18.4657 N   0  0  0  0  0  0  0  0  0  0  0  0
    8.9892   -0.7926   25.4573 C   0  0  0  0  0  0  0  0  0  0  0  0
   10.5677   -3.4462   20.5323 C   0  0  0  0  0  0  0  0  0  0  0  0
  1  8  1  0
  1 12  4  0
  1 14  4  0
  2  3  4  0
  2 18  4  0
  3 20  4  0
  3 22  4  0
  4 11  4  0
  4 21  4  0
  5  9  4  0
  5 16  4  0
  6 15  4  0
  6 16  4  0
  7 22  4  0
  7 26  4  0
  8 10  4  0
  8 25  4  0
  9 15  4  0
  9 17  1  0
 10 21  4  0
 11 25  4  0
 12 23  4  0
 13 20  4  0
 13 26  4  0
 14 19  4  0
 17 18  4  0
 17 24  4  0
 19 23  4  0
 20 24  4  0
 23 26  1  0
M  END
$$$$

 Created by Python create_sdf_string function

 26 30  0  0  0  0  0  0  0  0999 V2000
   10.0084   -1.8019   23.4945 C   0  0  0  0  0  0  0  0  0  0  0  0
   10.0005   -4.2520   16.5631 C   0  0  0  0  0  0  0  0  0  0  0  0
   10.2759   -4.0036   17.8845 C   0  0  0  0  0  0  0  0  0  0  0  0
    8.5652    1.5478   25.3778 N   0  0  0  0  0  0  0  0  0  0  0  0
    6.8048   -7.5457   17.8752 C   0  0  0  0  0  0  0  0  0  0  0  0
    6.1721   -8.2186   15.9886 N   0  0  0  0  0  0  0  0  0  0  0  0
   11.1764   -2.6600   19.5604 C   0  0  0  0  0  0  0  0  0  0  0  0
    9.5491   -0.6380   24.1912 C   0  0  0  0  0  0  0  0  0  0  0  0
    7.5337   -6.9256   16.9519 C   0  0  0  0  0  0  0  0  0  0  0  0
    9.6782    0.5671   23.5143 C   0  0  0  0  0  0  0  0  0  0  0  0
    8.4532    0.3482   26.0821 C   0  0  0  0  0  0  0  0  0  0  0  0
   10.4239   -1.7677   22.2230 N   0  0  0  0  0  0  0  0  0  0  0  0
    9.9468   -4.5953   20.1709 C   0  0  0  0  0  0  0  0  0  0  0  0
   10.0366   -3.0590   23.9864 N   0  0  0  0  0  0  0  0  0  0  0  0
    7.1191   -7.3636   15.7739 C   0  0  0  0  0  0  0  0  0  0  0  0
    5.9612   -8.3203   17.2732 N   0  0  0  0  0  0  0  0  0  0  0  0
    8.5296   -5.9814   17.1841 C   0  0  0  0  0  0  0  0  0  0  0  0
    9.1527   -5.2118   16.2116 C   0  0  0  0  0  0  0  0  0  0  0  0
   10.3364   -3.8368   22.9255 O   0  0  0  0  0  0  0  0  0  0  0  0
    9.6947   -4.8407   18.8534 C   0  0  0  0  0  0  0  0  0  0  0  0
    9.1596    1.7042   24.1381 C   0  0  0  0  0  0  0  0  0  0  0  0
   11.0456   -2.9774   18.2694 N   0  0  0  0  0  0  0  0  0  0  0  0
   10.4788   -3.0457   21.8593 C   0  0  0  0  0  0  0  0  0  0  0  0
    8.8693   -5.8099   18.4657 N   0  0  0  0  0  0  0  0  0  0  0  0
    8.9892   -0.7926   25.4573 C   0  0  0  0  0  0  0  0  0  0  0  0
   10.5677   -3.4462   20.5323 C   0  0  0  0  0  0  0  0  0  0  0  0
  1  8  1  0
  1 12  4  0
  1 14  4  0
  2  3  4  0
  2 18  4  0
  3 20  4  0
  3 22  4  0
  4 11  4  0
  4 21  4  0
  5  9  4  0
  5 16  4  0
  6 15  4  0
  6 16  4  0
  7 22  4  0
  7 26  4  0
  8 10  4  0
  8 25  4  0
  9 15  4  0
  9 17  1  0
 10 21  4  0
 11 25  4  0
 12 23  4  0
 13 20  4  0
 13 26  4  0
 14 19  4  0
 17 18  4  0
 17 24  4  0
 19 23  4  0
 20 24  4  0
 23 26  1  0
M  END
$$$$

 Created by Python create_sdf_string function

 26 30  0  0  0  0  0  0  0  0999 V2000
   10.0084   -1.8019   23.4945 C   0  0  0  0  0  0  0  0  0  0  0  0
   10.0005   -4.2520   16.5631 C   0  0  0  0  0  0  0  0  0  0  0  0
   10.2759   -4.0036   17.8845 C   0  0  0  0  0  0  0  0  0  0  0  0
    8.5652    1.5478   25.3778 N   0  0  0  0  0  0  0  0  0  0  0  0
    6.8048   -7.5457   17.8752 C   0  0  0  0  0  0  0  0  0  0  0  0
    6.1721   -8.2186   15.9886 N   0  0  0  0  0  0  0  0  0  0  0  0
   11.1764   -2.6600   19.5604 C   0  0  0  0  0  0  0  0  0  0  0  0
    9.5491   -0.6380   24.1912 C   0  0  0  0  0  0  0  0  0  0  0  0
    7.5337   -6.9256   16.9519 C   0  0  0  0  0  0  0  0  0  0  0  0
    9.6782    0.5671   23.5143 C   0  0  0  0  0  0  0  0  0  0  0  0
    8.4532    0.3482   26.0821 C   0  0  0  0  0  0  0  0  0  0  0  0
   10.4239   -1.7677   22.2230 N   0  0  0  0  0  0  0  0  0  0  0  0
    9.9468   -4.5953   20.1709 C   0  0  0  0  0  0  0  0  0  0  0  0
   10.0366   -3.0590   23.9864 N   0  0  0  0  0  0  0  0  0  0  0  0
    7.1191   -7.3636   15.7739 C   0  0  0  0  0  0  0  0  0  0  0  0
    5.9612   -8.3203   17.2732 N   0  0  0  0  0  0  0  0  0  0  0  0
    8.5296   -5.9814   17.1841 C   0  0  0  0  0  0  0  0  0  0  0  0
    9.1527   -5.2118   16.2116 C   0  0  0  0  0  0  0  0  0  0  0  0
   10.3364   -3.8368   22.9255 O   0  0  0  0  0  0  0  0  0  0  0  0
    9.6947   -4.8407   18.8534 C   0  0  0  0  0  0  0  0  0  0  0  0
    9.1596    1.7042   24.1381 C   0  0  0  0  0  0  0  0  0  0  0  0
   11.0456   -2.9774   18.2694 N   0  0  0  0  0  0  0  0  0  0  0  0
   10.4788   -3.0457   21.8593 C   0  0  0  0  0  0  0  0  0  0  0  0
    8.8693   -5.8099   18.4657 N   0  0  0  0  0  0  0  0  0  0  0  0
    8.9892   -0.7926   25.4573 C   0  0  0  0  0  0  0  0  0  0  0  0
   10.5677   -3.4462   20.5323 C   0  0  0  0  0  0  0  0  0  0  0  0
  1  8  1  0
  1 12  4  0
  1 14  4  0
  2  3  4  0
  2 18  4  0
  3 20  4  0
  3 22  4  0
  4 11  4  0
  4 21  4  0
  5  9  4  0
  5 16  4  0
  6 15  4  0
  6 16  4  0
  7 22  4  0
  7 26  4  0
  8 10  4  0
  8 25  4  0
  9 15  4  0
  9 17  1  0
 10 21  4  0
 11 25  4  0
 12 23  4  0
 13 20  4  0
 13 26  4  0
 14 19  4  0
 17 18  4  0
 17 24  4  0
 19 23  4  0
 20 24  4  0
 23 26  1  0
M  END
$$$$

 Created by Python create_sdf_string function

 26 30  0  0  0  0  0  0  0  0999 V2000
   10.0084   -1.8019   23.4945 C   0  0  0  0  0  0  0  0  0  0  0  0
   10.0005   -4.2520   16.5631 C   0  0  0  0  0  0  0  0  0  0  0  0
   10.2759   -4.0036   17.8845 C   0  0  0  0  0  0  0  0  0  0  0  0
    8.5652    1.5478   25.3778 N   0  0  0  0  0  0  0  0  0  0  0  0
    6.8048   -7.5457   17.8752 C   0  0  0  0  0  0  0  0  0  0  0  0
    6.1721   -8.2186   15.9886 N   0  0  0  0  0  0  0  0  0  0  0  0
   11.1764   -2.6600   19.5604 C   0  0  0  0  0  0  0  0  0  0  0  0
    9.5491   -0.6380   24.1912 C   0  0  0  0  0  0  0  0  0  0  0  0
    7.5337   -6.9256   16.9519 C   0  0  0  0  0  0  0  0  0  0  0  0
    9.6782    0.5671   23.5143 C   0  0  0  0  0  0  0  0  0  0  0  0
    8.4532    0.3482   26.0821 C   0  0  0  0  0  0  0  0  0  0  0  0
   10.4239   -1.7677   22.2230 N   0  0  0  0  0  0  0  0  0  0  0  0
    9.9468   -4.5953   20.1709 C   0  0  0  0  0  0  0  0  0  0  0  0
   10.0366   -3.0590   23.9864 N   0  0  0  0  0  0  0  0  0  0  0  0
    7.1191   -7.3636   15.7739 C   0  0  0  0  0  0  0  0  0  0  0  0
    5.9612   -8.3203   17.2732 N   0  0  0  0  0  0  0  0  0  0  0  0
    8.5296   -5.9814   17.1841 C   0  0  0  0  0  0  0  0  0  0  0  0
    9.1527   -5.2118   16.2116 C   0  0  0  0  0  0  0  0  0  0  0  0
   10.3364   -3.8368   22.9255 O   0  0  0  0  0  0  0  0  0  0  0  0
    9.6947   -4.8407   18.8534 C   0  0  0  0  0  0  0  0  0  0  0  0
    9.1596    1.7042   24.1381 C   0  0  0  0  0  0  0  0  0  0  0  0
   11.0456   -2.9774   18.2694 N   0  0  0  0  0  0  0  0  0  0  0  0
   10.4788   -3.0457   21.8593 C   0  0  0  0  0  0  0  0  0  0  0  0
    8.8693   -5.8099   18.4657 N   0  0  0  0  0  0  0  0  0  0  0  0
    8.9892   -0.7926   25.4573 C   0  0  0  0  0  0  0  0  0  0  0  0
   10.5677   -3.4462   20.5323 C   0  0  0  0  0  0  0  0  0  0  0  0
  1  8  1  0
  1 12  4  0
  1 14  4  0
  2  3  4  0
  2 18  4  0
  3 20  4  0
  3 22  4  0
  4 11  4  0
  4 21  4  0
  5  9  4  0
  5 16  4  0
  6 15  4  0
  6 16  4  0
  7 22  4  0
  7 26  4  0
  8 10  4  0
  8 25  4  0
  9 15  4  0
  9 17  1  0
 10 21  4  0
 11 25  4  0
 12 23  4  0
 13 20  4  0
 13 26  4  0
 14 19  4  0
 17 18  4  0
 17 24  4  0
 19 23  4  0
 20 24  4  0
 23 26  1  0
M  END
$$$$

 Created by Python create_sdf_string function

 26 30  0  0  0  0  0  0  0  0999 V2000
   10.0084   -1.8019   23.4945 C   0  0  0  0  0  0  0  0  0  0  0  0
   10.0005   -4.2520   16.5631 C   0  0  0  0  0  0  0  0  0  0  0  0
   10.2759   -4.0036   17.8845 C   0  0  0  0  0  0  0  0  0  0  0  0
    8.5652    1.5478   25.3778 N   0  0  0  0  0  0  0  0  0  0  0  0
    6.8048   -7.5457   17.8752 C   0  0  0  0  0  0  0  0  0  0  0  0
    6.1721   -8.2186   15.9886 N   0  0  0  0  0  0  0  0  0  0  0  0
   11.1764   -2.6600   19.5604 C   0  0  0  0  0  0  0  0  0  0  0  0
    9.5491   -0.6380   24.1912 C   0  0  0  0  0  0  0  0  0  0  0  0
    7.5337   -6.9256   16.9519 C   0  0  0  0  0  0  0  0  0  0  0  0
    9.6782    0.5671   23.5143 C   0  0  0  0  0  0  0  0  0  0  0  0
    8.4532    0.3482   26.0821 C   0  0  0  0  0  0  0  0  0  0  0  0
   10.4239   -1.7677   22.2230 N   0  0  0  0  0  0  0  0  0  0  0  0
    9.9468   -4.5953   20.1709 C   0  0  0  0  0  0  0  0  0  0  0  0
   10.0366   -3.0590   23.9864 N   0  0  0  0  0  0  0  0  0  0  0  0
    7.1191   -7.3636   15.7739 C   0  0  0  0  0  0  0  0  0  0  0  0
    5.9612   -8.3203   17.2732 N   0  0  0  0  0  0  0  0  0  0  0  0
    8.5296   -5.9814   17.1841 C   0  0  0  0  0  0  0  0  0  0  0  0
    9.1527   -5.2118   16.2116 C   0  0  0  0  0  0  0  0  0  0  0  0
   10.3364   -3.8368   22.9255 O   0  0  0  0  0  0  0  0  0  0  0  0
    9.6947   -4.8407   18.8534 C   0  0  0  0  0  0  0  0  0  0  0  0
    9.1596    1.7042   24.1381 C   0  0  0  0  0  0  0  0  0  0  0  0
   11.0456   -2.9774   18.2694 N   0  0  0  0  0  0  0  0  0  0  0  0
   10.4788   -3.0457   21.8593 C   0  0  0  0  0  0  0  0  0  0  0  0
    8.8693   -5.8099   18.4657 N   0  0  0  0  0  0  0  0  0  0  0  0
    8.9892   -0.7926   25.4573 C   0  0  0  0  0  0  0  0  0  0  0  0
   10.5677   -3.4462   20.5323 C   0  0  0  0  0  0  0  0  0  0  0  0
  1  8  1  0
  1 12  4  0
  1 14  4  0
  2  3  4  0
  2 18  4  0
  3 20  4  0
  3 22  4  0
  4 11  4  0
  4 21  4  0
  5  9  4  0
  5 16  4  0
  6 15  4  0
  6 16  4  0
  7 22  4  0
  7 26  4  0
  8 10  4  0
  8 25  4  0
  9 15  4  0
  9 17  1  0
 10 21  4  0
 11 25  4  0
 12 23  4  0
 13 20  4  0
 13 26  4  0
 14 19  4  0
 17 18  4  0
 17 24  4  0
 19 23  4  0
 20 24  4  0
 23 26  1  0
M  END
$$$$

 Created by Python create_sdf_string function

 26 30  0  0  0  0  0  0  0  0999 V2000
   10.0084   -1.8019   23.4945 C   0  0  0  0  0  0  0  0  0  0  0  0
   10.0005   -4.2520   16.5631 C   0  0  0  0  0  0  0  0  0  0  0  0
   10.2759   -4.0036   17.8845 C   0  0  0  0  0  0  0  0  0  0  0  0
    8.5652    1.5478   25.3778 N   0  0  0  0  0  0  0  0  0  0  0  0
    6.8048   -7.5457   17.8752 C   0  0  0  0  0  0  0  0  0  0  0  0
    6.1721   -8.2186   15.9886 N   0  0  0  0  0  0  0  0  0  0  0  0
   11.1764   -2.6600   19.5604 C   0  0  0  0  0  0  0  0  0  0  0  0
    9.5491   -0.6380   24.1912 C   0  0  0  0  0  0  0  0  0  0  0  0
    7.5337   -6.9256   16.9519 C   0  0  0  0  0  0  0  0  0  0  0  0
    9.6782    0.5671   23.5143 C   0  0  0  0  0  0  0  0  0  0  0  0
    8.4532    0.3482   26.0821 C   0  0  0  0  0  0  0  0  0  0  0  0
   10.4239   -1.7677   22.2230 N   0  0  0  0  0  0  0  0  0  0  0  0
    9.9468   -4.5953   20.1709 C   0  0  0  0  0  0  0  0  0  0  0  0
   10.0366   -3.0590   23.9864 N   0  0  0  0  0  0  0  0  0  0  0  0
    7.1191   -7.3636   15.7739 C   0  0  0  0  0  0  0  0  0  0  0  0
    5.9612   -8.3203   17.2732 N   0  0  0  0  0  0  0  0  0  0  0  0
    8.5296   -5.9814   17.1841 C   0  0  0  0  0  0  0  0  0  0  0  0
    9.1527   -5.2118   16.2116 C   0  0  0  0  0  0  0  0  0  0  0  0
   10.3364   -3.8368   22.9255 O   0  0  0  0  0  0  0  0  0  0  0  0
    9.6947   -4.8407   18.8534 C   0  0  0  0  0  0  0  0  0  0  0  0
    9.1596    1.7042   24.1381 C   0  0  0  0  0  0  0  0  0  0  0  0
   11.0456   -2.9774   18.2694 N   0  0  0  0  0  0  0  0  0  0  0  0
   10.4788   -3.0457   21.8593 C   0  0  0  0  0  0  0  0  0  0  0  0
    8.8693   -5.8099   18.4657 N   0  0  0  0  0  0  0  0  0  0  0  0
    8.9892   -0.7926   25.4573 C   0  0  0  0  0  0  0  0  0  0  0  0
   10.5677   -3.4462   20.5323 C   0  0  0  0  0  0  0  0  0  0  0  0
  1  8  1  0
  1 12  4  0
  1 14  4  0
  2  3  4  0
  2 18  4  0
  3 20  4  0
  3 22  4  0
  4 11  4  0
  4 21  4  0
  5  9  4  0
  5 16  4  0
  6 15  4  0
  6 16  4  0
  7 22  4  0
  7 26  4  0
  8 10  4  0
  8 25  4  0
  9 15  4  0
  9 17  1  0
 10 21  4  0
 11 25  4  0
 12 23  4  0
 13 20  4  0
 13 26  4  0
 14 19  4  0
 17 18  4  0
 17 24  4  0
 19 23  4  0
 20 24  4  0
 23 26  1  0
M  END
$$$$

 Created by Python create_sdf_string function

 26 30  0  0  0  0  0  0  0  0999 V2000
   10.0084   -1.8019   23.4945 C   0  0  0  0  0  0  0  0  0  0  0  0
   10.0005   -4.2520   16.5631 C   0  0  0  0  0  0  0  0  0  0  0  0
   10.2759   -4.0036   17.8845 C   0  0  0  0  0  0  0  0  0  0  0  0
    8.5652    1.5478   25.3778 N   0  0  0  0  0  0  0  0  0  0  0  0
    6.8048   -7.5457   17.8752 C   0  0  0  0  0  0  0  0  0  0  0  0
    6.1721   -8.2186   15.9886 N   0  0  0  0  0  0  0  0  0  0  0  0
   11.1764   -2.6600   19.5604 C   0  0  0  0  0  0  0  0  0  0  0  0
    9.5491   -0.6380   24.1912 C   0  0  0  0  0  0  0  0  0  0  0  0
    7.5337   -6.9256   16.9519 C   0  0  0  0  0  0  0  0  0  0  0  0
    9.6782    0.5671   23.5143 C   0  0  0  0  0  0  0  0  0  0  0  0
    8.4532    0.3482   26.0821 C   0  0  0  0  0  0  0  0  0  0  0  0
   10.4239   -1.7677   22.2230 N   0  0  0  0  0  0  0  0  0  0  0  0
    9.9468   -4.5953   20.1709 C   0  0  0  0  0  0  0  0  0  0  0  0
   10.0366   -3.0590   23.9864 N   0  0  0  0  0  0  0  0  0  0  0  0
    7.1191   -7.3636   15.7739 C   0  0  0  0  0  0  0  0  0  0  0  0
    5.9612   -8.3203   17.2732 N   0  0  0  0  0  0  0  0  0  0  0  0
    8.5296   -5.9814   17.1841 C   0  0  0  0  0  0  0  0  0  0  0  0
    9.1527   -5.2118   16.2116 C   0  0  0  0  0  0  0  0  0  0  0  0
   10.3364   -3.8368   22.9255 O   0  0  0  0  0  0  0  0  0  0  0  0
    9.6947   -4.8407   18.8534 C   0  0  0  0  0  0  0  0  0  0  0  0
    9.1596    1.7042   24.1381 C   0  0  0  0  0  0  0  0  0  0  0  0
   11.0456   -2.9774   18.2694 N   0  0  0  0  0  0  0  0  0  0  0  0
   10.4788   -3.0457   21.8593 C   0  0  0  0  0  0  0  0  0  0  0  0
    8.8693   -5.8099   18.4657 N   0  0  0  0  0  0  0  0  0  0  0  0
    8.9892   -0.7926   25.4573 C   0  0  0  0  0  0  0  0  0  0  0  0
   10.5677   -3.4462   20.5323 C   0  0  0  0  0  0  0  0  0  0  0  0
  1  8  1  0
  1 12  4  0
  1 14  4  0
  2  3  4  0
  2 18  4  0
  3 20  4  0
  3 22  4  0
  4 11  4  0
  4 21  4  0
  5  9  4  0
  5 16  4  0
  6 15  4  0
  6 16  4  0
  7 22  4  0
  7 26  4  0
  8 10  4  0
  8 25  4  0
  9 15  4  0
  9 17  1  0
 10 21  4  0
 11 25  4  0
 12 23  4  0
 13 20  4  0
 13 26  4  0
 14 19  4  0
 17 18  4  0
 17 24  4  0
 19 23  4  0
 20 24  4  0
 23 26  1  0
M  END
$$$$

 Created by Python create_sdf_string function

 26 30  0  0  0  0  0  0  0  0999 V2000
   10.0084   -1.8019   23.4945 C   0  0  0  0  0  0  0  0  0  0  0  0
   10.0005   -4.2520   16.5631 C   0  0  0  0  0  0  0  0  0  0  0  0
   10.2759   -4.0036   17.8845 C   0  0  0  0  0  0  0  0  0  0  0  0
    8.5652    1.5478   25.3778 N   0  0  0  0  0  0  0  0  0  0  0  0
    6.8048   -7.5457   17.8752 C   0  0  0  0  0  0  0  0  0  0  0  0
    6.1721   -8.2186   15.9886 N   0  0  0  0  0  0  0  0  0  0  0  0
   11.1764   -2.6600   19.5604 C   0  0  0  0  0  0  0  0  0  0  0  0
    9.5491   -0.6380   24.1912 C   0  0  0  0  0  0  0  0  0  0  0  0
    7.5337   -6.9256   16.9519 C   0  0  0  0  0  0  0  0  0  0  0  0
    9.6782    0.5671   23.5143 C   0  0  0  0  0  0  0  0  0  0  0  0
    8.4532    0.3482   26.0821 C   0  0  0  0  0  0  0  0  0  0  0  0
   10.4239   -1.7677   22.2230 N   0  0  0  0  0  0  0  0  0  0  0  0
    9.9468   -4.5953   20.1709 C   0  0  0  0  0  0  0  0  0  0  0  0
   10.0366   -3.0590   23.9864 N   0  0  0  0  0  0  0  0  0  0  0  0
    7.1191   -7.3636   15.7739 C   0  0  0  0  0  0  0  0  0  0  0  0
    5.9612   -8.3203   17.2732 N   0  0  0  0  0  0  0  0  0  0  0  0
    8.5296   -5.9814   17.1841 C   0  0  0  0  0  0  0  0  0  0  0  0
    9.1527   -5.2118   16.2116 C   0  0  0  0  0  0  0  0  0  0  0  0
   10.3364   -3.8368   22.9255 O   0  0  0  0  0  0  0  0  0  0  0  0
    9.6947   -4.8407   18.8534 C   0  0  0  0  0  0  0  0  0  0  0  0
    9.1596    1.7042   24.1381 C   0  0  0  0  0  0  0  0  0  0  0  0
   11.0456   -2.9774   18.2694 N   0  0  0  0  0  0  0  0  0  0  0  0
   10.4788   -3.0457   21.8593 C   0  0  0  0  0  0  0  0  0  0  0  0
    8.8693   -5.8099   18.4657 N   0  0  0  0  0  0  0  0  0  0  0  0
    8.9892   -0.7926   25.4573 C   0  0  0  0  0  0  0  0  0  0  0  0
   10.5677   -3.4462   20.5323 C   0  0  0  0  0  0  0  0  0  0  0  0
  1  8  1  0
  1 12  4  0
  1 14  4  0
  2  3  4  0
  2 18  4  0
  3 20  4  0
  3 22  4  0
  4 11  4  0
  4 21  4  0
  5  9  4  0
  5 16  4  0
  6 15  4  0
  6 16  4  0
  7 22  4  0
  7 26  4  0
  8 10  4  0
  8 25  4  0
  9 15  4  0
  9 17  1  0
 10 21  4  0
 11 25  4  0
 12 23  4  0
 13 20  4  0
 13 26  4  0
 14 19  4  0
 17 18  4  0
 17 24  4  0
 19 23  4  0
 20 24  4  0
 23 26  1  0
M  END
$$$$

 Created by Python create_sdf_string function

 26 30  0  0  0  0  0  0  0  0999 V2000
   10.0084   -1.8019   23.4945 C   0  0  0  0  0  0  0  0  0  0  0  0
   10.0005   -4.2520   16.5631 C   0  0  0  0  0  0  0  0  0  0  0  0
   10.2759   -4.0036   17.8845 C   0  0  0  0  0  0  0  0  0  0  0  0
    8.5652    1.5478   25.3778 N   0  0  0  0  0  0  0  0  0  0  0  0
    6.8048   -7.5457   17.8752 C   0  0  0  0  0  0  0  0  0  0  0  0
    6.1721   -8.2186   15.9886 N   0  0  0  0  0  0  0  0  0  0  0  0
   11.1764   -2.6600   19.5604 C   0  0  0  0  0  0  0  0  0  0  0  0
    9.5491   -0.6380   24.1912 C   0  0  0  0  0  0  0  0  0  0  0  0
    7.5337   -6.9256   16.9519 C   0  0  0  0  0  0  0  0  0  0  0  0
    9.6782    0.5671   23.5143 C   0  0  0  0  0  0  0  0  0  0  0  0
    8.4532    0.3482   26.0821 C   0  0  0  0  0  0  0  0  0  0  0  0
   10.4239   -1.7677   22.2230 N   0  0  0  0  0  0  0  0  0  0  0  0
    9.9468   -4.5953   20.1709 C   0  0  0  0  0  0  0  0  0  0  0  0
   10.0366   -3.0590   23.9864 N   0  0  0  0  0  0  0  0  0  0  0  0
    7.1191   -7.3636   15.7739 C   0  0  0  0  0  0  0  0  0  0  0  0
    5.9612   -8.3203   17.2732 N   0  0  0  0  0  0  0  0  0  0  0  0
    8.5296   -5.9814   17.1841 C   0  0  0  0  0  0  0  0  0  0  0  0
    9.1527   -5.2118   16.2116 C   0  0  0  0  0  0  0  0  0  0  0  0
   10.3364   -3.8368   22.9255 O   0  0  0  0  0  0  0  0  0  0  0  0
    9.6947   -4.8407   18.8534 C   0  0  0  0  0  0  0  0  0  0  0  0
    9.1596    1.7042   24.1381 C   0  0  0  0  0  0  0  0  0  0  0  0
   11.0456   -2.9774   18.2694 N   0  0  0  0  0  0  0  0  0  0  0  0
   10.4788   -3.0457   21.8593 C   0  0  0  0  0  0  0  0  0  0  0  0
    8.8693   -5.8099   18.4657 N   0  0  0  0  0  0  0  0  0  0  0  0
    8.9892   -0.7926   25.4573 C   0  0  0  0  0  0  0  0  0  0  0  0
   10.5677   -3.4462   20.5323 C   0  0  0  0  0  0  0  0  0  0  0  0
  1  8  1  0
  1 12  4  0
  1 14  4  0
  2  3  4  0
  2 18  4  0
  3 20  4  0
  3 22  4  0
  4 11  4  0
  4 21  4  0
  5  9  4  0
  5 16  4  0
  6 15  4  0
  6 16  4  0
  7 22  4  0
  7 26  4  0
  8 10  4  0
  8 25  4  0
  9 15  4  0
  9 17  1  0
 10 21  4  0
 11 25  4  0
 12 23  4  0
 13 20  4  0
 13 26  4  0
 14 19  4  0
 17 18  4  0
 17 24  4  0
 19 23  4  0
 20 24  4  0
 23 26  1  0
M  END
$$$$

 Created by Python create_sdf_string function

 26 30  0  0  0  0  0  0  0  0999 V2000
   10.0084   -1.8019   23.4945 C   0  0  0  0  0  0  0  0  0  0  0  0
   10.0005   -4.2520   16.5631 C   0  0  0  0  0  0  0  0  0  0  0  0
   10.2759   -4.0036   17.8845 C   0  0  0  0  0  0  0  0  0  0  0  0
    8.5652    1.5478   25.3778 N   0  0  0  0  0  0  0  0  0  0  0  0
    6.8048   -7.5457   17.8752 C   0  0  0  0  0  0  0  0  0  0  0  0
    6.1721   -8.2186   15.9886 N   0  0  0  0  0  0  0  0  0  0  0  0
   11.1764   -2.6600   19.5604 C   0  0  0  0  0  0  0  0  0  0  0  0
    9.5491   -0.6380   24.1912 C   0  0  0  0  0  0  0  0  0  0  0  0
    7.5337   -6.9256   16.9519 C   0  0  0  0  0  0  0  0  0  0  0  0
    9.6782    0.5671   23.5143 C   0  0  0  0  0  0  0  0  0  0  0  0
    8.4532    0.3482   26.0821 C   0  0  0  0  0  0  0  0  0  0  0  0
   10.4239   -1.7677   22.2230 N   0  0  0  0  0  0  0  0  0  0  0  0
    9.9468   -4.5953   20.1709 C   0  0  0  0  0  0  0  0  0  0  0  0
   10.0366   -3.0590   23.9864 N   0  0  0  0  0  0  0  0  0  0  0  0
    7.1191   -7.3636   15.7739 C   0  0  0  0  0  0  0  0  0  0  0  0
    5.9612   -8.3203   17.2732 N   0  0  0  0  0  0  0  0  0  0  0  0
    8.5296   -5.9814   17.1841 C   0  0  0  0  0  0  0  0  0  0  0  0
    9.1527   -5.2118   16.2116 C   0  0  0  0  0  0  0  0  0  0  0  0
   10.3364   -3.8368   22.9255 O   0  0  0  0  0  0  0  0  0  0  0  0
    9.6947   -4.8407   18.8534 C   0  0  0  0  0  0  0  0  0  0  0  0
    9.1596    1.7042   24.1381 C   0  0  0  0  0  0  0  0  0  0  0  0
   11.0456   -2.9774   18.2694 N   0  0  0  0  0  0  0  0  0  0  0  0
   10.4788   -3.0457   21.8593 C   0  0  0  0  0  0  0  0  0  0  0  0
    8.8693   -5.8099   18.4657 N   0  0  0  0  0  0  0  0  0  0  0  0
    8.9892   -0.7926   25.4573 C   0  0  0  0  0  0  0  0  0  0  0  0
   10.5677   -3.4462   20.5323 C   0  0  0  0  0  0  0  0  0  0  0  0
  1  8  1  0
  1 12  4  0
  1 14  4  0
  2  3  4  0
  2 18  4  0
  3 20  4  0
  3 22  4  0
  4 11  4  0
  4 21  4  0
  5  9  4  0
  5 16  4  0
  6 15  4  0
  6 16  4  0
  7 22  4  0
  7 26  4  0
  8 10  4  0
  8 25  4  0
  9 15  4  0
  9 17  1  0
 10 21  4  0
 11 25  4  0
 12 23  4  0
 13 20  4  0
 13 26  4  0
 14 19  4  0
 17 18  4  0
 17 24  4  0
 19 23  4  0
 20 24  4  0
 23 26  1  0
M  END
$$$$

 Created by Python create_sdf_string function

 26 30  0  0  0  0  0  0  0  0999 V2000
   10.0084   -1.8019   23.4945 C   0  0  0  0  0  0  0  0  0  0  0  0
   10.0005   -4.2520   16.5631 C   0  0  0  0  0  0  0  0  0  0  0  0
   10.2759   -4.0036   17.8845 C   0  0  0  0  0  0  0  0  0  0  0  0
    8.5652    1.5478   25.3778 N   0  0  0  0  0  0  0  0  0  0  0  0
    6.8048   -7.5457   17.8752 C   0  0  0  0  0  0  0  0  0  0  0  0
    6.1721   -8.2186   15.9886 N   0  0  0  0  0  0  0  0  0  0  0  0
   11.1764   -2.6600   19.5604 C   0  0  0  0  0  0  0  0  0  0  0  0
    9.5491   -0.6380   24.1912 C   0  0  0  0  0  0  0  0  0  0  0  0
    7.5337   -6.9256   16.9519 C   0  0  0  0  0  0  0  0  0  0  0  0
    9.6782    0.5671   23.5143 C   0  0  0  0  0  0  0  0  0  0  0  0
    8.4532    0.3482   26.0821 C   0  0  0  0  0  0  0  0  0  0  0  0
   10.4239   -1.7677   22.2230 N   0  0  0  0  0  0  0  0  0  0  0  0
    9.9468   -4.5953   20.1709 C   0  0  0  0  0  0  0  0  0  0  0  0
   10.0366   -3.0590   23.9864 N   0  0  0  0  0  0  0  0  0  0  0  0
    7.1191   -7.3636   15.7739 C   0  0  0  0  0  0  0  0  0  0  0  0
    5.9612   -8.3203   17.2732 N   0  0  0  0  0  0  0  0  0  0  0  0
    8.5296   -5.9814   17.1841 C   0  0  0  0  0  0  0  0  0  0  0  0
    9.1527   -5.2118   16.2116 C   0  0  0  0  0  0  0  0  0  0  0  0
   10.3364   -3.8368   22.9255 O   0  0  0  0  0  0  0  0  0  0  0  0
    9.6947   -4.8407   18.8534 C   0  0  0  0  0  0  0  0  0  0  0  0
    9.1596    1.7042   24.1381 C   0  0  0  0  0  0  0  0  0  0  0  0
   11.0456   -2.9774   18.2694 N   0  0  0  0  0  0  0  0  0  0  0  0
   10.4788   -3.0457   21.8593 C   0  0  0  0  0  0  0  0  0  0  0  0
    8.8693   -5.8099   18.4657 N   0  0  0  0  0  0  0  0  0  0  0  0
    8.9892   -0.7926   25.4573 C   0  0  0  0  0  0  0  0  0  0  0  0
   10.5677   -3.4462   20.5323 C   0  0  0  0  0  0  0  0  0  0  0  0
  1  8  1  0
  1 12  4  0
  1 14  4  0
  2  3  4  0
  2 18  4  0
  3 20  4  0
  3 22  4  0
  4 11  4  0
  4 21  4  0
  5  9  4  0
  5 16  4  0
  6 15  4  0
  6 16  4  0
  7 22  4  0
  7 26  4  0
  8 10  4  0
  8 25  4  0
  9 15  4  0
  9 17  1  0
 10 21  4  0
 11 25  4  0
 12 23  4  0
 13 20  4  0
 13 26  4  0
 14 19  4  0
 17 18  4  0
 17 24  4  0
 19 23  4  0
 20 24  4  0
 23 26  1  0
M  END
$$$$

 Created by Python create_sdf_string function

 26 30  0  0  0  0  0  0  0  0999 V2000
   10.0084   -1.8019   23.4945 C   0  0  0  0  0  0  0  0  0  0  0  0
   10.0005   -4.2520   16.5631 C   0  0  0  0  0  0  0  0  0  0  0  0
   10.2759   -4.0036   17.8845 C   0  0  0  0  0  0  0  0  0  0  0  0
    8.5652    1.5478   25.3778 N   0  0  0  0  0  0  0  0  0  0  0  0
    6.8048   -7.5457   17.8752 C   0  0  0  0  0  0  0  0  0  0  0  0
    6.1721   -8.2186   15.9886 N   0  0  0  0  0  0  0  0  0  0  0  0
   11.1764   -2.6600   19.5604 C   0  0  0  0  0  0  0  0  0  0  0  0
    9.5491   -0.6380   24.1912 C   0  0  0  0  0  0  0  0  0  0  0  0
    7.5337   -6.9256   16.9519 C   0  0  0  0  0  0  0  0  0  0  0  0
    9.6782    0.5671   23.5143 C   0  0  0  0  0  0  0  0  0  0  0  0
    8.4532    0.3482   26.0821 C   0  0  0  0  0  0  0  0  0  0  0  0
   10.4239   -1.7677   22.2230 N   0  0  0  0  0  0  0  0  0  0  0  0
    9.9468   -4.5953   20.1709 C   0  0  0  0  0  0  0  0  0  0  0  0
   10.0366   -3.0590   23.9864 N   0  0  0  0  0  0  0  0  0  0  0  0
    7.1191   -7.3636   15.7739 C   0  0  0  0  0  0  0  0  0  0  0  0
    5.9612   -8.3203   17.2732 N   0  0  0  0  0  0  0  0  0  0  0  0
    8.5296   -5.9814   17.1841 C   0  0  0  0  0  0  0  0  0  0  0  0
    9.1527   -5.2118   16.2116 C   0  0  0  0  0  0  0  0  0  0  0  0
   10.3364   -3.8368   22.9255 O   0  0  0  0  0  0  0  0  0  0  0  0
    9.6947   -4.8407   18.8534 C   0  0  0  0  0  0  0  0  0  0  0  0
    9.1596    1.7042   24.1381 C   0  0  0  0  0  0  0  0  0  0  0  0
   11.0456   -2.9774   18.2694 N   0  0  0  0  0  0  0  0  0  0  0  0
   10.4788   -3.0457   21.8593 C   0  0  0  0  0  0  0  0  0  0  0  0
    8.8693   -5.8099   18.4657 N   0  0  0  0  0  0  0  0  0  0  0  0
    8.9892   -0.7926   25.4573 C   0  0  0  0  0  0  0  0  0  0  0  0
   10.5677   -3.4462   20.5323 C   0  0  0  0  0  0  0  0  0  0  0  0
  1  8  1  0
  1 12  4  0
  1 14  4  0
  2  3  4  0
  2 18  4  0
  3 20  4  0
  3 22  4  0
  4 11  4  0
  4 21  4  0
  5  9  4  0
  5 16  4  0
  6 15  4  0
  6 16  4  0
  7 22  4  0
  7 26  4  0
  8 10  4  0
  8 25  4  0
  9 15  4  0
  9 17  1  0
 10 21  4  0
 11 25  4  0
 12 23  4  0
 13 20  4  0
 13 26  4  0
 14 19  4  0
 17 18  4  0
 17 24  4  0
 19 23  4  0
 20 24  4  0
 23 26  1  0
M  END
$$$$

 Created by Python create_sdf_string function

 26 30  0  0  0  0  0  0  0  0999 V2000
   10.0084   -1.8019   23.4945 C   0  0  0  0  0  0  0  0  0  0  0  0
   10.0005   -4.2520   16.5631 C   0  0  0  0  0  0  0  0  0  0  0  0
   10.2759   -4.0036   17.8845 C   0  0  0  0  0  0  0  0  0  0  0  0
    8.5652    1.5478   25.3778 N   0  0  0  0  0  0  0  0  0  0  0  0
    6.8048   -7.5457   17.8752 C   0  0  0  0  0  0  0  0  0  0  0  0
    6.1721   -8.2186   15.9886 N   0  0  0  0  0  0  0  0  0  0  0  0
   11.1764   -2.6600   19.5604 C   0  0  0  0  0  0  0  0  0  0  0  0
    9.5491   -0.6380   24.1912 C   0  0  0  0  0  0  0  0  0  0  0  0
    7.5337   -6.9256   16.9519 C   0  0  0  0  0  0  0  0  0  0  0  0
    9.6782    0.5671   23.5143 C   0  0  0  0  0  0  0  0  0  0  0  0
    8.4532    0.3482   26.0821 C   0  0  0  0  0  0  0  0  0  0  0  0
   10.4239   -1.7677   22.2230 N   0  0  0  0  0  0  0  0  0  0  0  0
    9.9468   -4.5953   20.1709 C   0  0  0  0  0  0  0  0  0  0  0  0
   10.0366   -3.0590   23.9864 N   0  0  0  0  0  0  0  0  0  0  0  0
    7.1191   -7.3636   15.7739 C   0  0  0  0  0  0  0  0  0  0  0  0
    5.9612   -8.3203   17.2732 N   0  0  0  0  0  0  0  0  0  0  0  0
    8.5296   -5.9814   17.1841 C   0  0  0  0  0  0  0  0  0  0  0  0
    9.1527   -5.2118   16.2116 C   0  0  0  0  0  0  0  0  0  0  0  0
   10.3364   -3.8368   22.9255 O   0  0  0  0  0  0  0  0  0  0  0  0
    9.6947   -4.8407   18.8534 C   0  0  0  0  0  0  0  0  0  0  0  0
    9.1596    1.7042   24.1381 C   0  0  0  0  0  0  0  0  0  0  0  0
   11.0456   -2.9774   18.2694 N   0  0  0  0  0  0  0  0  0  0  0  0
   10.4788   -3.0457   21.8593 C   0  0  0  0  0  0  0  0  0  0  0  0
    8.8693   -5.8099   18.4657 N   0  0  0  0  0  0  0  0  0  0  0  0
    8.9892   -0.7926   25.4573 C   0  0  0  0  0  0  0  0  0  0  0  0
   10.5677   -3.4462   20.5323 C   0  0  0  0  0  0  0  0  0  0  0  0
  1  8  1  0
  1 12  4  0
  1 14  4  0
  2  3  4  0
  2 18  4  0
  3 20  4  0
  3 22  4  0
  4 11  4  0
  4 21  4  0
  5  9  4  0
  5 16  4  0
  6 15  4  0
  6 16  4  0
  7 22  4  0
  7 26  4  0
  8 10  4  0
  8 25  4  0
  9 15  4  0
  9 17  1  0
 10 21  4  0
 11 25  4  0
 12 23  4  0
 13 20  4  0
 13 26  4  0
 14 19  4  0
 17 18  4  0
 17 24  4  0
 19 23  4  0
 20 24  4  0
 23 26  1  0
M  END
$$$$

 Created by Python create_sdf_string function

 26 30  0  0  0  0  0  0  0  0999 V2000
   10.0084   -1.8019   23.4945 C   0  0  0  0  0  0  0  0  0  0  0  0
   10.0005   -4.2520   16.5631 C   0  0  0  0  0  0  0  0  0  0  0  0
   10.2759   -4.0036   17.8845 C   0  0  0  0  0  0  0  0  0  0  0  0
    8.5652    1.5478   25.3778 N   0  0  0  0  0  0  0  0  0  0  0  0
    6.8048   -7.5457   17.8752 C   0  0  0  0  0  0  0  0  0  0  0  0
    6.1721   -8.2186   15.9886 N   0  0  0  0  0  0  0  0  0  0  0  0
   11.1764   -2.6600   19.5604 C   0  0  0  0  0  0  0  0  0  0  0  0
    9.5491   -0.6380   24.1912 C   0  0  0  0  0  0  0  0  0  0  0  0
    7.5337   -6.9256   16.9519 C   0  0  0  0  0  0  0  0  0  0  0  0
    9.6782    0.5671   23.5143 C   0  0  0  0  0  0  0  0  0  0  0  0
    8.4532    0.3482   26.0821 C   0  0  0  0  0  0  0  0  0  0  0  0
   10.4239   -1.7677   22.2230 N   0  0  0  0  0  0  0  0  0  0  0  0
    9.9468   -4.5953   20.1709 C   0  0  0  0  0  0  0  0  0  0  0  0
   10.0366   -3.0590   23.9864 N   0  0  0  0  0  0  0  0  0  0  0  0
    7.1191   -7.3636   15.7739 C   0  0  0  0  0  0  0  0  0  0  0  0
    5.9612   -8.3203   17.2732 N   0  0  0  0  0  0  0  0  0  0  0  0
    8.5296   -5.9814   17.1841 C   0  0  0  0  0  0  0  0  0  0  0  0
    9.1527   -5.2118   16.2116 C   0  0  0  0  0  0  0  0  0  0  0  0
   10.3364   -3.8368   22.9255 O   0  0  0  0  0  0  0  0  0  0  0  0
    9.6947   -4.8407   18.8534 C   0  0  0  0  0  0  0  0  0  0  0  0
    9.1596    1.7042   24.1381 C   0  0  0  0  0  0  0  0  0  0  0  0
   11.0456   -2.9774   18.2694 N   0  0  0  0  0  0  0  0  0  0  0  0
   10.4788   -3.0457   21.8593 C   0  0  0  0  0  0  0  0  0  0  0  0
    8.8693   -5.8099   18.4657 N   0  0  0  0  0  0  0  0  0  0  0  0
    8.9892   -0.7926   25.4573 C   0  0  0  0  0  0  0  0  0  0  0  0
   10.5677   -3.4462   20.5323 C   0  0  0  0  0  0  0  0  0  0  0  0
  1  8  1  0
  1 12  4  0
  1 14  4  0
  2  3  4  0
  2 18  4  0
  3 20  4  0
  3 22  4  0
  4 11  4  0
  4 21  4  0
  5  9  4  0
  5 16  4  0
  6 15  4  0
  6 16  4  0
  7 22  4  0
  7 26  4  0
  8 10  4  0
  8 25  4  0
  9 15  4  0
  9 17  1  0
 10 21  4  0
 11 25  4  0
 12 23  4  0
 13 20  4  0
 13 26  4  0
 14 19  4  0
 17 18  4  0
 17 24  4  0
 19 23  4  0
 20 24  4  0
 23 26  1  0
M  END
$$$$

 Created by Python create_sdf_string function

 26 30  0  0  0  0  0  0  0  0999 V2000
   10.0084   -1.8019   23.4945 C   0  0  0  0  0  0  0  0  0  0  0  0
   10.0005   -4.2520   16.5631 C   0  0  0  0  0  0  0  0  0  0  0  0
   10.2759   -4.0036   17.8845 C   0  0  0  0  0  0  0  0  0  0  0  0
    8.5652    1.5478   25.3778 N   0  0  0  0  0  0  0  0  0  0  0  0
    6.8048   -7.5457   17.8752 C   0  0  0  0  0  0  0  0  0  0  0  0
    6.1721   -8.2186   15.9886 N   0  0  0  0  0  0  0  0  0  0  0  0
   11.1764   -2.6600   19.5604 C   0  0  0  0  0  0  0  0  0  0  0  0
    9.5491   -0.6380   24.1912 C   0  0  0  0  0  0  0  0  0  0  0  0
    7.5337   -6.9256   16.9519 C   0  0  0  0  0  0  0  0  0  0  0  0
    9.6782    0.5671   23.5143 C   0  0  0  0  0  0  0  0  0  0  0  0
    8.4532    0.3482   26.0821 C   0  0  0  0  0  0  0  0  0  0  0  0
   10.4239   -1.7677   22.2230 N   0  0  0  0  0  0  0  0  0  0  0  0
    9.9468   -4.5953   20.1709 C   0  0  0  0  0  0  0  0  0  0  0  0
   10.0366   -3.0590   23.9864 N   0  0  0  0  0  0  0  0  0  0  0  0
    7.1191   -7.3636   15.7739 C   0  0  0  0  0  0  0  0  0  0  0  0
    5.9612   -8.3203   17.2732 N   0  0  0  0  0  0  0  0  0  0  0  0
    8.5296   -5.9814   17.1841 C   0  0  0  0  0  0  0  0  0  0  0  0
    9.1527   -5.2118   16.2116 C   0  0  0  0  0  0  0  0  0  0  0  0
   10.3364   -3.8368   22.9255 O   0  0  0  0  0  0  0  0  0  0  0  0
    9.6947   -4.8407   18.8534 C   0  0  0  0  0  0  0  0  0  0  0  0
    9.1596    1.7042   24.1381 C   0  0  0  0  0  0  0  0  0  0  0  0
   11.0456   -2.9774   18.2694 N   0  0  0  0  0  0  0  0  0  0  0  0
   10.4788   -3.0457   21.8593 C   0  0  0  0  0  0  0  0  0  0  0  0
    8.8693   -5.8099   18.4657 N   0  0  0  0  0  0  0  0  0  0  0  0
    8.9892   -0.7926   25.4573 C   0  0  0  0  0  0  0  0  0  0  0  0
   10.5677   -3.4462   20.5323 C   0  0  0  0  0  0  0  0  0  0  0  0
  1  8  1  0
  1 12  4  0
  1 14  4  0
  2  3  4  0
  2 18  4  0
  3 20  4  0
  3 22  4  0
  4 11  4  0
  4 21  4  0
  5  9  4  0
  5 16  4  0
  6 15  4  0
  6 16  4  0
  7 22  4  0
  7 26  4  0
  8 10  4  0
  8 25  4  0
  9 15  4  0
  9 17  1  0
 10 21  4  0
 11 25  4  0
 12 23  4  0
 13 20  4  0
 13 26  4  0
 14 19  4  0
 17 18  4  0
 17 24  4  0
 19 23  4  0
 20 24  4  0
 23 26  1  0
M  END
$$$$

 Created by Python create_sdf_string function

 26 30  0  0  0  0  0  0  0  0999 V2000
   10.0084   -1.8019   23.4945 C   0  0  0  0  0  0  0  0  0  0  0  0
   10.0005   -4.2520   16.5631 C   0  0  0  0  0  0  0  0  0  0  0  0
   10.2759   -4.0036   17.8845 C   0  0  0  0  0  0  0  0  0  0  0  0
    8.5652    1.5478   25.3778 N   0  0  0  0  0  0  0  0  0  0  0  0
    6.8048   -7.5457   17.8752 C   0  0  0  0  0  0  0  0  0  0  0  0
    6.1721   -8.2186   15.9886 N   0  0  0  0  0  0  0  0  0  0  0  0
   11.1764   -2.6600   19.5604 C   0  0  0  0  0  0  0  0  0  0  0  0
    9.5491   -0.6380   24.1912 C   0  0  0  0  0  0  0  0  0  0  0  0
    7.5337   -6.9256   16.9519 C   0  0  0  0  0  0  0  0  0  0  0  0
    9.6782    0.5671   23.5143 C   0  0  0  0  0  0  0  0  0  0  0  0
    8.4532    0.3482   26.0821 C   0  0  0  0  0  0  0  0  0  0  0  0
   10.4239   -1.7677   22.2230 N   0  0  0  0  0  0  0  0  0  0  0  0
    9.9468   -4.5953   20.1709 C   0  0  0  0  0  0  0  0  0  0  0  0
   10.0366   -3.0590   23.9864 N   0  0  0  0  0  0  0  0  0  0  0  0
    7.1191   -7.3636   15.7739 C   0  0  0  0  0  0  0  0  0  0  0  0
    5.9612   -8.3203   17.2732 N   0  0  0  0  0  0  0  0  0  0  0  0
    8.5296   -5.9814   17.1841 C   0  0  0  0  0  0  0  0  0  0  0  0
    9.1527   -5.2118   16.2116 C   0  0  0  0  0  0  0  0  0  0  0  0
   10.3364   -3.8368   22.9255 O   0  0  0  0  0  0  0  0  0  0  0  0
    9.6947   -4.8407   18.8534 C   0  0  0  0  0  0  0  0  0  0  0  0
    9.1596    1.7042   24.1381 C   0  0  0  0  0  0  0  0  0  0  0  0
   11.0456   -2.9774   18.2694 N   0  0  0  0  0  0  0  0  0  0  0  0
   10.4788   -3.0457   21.8593 C   0  0  0  0  0  0  0  0  0  0  0  0
    8.8693   -5.8099   18.4657 N   0  0  0  0  0  0  0  0  0  0  0  0
    8.9892   -0.7926   25.4573 C   0  0  0  0  0  0  0  0  0  0  0  0
   10.5677   -3.4462   20.5323 C   0  0  0  0  0  0  0  0  0  0  0  0
  1  8  1  0
  1 12  4  0
  1 14  4  0
  2  3  4  0
  2 18  4  0
  3 20  4  0
  3 22  4  0
  4 11  4  0
  4 21  4  0
  5  9  4  0
  5 16  4  0
  6 15  4  0
  6 16  4  0
  7 22  4  0
  7 26  4  0
  8 10  4  0
  8 25  4  0
  9 15  4  0
  9 17  1  0
 10 21  4  0
 11 25  4  0
 12 23  4  0
 13 20  4  0
 13 26  4  0
 14 19  4  0
 17 18  4  0
 17 24  4  0
 19 23  4  0
 20 24  4  0
 23 26  1  0
M  END
$$$$

 Created by Python create_sdf_string function

 26 30  0  0  0  0  0  0  0  0999 V2000
   10.0084   -1.8019   23.4945 C   0  0  0  0  0  0  0  0  0  0  0  0
   10.0005   -4.2520   16.5631 C   0  0  0  0  0  0  0  0  0  0  0  0
   10.2759   -4.0036   17.8845 C   0  0  0  0  0  0  0  0  0  0  0  0
    8.5652    1.5478   25.3778 N   0  0  0  0  0  0  0  0  0  0  0  0
    6.8048   -7.5457   17.8752 C   0  0  0  0  0  0  0  0  0  0  0  0
    6.1721   -8.2186   15.9886 N   0  0  0  0  0  0  0  0  0  0  0  0
   11.1764   -2.6600   19.5604 C   0  0  0  0  0  0  0  0  0  0  0  0
    9.5491   -0.6380   24.1912 C   0  0  0  0  0  0  0  0  0  0  0  0
    7.5337   -6.9256   16.9519 C   0  0  0  0  0  0  0  0  0  0  0  0
    9.6782    0.5671   23.5143 C   0  0  0  0  0  0  0  0  0  0  0  0
    8.4532    0.3482   26.0821 C   0  0  0  0  0  0  0  0  0  0  0  0
   10.4239   -1.7677   22.2230 N   0  0  0  0  0  0  0  0  0  0  0  0
    9.9468   -4.5953   20.1709 C   0  0  0  0  0  0  0  0  0  0  0  0
   10.0366   -3.0590   23.9864 N   0  0  0  0  0  0  0  0  0  0  0  0
    7.1191   -7.3636   15.7739 C   0  0  0  0  0  0  0  0  0  0  0  0
    5.9612   -8.3203   17.2732 N   0  0  0  0  0  0  0  0  0  0  0  0
    8.5296   -5.9814   17.1841 C   0  0  0  0  0  0  0  0  0  0  0  0
    9.1527   -5.2118   16.2116 C   0  0  0  0  0  0  0  0  0  0  0  0
   10.3364   -3.8368   22.9255 O   0  0  0  0  0  0  0  0  0  0  0  0
    9.6947   -4.8407   18.8534 C   0  0  0  0  0  0  0  0  0  0  0  0
    9.1596    1.7042   24.1381 C   0  0  0  0  0  0  0  0  0  0  0  0
   11.0456   -2.9774   18.2694 N   0  0  0  0  0  0  0  0  0  0  0  0
   10.4788   -3.0457   21.8593 C   0  0  0  0  0  0  0  0  0  0  0  0
    8.8693   -5.8099   18.4657 N   0  0  0  0  0  0  0  0  0  0  0  0
    8.9892   -0.7926   25.4573 C   0  0  0  0  0  0  0  0  0  0  0  0
   10.5677   -3.4462   20.5323 C   0  0  0  0  0  0  0  0  0  0  0  0
  1  8  1  0
  1 12  4  0
  1 14  4  0
  2  3  4  0
  2 18  4  0
  3 20  4  0
  3 22  4  0
  4 11  4  0
  4 21  4  0
  5  9  4  0
  5 16  4  0
  6 15  4  0
  6 16  4  0
  7 22  4  0
  7 26  4  0
  8 10  4  0
  8 25  4  0
  9 15  4  0
  9 17  1  0
 10 21  4  0
 11 25  4  0
 12 23  4  0
 13 20  4  0
 13 26  4  0
 14 19  4  0
 17 18  4  0
 17 24  4  0
 19 23  4  0
 20 24  4  0
 23 26  1  0
M  END
$$$$

 Created by Python create_sdf_string function

 26 30  0  0  0  0  0  0  0  0999 V2000
   10.0084   -1.8019   23.4945 C   0  0  0  0  0  0  0  0  0  0  0  0
   10.0005   -4.2520   16.5631 C   0  0  0  0  0  0  0  0  0  0  0  0
   10.2759   -4.0036   17.8845 C   0  0  0  0  0  0  0  0  0  0  0  0
    8.5652    1.5478   25.3778 N   0  0  0  0  0  0  0  0  0  0  0  0
    6.8048   -7.5457   17.8752 C   0  0  0  0  0  0  0  0  0  0  0  0
    6.1721   -8.2186   15.9886 N   0  0  0  0  0  0  0  0  0  0  0  0
   11.1764   -2.6600   19.5604 C   0  0  0  0  0  0  0  0  0  0  0  0
    9.5491   -0.6380   24.1912 C   0  0  0  0  0  0  0  0  0  0  0  0
    7.5337   -6.9256   16.9519 C   0  0  0  0  0  0  0  0  0  0  0  0
    9.6782    0.5671   23.5143 C   0  0  0  0  0  0  0  0  0  0  0  0
    8.4532    0.3482   26.0821 C   0  0  0  0  0  0  0  0  0  0  0  0
   10.4239   -1.7677   22.2230 N   0  0  0  0  0  0  0  0  0  0  0  0
    9.9468   -4.5953   20.1709 C   0  0  0  0  0  0  0  0  0  0  0  0
   10.0366   -3.0590   23.9864 N   0  0  0  0  0  0  0  0  0  0  0  0
    7.1191   -7.3636   15.7739 C   0  0  0  0  0  0  0  0  0  0  0  0
    5.9612   -8.3203   17.2732 N   0  0  0  0  0  0  0  0  0  0  0  0
    8.5296   -5.9814   17.1841 C   0  0  0  0  0  0  0  0  0  0  0  0
    9.1527   -5.2118   16.2116 C   0  0  0  0  0  0  0  0  0  0  0  0
   10.3364   -3.8368   22.9255 O   0  0  0  0  0  0  0  0  0  0  0  0
    9.6947   -4.8407   18.8534 C   0  0  0  0  0  0  0  0  0  0  0  0
    9.1596    1.7042   24.1381 C   0  0  0  0  0  0  0  0  0  0  0  0
   11.0456   -2.9774   18.2694 N   0  0  0  0  0  0  0  0  0  0  0  0
   10.4788   -3.0457   21.8593 C   0  0  0  0  0  0  0  0  0  0  0  0
    8.8693   -5.8099   18.4657 N   0  0  0  0  0  0  0  0  0  0  0  0
    8.9892   -0.7926   25.4573 C   0  0  0  0  0  0  0  0  0  0  0  0
   10.5677   -3.4462   20.5323 C   0  0  0  0  0  0  0  0  0  0  0  0
  1  8  1  0
  1 12  4  0
  1 14  4  0
  2  3  4  0
  2 18  4  0
  3 20  4  0
  3 22  4  0
  4 11  4  0
  4 21  4  0
  5  9  4  0
  5 16  4  0
  6 15  4  0
  6 16  4  0
  7 22  4  0
  7 26  4  0
  8 10  4  0
  8 25  4  0
  9 15  4  0
  9 17  1  0
 10 21  4  0
 11 25  4  0
 12 23  4  0
 13 20  4  0
 13 26  4  0
 14 19  4  0
 17 18  4  0
 17 24  4  0
 19 23  4  0
 20 24  4  0
 23 26  1  0
M  END
$$$$

 Created by Python create_sdf_string function

 26 30  0  0  0  0  0  0  0  0999 V2000
   10.0084   -1.8019   23.4945 C   0  0  0  0  0  0  0  0  0  0  0  0
   10.0005   -4.2520   16.5631 C   0  0  0  0  0  0  0  0  0  0  0  0
   10.2759   -4.0036   17.8845 C   0  0  0  0  0  0  0  0  0  0  0  0
    8.5652    1.5478   25.3778 N   0  0  0  0  0  0  0  0  0  0  0  0
    6.8048   -7.5457   17.8752 C   0  0  0  0  0  0  0  0  0  0  0  0
    6.1721   -8.2186   15.9886 N   0  0  0  0  0  0  0  0  0  0  0  0
   11.1764   -2.6600   19.5604 C   0  0  0  0  0  0  0  0  0  0  0  0
    9.5491   -0.6380   24.1912 C   0  0  0  0  0  0  0  0  0  0  0  0
    7.5337   -6.9256   16.9519 C   0  0  0  0  0  0  0  0  0  0  0  0
    9.6782    0.5671   23.5143 C   0  0  0  0  0  0  0  0  0  0  0  0
    8.4532    0.3482   26.0821 C   0  0  0  0  0  0  0  0  0  0  0  0
   10.4239   -1.7677   22.2230 N   0  0  0  0  0  0  0  0  0  0  0  0
    9.9468   -4.5953   20.1709 C   0  0  0  0  0  0  0  0  0  0  0  0
   10.0366   -3.0590   23.9864 N   0  0  0  0  0  0  0  0  0  0  0  0
    7.1191   -7.3636   15.7739 C   0  0  0  0  0  0  0  0  0  0  0  0
    5.9612   -8.3203   17.2732 N   0  0  0  0  0  0  0  0  0  0  0  0
    8.5296   -5.9814   17.1841 C   0  0  0  0  0  0  0  0  0  0  0  0
    9.1527   -5.2118   16.2116 C   0  0  0  0  0  0  0  0  0  0  0  0
   10.3364   -3.8368   22.9255 O   0  0  0  0  0  0  0  0  0  0  0  0
    9.6947   -4.8407   18.8534 C   0  0  0  0  0  0  0  0  0  0  0  0
    9.1596    1.7042   24.1381 C   0  0  0  0  0  0  0  0  0  0  0  0
   11.0456   -2.9774   18.2694 N   0  0  0  0  0  0  0  0  0  0  0  0
   10.4788   -3.0457   21.8593 C   0  0  0  0  0  0  0  0  0  0  0  0
    8.8693   -5.8099   18.4657 N   0  0  0  0  0  0  0  0  0  0  0  0
    8.9892   -0.7926   25.4573 C   0  0  0  0  0  0  0  0  0  0  0  0
   10.5677   -3.4462   20.5323 C   0  0  0  0  0  0  0  0  0  0  0  0
  1  8  1  0
  1 12  4  0
  1 14  4  0
  2  3  4  0
  2 18  4  0
  3 20  4  0
  3 22  4  0
  4 11  4  0
  4 21  4  0
  5  9  4  0
  5 16  4  0
  6 15  4  0
  6 16  4  0
  7 22  4  0
  7 26  4  0
  8 10  4  0
  8 25  4  0
  9 15  4  0
  9 17  1  0
 10 21  4  0
 11 25  4  0
 12 23  4  0
 13 20  4  0
 13 26  4  0
 14 19  4  0
 17 18  4  0
 17 24  4  0
 19 23  4  0
 20 24  4  0
 23 26  1  0
M  END
$$$$

 Created by Python create_sdf_string function

 26 30  0  0  0  0  0  0  0  0999 V2000
   10.0084   -1.8019   23.4945 C   0  0  0  0  0  0  0  0  0  0  0  0
   10.0005   -4.2520   16.5631 C   0  0  0  0  0  0  0  0  0  0  0  0
   10.2759   -4.0036   17.8845 C   0  0  0  0  0  0  0  0  0  0  0  0
    8.5652    1.5478   25.3778 N   0  0  0  0  0  0  0  0  0  0  0  0
    6.8048   -7.5457   17.8752 C   0  0  0  0  0  0  0  0  0  0  0  0
    6.1721   -8.2186   15.9886 N   0  0  0  0  0  0  0  0  0  0  0  0
   11.1764   -2.6600   19.5604 C   0  0  0  0  0  0  0  0  0  0  0  0
    9.5491   -0.6380   24.1912 C   0  0  0  0  0  0  0  0  0  0  0  0
    7.5337   -6.9256   16.9519 C   0  0  0  0  0  0  0  0  0  0  0  0
    9.6782    0.5671   23.5143 C   0  0  0  0  0  0  0  0  0  0  0  0
    8.4532    0.3482   26.0821 C   0  0  0  0  0  0  0  0  0  0  0  0
   10.4239   -1.7677   22.2230 N   0  0  0  0  0  0  0  0  0  0  0  0
    9.9468   -4.5953   20.1709 C   0  0  0  0  0  0  0  0  0  0  0  0
   10.0366   -3.0590   23.9864 N   0  0  0  0  0  0  0  0  0  0  0  0
    7.1191   -7.3636   15.7739 C   0  0  0  0  0  0  0  0  0  0  0  0
    5.9612   -8.3203   17.2732 N   0  0  0  0  0  0  0  0  0  0  0  0
    8.5296   -5.9814   17.1841 C   0  0  0  0  0  0  0  0  0  0  0  0
    9.1527   -5.2118   16.2116 C   0  0  0  0  0  0  0  0  0  0  0  0
   10.3364   -3.8368   22.9255 O   0  0  0  0  0  0  0  0  0  0  0  0
    9.6947   -4.8407   18.8534 C   0  0  0  0  0  0  0  0  0  0  0  0
    9.1596    1.7042   24.1381 C   0  0  0  0  0  0  0  0  0  0  0  0
   11.0456   -2.9774   18.2694 N   0  0  0  0  0  0  0  0  0  0  0  0
   10.4788   -3.0457   21.8593 C   0  0  0  0  0  0  0  0  0  0  0  0
    8.8693   -5.8099   18.4657 N   0  0  0  0  0  0  0  0  0  0  0  0
    8.9892   -0.7926   25.4573 C   0  0  0  0  0  0  0  0  0  0  0  0
   10.5677   -3.4462   20.5323 C   0  0  0  0  0  0  0  0  0  0  0  0
  1  8  1  0
  1 12  4  0
  1 14  4  0
  2  3  4  0
  2 18  4  0
  3 20  4  0
  3 22  4  0
  4 11  4  0
  4 21  4  0
  5  9  4  0
  5 16  4  0
  6 15  4  0
  6 16  4  0
  7 22  4  0
  7 26  4  0
  8 10  4  0
  8 25  4  0
  9 15  4  0
  9 17  1  0
 10 21  4  0
 11 25  4  0
 12 23  4  0
 13 20  4  0
 13 26  4  0
 14 19  4  0
 17 18  4  0
 17 24  4  0
 19 23  4  0
 20 24  4  0
 23 26  1  0
M  END
$$$$

 Created by Python create_sdf_string function

 26 30  0  0  0  0  0  0  0  0999 V2000
   10.0084   -1.8019   23.4945 C   0  0  0  0  0  0  0  0  0  0  0  0
   10.0005   -4.2520   16.5631 C   0  0  0  0  0  0  0  0  0  0  0  0
   10.2759   -4.0036   17.8845 C   0  0  0  0  0  0  0  0  0  0  0  0
    8.5652    1.5478   25.3778 N   0  0  0  0  0  0  0  0  0  0  0  0
    6.8048   -7.5457   17.8752 C   0  0  0  0  0  0  0  0  0  0  0  0
    6.1721   -8.2186   15.9886 N   0  0  0  0  0  0  0  0  0  0  0  0
   11.1764   -2.6600   19.5604 C   0  0  0  0  0  0  0  0  0  0  0  0
    9.5491   -0.6380   24.1912 C   0  0  0  0  0  0  0  0  0  0  0  0
    7.5337   -6.9256   16.9519 C   0  0  0  0  0  0  0  0  0  0  0  0
    9.6782    0.5671   23.5143 C   0  0  0  0  0  0  0  0  0  0  0  0
    8.4532    0.3482   26.0821 C   0  0  0  0  0  0  0  0  0  0  0  0
   10.4239   -1.7677   22.2230 N   0  0  0  0  0  0  0  0  0  0  0  0
    9.9468   -4.5953   20.1709 C   0  0  0  0  0  0  0  0  0  0  0  0
   10.0366   -3.0590   23.9864 N   0  0  0  0  0  0  0  0  0  0  0  0
    7.1191   -7.3636   15.7739 C   0  0  0  0  0  0  0  0  0  0  0  0
    5.9612   -8.3203   17.2732 N   0  0  0  0  0  0  0  0  0  0  0  0
    8.5296   -5.9814   17.1841 C   0  0  0  0  0  0  0  0  0  0  0  0
    9.1527   -5.2118   16.2116 C   0  0  0  0  0  0  0  0  0  0  0  0
   10.3364   -3.8368   22.9255 O   0  0  0  0  0  0  0  0  0  0  0  0
    9.6947   -4.8407   18.8534 C   0  0  0  0  0  0  0  0  0  0  0  0
    9.1596    1.7042   24.1381 C   0  0  0  0  0  0  0  0  0  0  0  0
   11.0456   -2.9774   18.2694 N   0  0  0  0  0  0  0  0  0  0  0  0
   10.4788   -3.0457   21.8593 C   0  0  0  0  0  0  0  0  0  0  0  0
    8.8693   -5.8099   18.4657 N   0  0  0  0  0  0  0  0  0  0  0  0
    8.9892   -0.7926   25.4573 C   0  0  0  0  0  0  0  0  0  0  0  0
   10.5677   -3.4462   20.5323 C   0  0  0  0  0  0  0  0  0  0  0  0
  1  8  1  0
  1 12  4  0
  1 14  4  0
  2  3  4  0
  2 18  4  0
  3 20  4  0
  3 22  4  0
  4 11  4  0
  4 21  4  0
  5  9  4  0
  5 16  4  0
  6 15  4  0
  6 16  4  0
  7 22  4  0
  7 26  4  0
  8 10  4  0
  8 25  4  0
  9 15  4  0
  9 17  1  0
 10 21  4  0
 11 25  4  0
 12 23  4  0
 13 20  4  0
 13 26  4  0
 14 19  4  0
 17 18  4  0
 17 24  4  0
 19 23  4  0
 20 24  4  0
 23 26  1  0
M  END
$$$$

 Created by Python create_sdf_string function

 26 30  0  0  0  0  0  0  0  0999 V2000
   10.0084   -1.8019   23.4945 C   0  0  0  0  0  0  0  0  0  0  0  0
   10.0005   -4.2520   16.5631 C   0  0  0  0  0  0  0  0  0  0  0  0
   10.2759   -4.0036   17.8845 C   0  0  0  0  0  0  0  0  0  0  0  0
    8.5652    1.5478   25.3778 N   0  0  0  0  0  0  0  0  0  0  0  0
    6.8048   -7.5457   17.8752 C   0  0  0  0  0  0  0  0  0  0  0  0
    6.1721   -8.2186   15.9886 N   0  0  0  0  0  0  0  0  0  0  0  0
   11.1764   -2.6600   19.5604 C   0  0  0  0  0  0  0  0  0  0  0  0
    9.5491   -0.6380   24.1912 C   0  0  0  0  0  0  0  0  0  0  0  0
    7.5337   -6.9256   16.9519 C   0  0  0  0  0  0  0  0  0  0  0  0
    9.6782    0.5671   23.5143 C   0  0  0  0  0  0  0  0  0  0  0  0
    8.4532    0.3482   26.0821 C   0  0  0  0  0  0  0  0  0  0  0  0
   10.4239   -1.7677   22.2230 N   0  0  0  0  0  0  0  0  0  0  0  0
    9.9468   -4.5953   20.1709 C   0  0  0  0  0  0  0  0  0  0  0  0
   10.0366   -3.0590   23.9864 N   0  0  0  0  0  0  0  0  0  0  0  0
    7.1191   -7.3636   15.7739 C   0  0  0  0  0  0  0  0  0  0  0  0
    5.9612   -8.3203   17.2732 N   0  0  0  0  0  0  0  0  0  0  0  0
    8.5296   -5.9814   17.1841 C   0  0  0  0  0  0  0  0  0  0  0  0
    9.1527   -5.2118   16.2116 C   0  0  0  0  0  0  0  0  0  0  0  0
   10.3364   -3.8368   22.9255 O   0  0  0  0  0  0  0  0  0  0  0  0
    9.6947   -4.8407   18.8534 C   0  0  0  0  0  0  0  0  0  0  0  0
    9.1596    1.7042   24.1381 C   0  0  0  0  0  0  0  0  0  0  0  0
   11.0456   -2.9774   18.2694 N   0  0  0  0  0  0  0  0  0  0  0  0
   10.4788   -3.0457   21.8593 C   0  0  0  0  0  0  0  0  0  0  0  0
    8.8693   -5.8099   18.4657 N   0  0  0  0  0  0  0  0  0  0  0  0
    8.9892   -0.7926   25.4573 C   0  0  0  0  0  0  0  0  0  0  0  0
   10.5677   -3.4462   20.5323 C   0  0  0  0  0  0  0  0  0  0  0  0
  1  8  1  0
  1 12  4  0
  1 14  4  0
  2  3  4  0
  2 18  4  0
  3 20  4  0
  3 22  4  0
  4 11  4  0
  4 21  4  0
  5  9  4  0
  5 16  4  0
  6 15  4  0
  6 16  4  0
  7 22  4  0
  7 26  4  0
  8 10  4  0
  8 25  4  0
  9 15  4  0
  9 17  1  0
 10 21  4  0
 11 25  4  0
 12 23  4  0
 13 20  4  0
 13 26  4  0
 14 19  4  0
 17 18  4  0
 17 24  4  0
 19 23  4  0
 20 24  4  0
 23 26  1  0
M  END
$$$$

 Created by Python create_sdf_string function

 26 30  0  0  0  0  0  0  0  0999 V2000
   10.0084   -1.8019   23.4945 C   0  0  0  0  0  0  0  0  0  0  0  0
   10.0005   -4.2520   16.5631 C   0  0  0  0  0  0  0  0  0  0  0  0
   10.2759   -4.0036   17.8845 C   0  0  0  0  0  0  0  0  0  0  0  0
    8.5652    1.5478   25.3778 N   0  0  0  0  0  0  0  0  0  0  0  0
    6.8048   -7.5457   17.8752 C   0  0  0  0  0  0  0  0  0  0  0  0
    6.1721   -8.2186   15.9886 N   0  0  0  0  0  0  0  0  0  0  0  0
   11.1764   -2.6600   19.5604 C   0  0  0  0  0  0  0  0  0  0  0  0
    9.5491   -0.6380   24.1912 C   0  0  0  0  0  0  0  0  0  0  0  0
    7.5337   -6.9256   16.9519 C   0  0  0  0  0  0  0  0  0  0  0  0
    9.6782    0.5671   23.5143 C   0  0  0  0  0  0  0  0  0  0  0  0
    8.4532    0.3482   26.0821 C   0  0  0  0  0  0  0  0  0  0  0  0
   10.4239   -1.7677   22.2230 N   0  0  0  0  0  0  0  0  0  0  0  0
    9.9468   -4.5953   20.1709 C   0  0  0  0  0  0  0  0  0  0  0  0
   10.0366   -3.0590   23.9864 N   0  0  0  0  0  0  0  0  0  0  0  0
    7.1191   -7.3636   15.7739 C   0  0  0  0  0  0  0  0  0  0  0  0
    5.9612   -8.3203   17.2732 N   0  0  0  0  0  0  0  0  0  0  0  0
    8.5296   -5.9814   17.1841 C   0  0  0  0  0  0  0  0  0  0  0  0
    9.1527   -5.2118   16.2116 C   0  0  0  0  0  0  0  0  0  0  0  0
   10.3364   -3.8368   22.9255 O   0  0  0  0  0  0  0  0  0  0  0  0
    9.6947   -4.8407   18.8534 C   0  0  0  0  0  0  0  0  0  0  0  0
    9.1596    1.7042   24.1381 C   0  0  0  0  0  0  0  0  0  0  0  0
   11.0456   -2.9774   18.2694 N   0  0  0  0  0  0  0  0  0  0  0  0
   10.4788   -3.0457   21.8593 C   0  0  0  0  0  0  0  0  0  0  0  0
    8.8693   -5.8099   18.4657 N   0  0  0  0  0  0  0  0  0  0  0  0
    8.9892   -0.7926   25.4573 C   0  0  0  0  0  0  0  0  0  0  0  0
   10.5677   -3.4462   20.5323 C   0  0  0  0  0  0  0  0  0  0  0  0
  1  8  1  0
  1 12  4  0
  1 14  4  0
  2  3  4  0
  2 18  4  0
  3 20  4  0
  3 22  4  0
  4 11  4  0
  4 21  4  0
  5  9  4  0
  5 16  4  0
  6 15  4  0
  6 16  4  0
  7 22  4  0
  7 26  4  0
  8 10  4  0
  8 25  4  0
  9 15  4  0
  9 17  1  0
 10 21  4  0
 11 25  4  0
 12 23  4  0
 13 20  4  0
 13 26  4  0
 14 19  4  0
 17 18  4  0
 17 24  4  0
 19 23  4  0
 20 24  4  0
 23 26  1  0
M  END
$$$$

 Created by Python create_sdf_string function

 26 30  0  0  0  0  0  0  0  0999 V2000
   10.0084   -1.8019   23.4945 C   0  0  0  0  0  0  0  0  0  0  0  0
   10.0005   -4.2520   16.5631 C   0  0  0  0  0  0  0  0  0  0  0  0
   10.2759   -4.0036   17.8845 C   0  0  0  0  0  0  0  0  0  0  0  0
    8.5652    1.5478   25.3778 N   0  0  0  0  0  0  0  0  0  0  0  0
    6.8048   -7.5457   17.8752 C   0  0  0  0  0  0  0  0  0  0  0  0
    6.1721   -8.2186   15.9886 N   0  0  0  0  0  0  0  0  0  0  0  0
   11.1764   -2.6600   19.5604 C   0  0  0  0  0  0  0  0  0  0  0  0
    9.5491   -0.6380   24.1912 C   0  0  0  0  0  0  0  0  0  0  0  0
    7.5337   -6.9256   16.9519 C   0  0  0  0  0  0  0  0  0  0  0  0
    9.6782    0.5671   23.5143 C   0  0  0  0  0  0  0  0  0  0  0  0
    8.4532    0.3482   26.0821 C   0  0  0  0  0  0  0  0  0  0  0  0
   10.4239   -1.7677   22.2230 N   0  0  0  0  0  0  0  0  0  0  0  0
    9.9468   -4.5953   20.1709 C   0  0  0  0  0  0  0  0  0  0  0  0
   10.0366   -3.0590   23.9864 N   0  0  0  0  0  0  0  0  0  0  0  0
    7.1191   -7.3636   15.7739 C   0  0  0  0  0  0  0  0  0  0  0  0
    5.9612   -8.3203   17.2732 N   0  0  0  0  0  0  0  0  0  0  0  0
    8.5296   -5.9814   17.1841 C   0  0  0  0  0  0  0  0  0  0  0  0
    9.1527   -5.2118   16.2116 C   0  0  0  0  0  0  0  0  0  0  0  0
   10.3364   -3.8368   22.9255 O   0  0  0  0  0  0  0  0  0  0  0  0
    9.6947   -4.8407   18.8534 C   0  0  0  0  0  0  0  0  0  0  0  0
    9.1596    1.7042   24.1381 C   0  0  0  0  0  0  0  0  0  0  0  0
   11.0456   -2.9774   18.2694 N   0  0  0  0  0  0  0  0  0  0  0  0
   10.4788   -3.0457   21.8593 C   0  0  0  0  0  0  0  0  0  0  0  0
    8.8693   -5.8099   18.4657 N   0  0  0  0  0  0  0  0  0  0  0  0
    8.9892   -0.7926   25.4573 C   0  0  0  0  0  0  0  0  0  0  0  0
   10.5677   -3.4462   20.5323 C   0  0  0  0  0  0  0  0  0  0  0  0
  1  8  1  0
  1 12  4  0
  1 14  4  0
  2  3  4  0
  2 18  4  0
  3 20  4  0
  3 22  4  0
  4 11  4  0
  4 21  4  0
  5  9  4  0
  5 16  4  0
  6 15  4  0
  6 16  4  0
  7 22  4  0
  7 26  4  0
  8 10  4  0
  8 25  4  0
  9 15  4  0
  9 17  1  0
 10 21  4  0
 11 25  4  0
 12 23  4  0
 13 20  4  0
 13 26  4  0
 14 19  4  0
 17 18  4  0
 17 24  4  0
 19 23  4  0
 20 24  4  0
 23 26  1  0
M  END
$$$$

 Created by Python create_sdf_string function

 26 30  0  0  0  0  0  0  0  0999 V2000
   10.0084   -1.8019   23.4945 C   0  0  0  0  0  0  0  0  0  0  0  0
   10.0005   -4.2520   16.5631 C   0  0  0  0  0  0  0  0  0  0  0  0
   10.2759   -4.0036   17.8845 C   0  0  0  0  0  0  0  0  0  0  0  0
    8.5652    1.5478   25.3778 N   0  0  0  0  0  0  0  0  0  0  0  0
    6.8048   -7.5457   17.8752 C   0  0  0  0  0  0  0  0  0  0  0  0
    6.1721   -8.2186   15.9886 N   0  0  0  0  0  0  0  0  0  0  0  0
   11.1764   -2.6600   19.5604 C   0  0  0  0  0  0  0  0  0  0  0  0
    9.5491   -0.6380   24.1912 C   0  0  0  0  0  0  0  0  0  0  0  0
    7.5337   -6.9256   16.9519 C   0  0  0  0  0  0  0  0  0  0  0  0
    9.6782    0.5671   23.5143 C   0  0  0  0  0  0  0  0  0  0  0  0
    8.4532    0.3482   26.0821 C   0  0  0  0  0  0  0  0  0  0  0  0
   10.4239   -1.7677   22.2230 N   0  0  0  0  0  0  0  0  0  0  0  0
    9.9468   -4.5953   20.1709 C   0  0  0  0  0  0  0  0  0  0  0  0
   10.0366   -3.0590   23.9864 N   0  0  0  0  0  0  0  0  0  0  0  0
    7.1191   -7.3636   15.7739 C   0  0  0  0  0  0  0  0  0  0  0  0
    5.9612   -8.3203   17.2732 N   0  0  0  0  0  0  0  0  0  0  0  0
    8.5296   -5.9814   17.1841 C   0  0  0  0  0  0  0  0  0  0  0  0
    9.1527   -5.2118   16.2116 C   0  0  0  0  0  0  0  0  0  0  0  0
   10.3364   -3.8368   22.9255 O   0  0  0  0  0  0  0  0  0  0  0  0
    9.6947   -4.8407   18.8534 C   0  0  0  0  0  0  0  0  0  0  0  0
    9.1596    1.7042   24.1381 C   0  0  0  0  0  0  0  0  0  0  0  0
   11.0456   -2.9774   18.2694 N   0  0  0  0  0  0  0  0  0  0  0  0
   10.4788   -3.0457   21.8593 C   0  0  0  0  0  0  0  0  0  0  0  0
    8.8693   -5.8099   18.4657 N   0  0  0  0  0  0  0  0  0  0  0  0
    8.9892   -0.7926   25.4573 C   0  0  0  0  0  0  0  0  0  0  0  0
   10.5677   -3.4462   20.5323 C   0  0  0  0  0  0  0  0  0  0  0  0
  1  8  1  0
  1 12  4  0
  1 14  4  0
  2  3  4  0
  2 18  4  0
  3 20  4  0
  3 22  4  0
  4 11  4  0
  4 21  4  0
  5  9  4  0
  5 16  4  0
  6 15  4  0
  6 16  4  0
  7 22  4  0
  7 26  4  0
  8 10  4  0
  8 25  4  0
  9 15  4  0
  9 17  1  0
 10 21  4  0
 11 25  4  0
 12 23  4  0
 13 20  4  0
 13 26  4  0
 14 19  4  0
 17 18  4  0
 17 24  4  0
 19 23  4  0
 20 24  4  0
 23 26  1  0
M  END
$$$$

 Created by Python create_sdf_string function

 26 30  0  0  0  0  0  0  0  0999 V2000
   10.0084   -1.8019   23.4945 C   0  0  0  0  0  0  0  0  0  0  0  0
   10.0005   -4.2520   16.5631 C   0  0  0  0  0  0  0  0  0  0  0  0
   10.2759   -4.0036   17.8845 C   0  0  0  0  0  0  0  0  0  0  0  0
    8.5652    1.5478   25.3778 N   0  0  0  0  0  0  0  0  0  0  0  0
    6.8048   -7.5457   17.8752 C   0  0  0  0  0  0  0  0  0  0  0  0
    6.1721   -8.2186   15.9886 N   0  0  0  0  0  0  0  0  0  0  0  0
   11.1764   -2.6600   19.5604 C   0  0  0  0  0  0  0  0  0  0  0  0
    9.5491   -0.6380   24.1912 C   0  0  0  0  0  0  0  0  0  0  0  0
    7.5337   -6.9256   16.9519 C   0  0  0  0  0  0  0  0  0  0  0  0
    9.6782    0.5671   23.5143 C   0  0  0  0  0  0  0  0  0  0  0  0
    8.4532    0.3482   26.0821 C   0  0  0  0  0  0  0  0  0  0  0  0
   10.4239   -1.7677   22.2230 N   0  0  0  0  0  0  0  0  0  0  0  0
    9.9468   -4.5953   20.1709 C   0  0  0  0  0  0  0  0  0  0  0  0
   10.0366   -3.0590   23.9864 N   0  0  0  0  0  0  0  0  0  0  0  0
    7.1191   -7.3636   15.7739 C   0  0  0  0  0  0  0  0  0  0  0  0
    5.9612   -8.3203   17.2732 N   0  0  0  0  0  0  0  0  0  0  0  0
    8.5296   -5.9814   17.1841 C   0  0  0  0  0  0  0  0  0  0  0  0
    9.1527   -5.2118   16.2116 C   0  0  0  0  0  0  0  0  0  0  0  0
   10.3364   -3.8368   22.9255 O   0  0  0  0  0  0  0  0  0  0  0  0
    9.6947   -4.8407   18.8534 C   0  0  0  0  0  0  0  0  0  0  0  0
    9.1596    1.7042   24.1381 C   0  0  0  0  0  0  0  0  0  0  0  0
   11.0456   -2.9774   18.2694 N   0  0  0  0  0  0  0  0  0  0  0  0
   10.4788   -3.0457   21.8593 C   0  0  0  0  0  0  0  0  0  0  0  0
    8.8693   -5.8099   18.4657 N   0  0  0  0  0  0  0  0  0  0  0  0
    8.9892   -0.7926   25.4573 C   0  0  0  0  0  0  0  0  0  0  0  0
   10.5677   -3.4462   20.5323 C   0  0  0  0  0  0  0  0  0  0  0  0
  1  8  1  0
  1 12  4  0
  1 14  4  0
  2  3  4  0
  2 18  4  0
  3 20  4  0
  3 22  4  0
  4 11  4  0
  4 21  4  0
  5  9  4  0
  5 16  4  0
  6 15  4  0
  6 16  4  0
  7 22  4  0
  7 26  4  0
  8 10  4  0
  8 25  4  0
  9 15  4  0
  9 17  1  0
 10 21  4  0
 11 25  4  0
 12 23  4  0
 13 20  4  0
 13 26  4  0
 14 19  4  0
 17 18  4  0
 17 24  4  0
 19 23  4  0
 20 24  4  0
 23 26  1  0
M  END
$$$$

 Created by Python create_sdf_string function

 26 30  0  0  0  0  0  0  0  0999 V2000
   10.0084   -1.8019   23.4945 C   0  0  0  0  0  0  0  0  0  0  0  0
   10.0005   -4.2520   16.5631 C   0  0  0  0  0  0  0  0  0  0  0  0
   10.2759   -4.0036   17.8845 C   0  0  0  0  0  0  0  0  0  0  0  0
    8.5652    1.5478   25.3778 N   0  0  0  0  0  0  0  0  0  0  0  0
    6.8048   -7.5457   17.8752 C   0  0  0  0  0  0  0  0  0  0  0  0
    6.1721   -8.2186   15.9886 N   0  0  0  0  0  0  0  0  0  0  0  0
   11.1764   -2.6600   19.5604 C   0  0  0  0  0  0  0  0  0  0  0  0
    9.5491   -0.6380   24.1912 C   0  0  0  0  0  0  0  0  0  0  0  0
    7.5337   -6.9256   16.9519 C   0  0  0  0  0  0  0  0  0  0  0  0
    9.6782    0.5671   23.5143 C   0  0  0  0  0  0  0  0  0  0  0  0
    8.4532    0.3482   26.0821 C   0  0  0  0  0  0  0  0  0  0  0  0
   10.4239   -1.7677   22.2230 N   0  0  0  0  0  0  0  0  0  0  0  0
    9.9468   -4.5953   20.1709 C   0  0  0  0  0  0  0  0  0  0  0  0
   10.0366   -3.0590   23.9864 N   0  0  0  0  0  0  0  0  0  0  0  0
    7.1191   -7.3636   15.7739 C   0  0  0  0  0  0  0  0  0  0  0  0
    5.9612   -8.3203   17.2732 N   0  0  0  0  0  0  0  0  0  0  0  0
    8.5296   -5.9814   17.1841 C   0  0  0  0  0  0  0  0  0  0  0  0
    9.1527   -5.2118   16.2116 C   0  0  0  0  0  0  0  0  0  0  0  0
   10.3364   -3.8368   22.9255 O   0  0  0  0  0  0  0  0  0  0  0  0
    9.6947   -4.8407   18.8534 C   0  0  0  0  0  0  0  0  0  0  0  0
    9.1596    1.7042   24.1381 C   0  0  0  0  0  0  0  0  0  0  0  0
   11.0456   -2.9774   18.2694 N   0  0  0  0  0  0  0  0  0  0  0  0
   10.4788   -3.0457   21.8593 C   0  0  0  0  0  0  0  0  0  0  0  0
    8.8693   -5.8099   18.4657 N   0  0  0  0  0  0  0  0  0  0  0  0
    8.9892   -0.7926   25.4573 C   0  0  0  0  0  0  0  0  0  0  0  0
   10.5677   -3.4462   20.5323 C   0  0  0  0  0  0  0  0  0  0  0  0
  1  8  1  0
  1 12  4  0
  1 14  4  0
  2  3  4  0
  2 18  4  0
  3 20  4  0
  3 22  4  0
  4 11  4  0
  4 21  4  0
  5  9  4  0
  5 16  4  0
  6 15  4  0
  6 16  4  0
  7 22  4  0
  7 26  4  0
  8 10  4  0
  8 25  4  0
  9 15  4  0
  9 17  1  0
 10 21  4  0
 11 25  4  0
 12 23  4  0
 13 20  4  0
 13 26  4  0
 14 19  4  0
 17 18  4  0
 17 24  4  0
 19 23  4  0
 20 24  4  0
 23 26  1  0
M  END
$$$$

 Created by Python create_sdf_string function

 26 30  0  0  0  0  0  0  0  0999 V2000
   10.0084   -1.8019   23.4945 C   0  0  0  0  0  0  0  0  0  0  0  0
   10.0005   -4.2520   16.5631 C   0  0  0  0  0  0  0  0  0  0  0  0
   10.2759   -4.0036   17.8845 C   0  0  0  0  0  0  0  0  0  0  0  0
    8.5652    1.5478   25.3778 N   0  0  0  0  0  0  0  0  0  0  0  0
    6.8048   -7.5457   17.8752 C   0  0  0  0  0  0  0  0  0  0  0  0
    6.1721   -8.2186   15.9886 N   0  0  0  0  0  0  0  0  0  0  0  0
   11.1764   -2.6600   19.5604 C   0  0  0  0  0  0  0  0  0  0  0  0
    9.5491   -0.6380   24.1912 C   0  0  0  0  0  0  0  0  0  0  0  0
    7.5337   -6.9256   16.9519 C   0  0  0  0  0  0  0  0  0  0  0  0
    9.6782    0.5671   23.5143 C   0  0  0  0  0  0  0  0  0  0  0  0
    8.4532    0.3482   26.0821 C   0  0  0  0  0  0  0  0  0  0  0  0
   10.4239   -1.7677   22.2230 N   0  0  0  0  0  0  0  0  0  0  0  0
    9.9468   -4.5953   20.1709 C   0  0  0  0  0  0  0  0  0  0  0  0
   10.0366   -3.0590   23.9864 N   0  0  0  0  0  0  0  0  0  0  0  0
    7.1191   -7.3636   15.7739 C   0  0  0  0  0  0  0  0  0  0  0  0
    5.9612   -8.3203   17.2732 N   0  0  0  0  0  0  0  0  0  0  0  0
    8.5296   -5.9814   17.1841 C   0  0  0  0  0  0  0  0  0  0  0  0
    9.1527   -5.2118   16.2116 C   0  0  0  0  0  0  0  0  0  0  0  0
   10.3364   -3.8368   22.9255 O   0  0  0  0  0  0  0  0  0  0  0  0
    9.6947   -4.8407   18.8534 C   0  0  0  0  0  0  0  0  0  0  0  0
    9.1596    1.7042   24.1381 C   0  0  0  0  0  0  0  0  0  0  0  0
   11.0456   -2.9774   18.2694 N   0  0  0  0  0  0  0  0  0  0  0  0
   10.4788   -3.0457   21.8593 C   0  0  0  0  0  0  0  0  0  0  0  0
    8.8693   -5.8099   18.4657 N   0  0  0  0  0  0  0  0  0  0  0  0
    8.9892   -0.7926   25.4573 C   0  0  0  0  0  0  0  0  0  0  0  0
   10.5677   -3.4462   20.5323 C   0  0  0  0  0  0  0  0  0  0  0  0
  1  8  1  0
  1 12  4  0
  1 14  4  0
  2  3  4  0
  2 18  4  0
  3 20  4  0
  3 22  4  0
  4 11  4  0
  4 21  4  0
  5  9  4  0
  5 16  4  0
  6 15  4  0
  6 16  4  0
  7 22  4  0
  7 26  4  0
  8 10  4  0
  8 25  4  0
  9 15  4  0
  9 17  1  0
 10 21  4  0
 11 25  4  0
 12 23  4  0
 13 20  4  0
 13 26  4  0
 14 19  4  0
 17 18  4  0
 17 24  4  0
 19 23  4  0
 20 24  4  0
 23 26  1  0
M  END
$$$$

 Created by Python create_sdf_string function

 26 30  0  0  0  0  0  0  0  0999 V2000
   10.0084   -1.8019   23.4945 C   0  0  0  0  0  0  0  0  0  0  0  0
   10.0005   -4.2520   16.5631 C   0  0  0  0  0  0  0  0  0  0  0  0
   10.2759   -4.0036   17.8845 C   0  0  0  0  0  0  0  0  0  0  0  0
    8.5652    1.5478   25.3778 N   0  0  0  0  0  0  0  0  0  0  0  0
    6.8048   -7.5457   17.8752 C   0  0  0  0  0  0  0  0  0  0  0  0
    6.1721   -8.2186   15.9886 N   0  0  0  0  0  0  0  0  0  0  0  0
   11.1764   -2.6600   19.5604 C   0  0  0  0  0  0  0  0  0  0  0  0
    9.5491   -0.6380   24.1912 C   0  0  0  0  0  0  0  0  0  0  0  0
    7.5337   -6.9256   16.9519 C   0  0  0  0  0  0  0  0  0  0  0  0
    9.6782    0.5671   23.5143 C   0  0  0  0  0  0  0  0  0  0  0  0
    8.4532    0.3482   26.0821 C   0  0  0  0  0  0  0  0  0  0  0  0
   10.4239   -1.7677   22.2230 N   0  0  0  0  0  0  0  0  0  0  0  0
    9.9468   -4.5953   20.1709 C   0  0  0  0  0  0  0  0  0  0  0  0
   10.0366   -3.0590   23.9864 N   0  0  0  0  0  0  0  0  0  0  0  0
    7.1191   -7.3636   15.7739 C   0  0  0  0  0  0  0  0  0  0  0  0
    5.9612   -8.3203   17.2732 N   0  0  0  0  0  0  0  0  0  0  0  0
    8.5296   -5.9814   17.1841 C   0  0  0  0  0  0  0  0  0  0  0  0
    9.1527   -5.2118   16.2116 C   0  0  0  0  0  0  0  0  0  0  0  0
   10.3364   -3.8368   22.9255 O   0  0  0  0  0  0  0  0  0  0  0  0
    9.6947   -4.8407   18.8534 C   0  0  0  0  0  0  0  0  0  0  0  0
    9.1596    1.7042   24.1381 C   0  0  0  0  0  0  0  0  0  0  0  0
   11.0456   -2.9774   18.2694 N   0  0  0  0  0  0  0  0  0  0  0  0
   10.4788   -3.0457   21.8593 C   0  0  0  0  0  0  0  0  0  0  0  0
    8.8693   -5.8099   18.4657 N   0  0  0  0  0  0  0  0  0  0  0  0
    8.9892   -0.7926   25.4573 C   0  0  0  0  0  0  0  0  0  0  0  0
   10.5677   -3.4462   20.5323 C   0  0  0  0  0  0  0  0  0  0  0  0
  1  8  1  0
  1 12  4  0
  1 14  4  0
  2  3  4  0
  2 18  4  0
  3 20  4  0
  3 22  4  0
  4 11  4  0
  4 21  4  0
  5  9  4  0
  5 16  4  0
  6 15  4  0
  6 16  4  0
  7 22  4  0
  7 26  4  0
  8 10  4  0
  8 25  4  0
  9 15  4  0
  9 17  1  0
 10 21  4  0
 11 25  4  0
 12 23  4  0
 13 20  4  0
 13 26  4  0
 14 19  4  0
 17 18  4  0
 17 24  4  0
 19 23  4  0
 20 24  4  0
 23 26  1  0
M  END
$$$$

 Created by Python create_sdf_string function

 26 30  0  0  0  0  0  0  0  0999 V2000
   10.0084   -1.8019   23.4945 C   0  0  0  0  0  0  0  0  0  0  0  0
   10.0005   -4.2520   16.5631 C   0  0  0  0  0  0  0  0  0  0  0  0
   10.2759   -4.0036   17.8845 C   0  0  0  0  0  0  0  0  0  0  0  0
    8.5652    1.5478   25.3778 N   0  0  0  0  0  0  0  0  0  0  0  0
    6.8048   -7.5457   17.8752 C   0  0  0  0  0  0  0  0  0  0  0  0
    6.1721   -8.2186   15.9886 N   0  0  0  0  0  0  0  0  0  0  0  0
   11.1764   -2.6600   19.5604 C   0  0  0  0  0  0  0  0  0  0  0  0
    9.5491   -0.6380   24.1912 C   0  0  0  0  0  0  0  0  0  0  0  0
    7.5337   -6.9256   16.9519 C   0  0  0  0  0  0  0  0  0  0  0  0
    9.6782    0.5671   23.5143 C   0  0  0  0  0  0  0  0  0  0  0  0
    8.4532    0.3482   26.0821 C   0  0  0  0  0  0  0  0  0  0  0  0
   10.4239   -1.7677   22.2230 N   0  0  0  0  0  0  0  0  0  0  0  0
    9.9468   -4.5953   20.1709 C   0  0  0  0  0  0  0  0  0  0  0  0
   10.0366   -3.0590   23.9864 N   0  0  0  0  0  0  0  0  0  0  0  0
    7.1191   -7.3636   15.7739 C   0  0  0  0  0  0  0  0  0  0  0  0
    5.9612   -8.3203   17.2732 N   0  0  0  0  0  0  0  0  0  0  0  0
    8.5296   -5.9814   17.1841 C   0  0  0  0  0  0  0  0  0  0  0  0
    9.1527   -5.2118   16.2116 C   0  0  0  0  0  0  0  0  0  0  0  0
   10.3364   -3.8368   22.9255 O   0  0  0  0  0  0  0  0  0  0  0  0
    9.6947   -4.8407   18.8534 C   0  0  0  0  0  0  0  0  0  0  0  0
    9.1596    1.7042   24.1381 C   0  0  0  0  0  0  0  0  0  0  0  0
   11.0456   -2.9774   18.2694 N   0  0  0  0  0  0  0  0  0  0  0  0
   10.4788   -3.0457   21.8593 C   0  0  0  0  0  0  0  0  0  0  0  0
    8.8693   -5.8099   18.4657 N   0  0  0  0  0  0  0  0  0  0  0  0
    8.9892   -0.7926   25.4573 C   0  0  0  0  0  0  0  0  0  0  0  0
   10.5677   -3.4462   20.5323 C   0  0  0  0  0  0  0  0  0  0  0  0
  1  8  1  0
  1 12  4  0
  1 14  4  0
  2  3  4  0
  2 18  4  0
  3 20  4  0
  3 22  4  0
  4 11  4  0
  4 21  4  0
  5  9  4  0
  5 16  4  0
  6 15  4  0
  6 16  4  0
  7 22  4  0
  7 26  4  0
  8 10  4  0
  8 25  4  0
  9 15  4  0
  9 17  1  0
 10 21  4  0
 11 25  4  0
 12 23  4  0
 13 20  4  0
 13 26  4  0
 14 19  4  0
 17 18  4  0
 17 24  4  0
 19 23  4  0
 20 24  4  0
 23 26  1  0
M  END
$$$$

 Created by Python create_sdf_string function

 26 30  0  0  0  0  0  0  0  0999 V2000
   10.0084   -1.8019   23.4945 C   0  0  0  0  0  0  0  0  0  0  0  0
   10.0005   -4.2520   16.5631 C   0  0  0  0  0  0  0  0  0  0  0  0
   10.2759   -4.0036   17.8845 C   0  0  0  0  0  0  0  0  0  0  0  0
    8.5652    1.5478   25.3778 N   0  0  0  0  0  0  0  0  0  0  0  0
    6.8048   -7.5457   17.8752 C   0  0  0  0  0  0  0  0  0  0  0  0
    6.1721   -8.2186   15.9886 N   0  0  0  0  0  0  0  0  0  0  0  0
   11.1764   -2.6600   19.5604 C   0  0  0  0  0  0  0  0  0  0  0  0
    9.5491   -0.6380   24.1912 C   0  0  0  0  0  0  0  0  0  0  0  0
    7.5337   -6.9256   16.9519 C   0  0  0  0  0  0  0  0  0  0  0  0
    9.6782    0.5671   23.5143 C   0  0  0  0  0  0  0  0  0  0  0  0
    8.4532    0.3482   26.0821 C   0  0  0  0  0  0  0  0  0  0  0  0
   10.4239   -1.7677   22.2230 N   0  0  0  0  0  0  0  0  0  0  0  0
    9.9468   -4.5953   20.1709 C   0  0  0  0  0  0  0  0  0  0  0  0
   10.0366   -3.0590   23.9864 N   0  0  0  0  0  0  0  0  0  0  0  0
    7.1191   -7.3636   15.7739 C   0  0  0  0  0  0  0  0  0  0  0  0
    5.9612   -8.3203   17.2732 N   0  0  0  0  0  0  0  0  0  0  0  0
    8.5296   -5.9814   17.1841 C   0  0  0  0  0  0  0  0  0  0  0  0
    9.1527   -5.2118   16.2116 C   0  0  0  0  0  0  0  0  0  0  0  0
   10.3364   -3.8368   22.9255 O   0  0  0  0  0  0  0  0  0  0  0  0
    9.6947   -4.8407   18.8534 C   0  0  0  0  0  0  0  0  0  0  0  0
    9.1596    1.7042   24.1381 C   0  0  0  0  0  0  0  0  0  0  0  0
   11.0456   -2.9774   18.2694 N   0  0  0  0  0  0  0  0  0  0  0  0
   10.4788   -3.0457   21.8593 C   0  0  0  0  0  0  0  0  0  0  0  0
    8.8693   -5.8099   18.4657 N   0  0  0  0  0  0  0  0  0  0  0  0
    8.9892   -0.7926   25.4573 C   0  0  0  0  0  0  0  0  0  0  0  0
   10.5677   -3.4462   20.5323 C   0  0  0  0  0  0  0  0  0  0  0  0
  1  8  1  0
  1 12  4  0
  1 14  4  0
  2  3  4  0
  2 18  4  0
  3 20  4  0
  3 22  4  0
  4 11  4  0
  4 21  4  0
  5  9  4  0
  5 16  4  0
  6 15  4  0
  6 16  4  0
  7 22  4  0
  7 26  4  0
  8 10  4  0
  8 25  4  0
  9 15  4  0
  9 17  1  0
 10 21  4  0
 11 25  4  0
 12 23  4  0
 13 20  4  0
 13 26  4  0
 14 19  4  0
 17 18  4  0
 17 24  4  0
 19 23  4  0
 20 24  4  0
 23 26  1  0
M  END
$$$$

 Created by Python create_sdf_string function

 26 30  0  0  0  0  0  0  0  0999 V2000
   10.0084   -1.8019   23.4945 C   0  0  0  0  0  0  0  0  0  0  0  0
   10.0005   -4.2520   16.5631 C   0  0  0  0  0  0  0  0  0  0  0  0
   10.2759   -4.0036   17.8845 C   0  0  0  0  0  0  0  0  0  0  0  0
    8.5652    1.5478   25.3778 N   0  0  0  0  0  0  0  0  0  0  0  0
    6.8048   -7.5457   17.8752 C   0  0  0  0  0  0  0  0  0  0  0  0
    6.1721   -8.2186   15.9886 N   0  0  0  0  0  0  0  0  0  0  0  0
   11.1764   -2.6600   19.5604 C   0  0  0  0  0  0  0  0  0  0  0  0
    9.5491   -0.6380   24.1912 C   0  0  0  0  0  0  0  0  0  0  0  0
    7.5337   -6.9256   16.9519 C   0  0  0  0  0  0  0  0  0  0  0  0
    9.6782    0.5671   23.5143 C   0  0  0  0  0  0  0  0  0  0  0  0
    8.4532    0.3482   26.0821 C   0  0  0  0  0  0  0  0  0  0  0  0
   10.4239   -1.7677   22.2230 N   0  0  0  0  0  0  0  0  0  0  0  0
    9.9468   -4.5953   20.1709 C   0  0  0  0  0  0  0  0  0  0  0  0
   10.0366   -3.0590   23.9864 N   0  0  0  0  0  0  0  0  0  0  0  0
    7.1191   -7.3636   15.7739 C   0  0  0  0  0  0  0  0  0  0  0  0
    5.9612   -8.3203   17.2732 N   0  0  0  0  0  0  0  0  0  0  0  0
    8.5296   -5.9814   17.1841 C   0  0  0  0  0  0  0  0  0  0  0  0
    9.1527   -5.2118   16.2116 C   0  0  0  0  0  0  0  0  0  0  0  0
   10.3364   -3.8368   22.9255 O   0  0  0  0  0  0  0  0  0  0  0  0
    9.6947   -4.8407   18.8534 C   0  0  0  0  0  0  0  0  0  0  0  0
    9.1596    1.7042   24.1381 C   0  0  0  0  0  0  0  0  0  0  0  0
   11.0456   -2.9774   18.2694 N   0  0  0  0  0  0  0  0  0  0  0  0
   10.4788   -3.0457   21.8593 C   0  0  0  0  0  0  0  0  0  0  0  0
    8.8693   -5.8099   18.4657 N   0  0  0  0  0  0  0  0  0  0  0  0
    8.9892   -0.7926   25.4573 C   0  0  0  0  0  0  0  0  0  0  0  0
   10.5677   -3.4462   20.5323 C   0  0  0  0  0  0  0  0  0  0  0  0
  1  8  1  0
  1 12  4  0
  1 14  4  0
  2  3  4  0
  2 18  4  0
  3 20  4  0
  3 22  4  0
  4 11  4  0
  4 21  4  0
  5  9  4  0
  5 16  4  0
  6 15  4  0
  6 16  4  0
  7 22  4  0
  7 26  4  0
  8 10  4  0
  8 25  4  0
  9 15  4  0
  9 17  1  0
 10 21  4  0
 11 25  4  0
 12 23  4  0
 13 20  4  0
 13 26  4  0
 14 19  4  0
 17 18  4  0
 17 24  4  0
 19 23  4  0
 20 24  4  0
 23 26  1  0
M  END
$$$$

 Created by Python create_sdf_string function

 26 30  0  0  0  0  0  0  0  0999 V2000
   10.0084   -1.8019   23.4945 C   0  0  0  0  0  0  0  0  0  0  0  0
   10.0005   -4.2520   16.5631 C   0  0  0  0  0  0  0  0  0  0  0  0
   10.2759   -4.0036   17.8845 C   0  0  0  0  0  0  0  0  0  0  0  0
    8.5652    1.5478   25.3778 N   0  0  0  0  0  0  0  0  0  0  0  0
    6.8048   -7.5457   17.8752 C   0  0  0  0  0  0  0  0  0  0  0  0
    6.1721   -8.2186   15.9886 N   0  0  0  0  0  0  0  0  0  0  0  0
   11.1764   -2.6600   19.5604 C   0  0  0  0  0  0  0  0  0  0  0  0
    9.5491   -0.6380   24.1912 C   0  0  0  0  0  0  0  0  0  0  0  0
    7.5337   -6.9256   16.9519 C   0  0  0  0  0  0  0  0  0  0  0  0
    9.6782    0.5671   23.5143 C   0  0  0  0  0  0  0  0  0  0  0  0
    8.4532    0.3482   26.0821 C   0  0  0  0  0  0  0  0  0  0  0  0
   10.4239   -1.7677   22.2230 N   0  0  0  0  0  0  0  0  0  0  0  0
    9.9468   -4.5953   20.1709 C   0  0  0  0  0  0  0  0  0  0  0  0
   10.0366   -3.0590   23.9864 N   0  0  0  0  0  0  0  0  0  0  0  0
    7.1191   -7.3636   15.7739 C   0  0  0  0  0  0  0  0  0  0  0  0
    5.9612   -8.3203   17.2732 N   0  0  0  0  0  0  0  0  0  0  0  0
    8.5296   -5.9814   17.1841 C   0  0  0  0  0  0  0  0  0  0  0  0
    9.1527   -5.2118   16.2116 C   0  0  0  0  0  0  0  0  0  0  0  0
   10.3364   -3.8368   22.9255 O   0  0  0  0  0  0  0  0  0  0  0  0
    9.6947   -4.8407   18.8534 C   0  0  0  0  0  0  0  0  0  0  0  0
    9.1596    1.7042   24.1381 C   0  0  0  0  0  0  0  0  0  0  0  0
   11.0456   -2.9774   18.2694 N   0  0  0  0  0  0  0  0  0  0  0  0
   10.4788   -3.0457   21.8593 C   0  0  0  0  0  0  0  0  0  0  0  0
    8.8693   -5.8099   18.4657 N   0  0  0  0  0  0  0  0  0  0  0  0
    8.9892   -0.7926   25.4573 C   0  0  0  0  0  0  0  0  0  0  0  0
   10.5677   -3.4462   20.5323 C   0  0  0  0  0  0  0  0  0  0  0  0
  1  8  1  0
  1 12  4  0
  1 14  4  0
  2  3  4  0
  2 18  4  0
  3 20  4  0
  3 22  4  0
  4 11  4  0
  4 21  4  0
  5  9  4  0
  5 16  4  0
  6 15  4  0
  6 16  4  0
  7 22  4  0
  7 26  4  0
  8 10  4  0
  8 25  4  0
  9 15  4  0
  9 17  1  0
 10 21  4  0
 11 25  4  0
 12 23  4  0
 13 20  4  0
 13 26  4  0
 14 19  4  0
 17 18  4  0
 17 24  4  0
 19 23  4  0
 20 24  4  0
 23 26  1  0
M  END
$$$$

 Created by Python create_sdf_string function

 26 30  0  0  0  0  0  0  0  0999 V2000
   10.0084   -1.8019   23.4945 C   0  0  0  0  0  0  0  0  0  0  0  0
   10.0005   -4.2520   16.5631 C   0  0  0  0  0  0  0  0  0  0  0  0
   10.2759   -4.0036   17.8845 C   0  0  0  0  0  0  0  0  0  0  0  0
    8.5652    1.5478   25.3778 N   0  0  0  0  0  0  0  0  0  0  0  0
    6.8048   -7.5457   17.8752 C   0  0  0  0  0  0  0  0  0  0  0  0
    6.1721   -8.2186   15.9886 N   0  0  0  0  0  0  0  0  0  0  0  0
   11.1764   -2.6600   19.5604 C   0  0  0  0  0  0  0  0  0  0  0  0
    9.5491   -0.6380   24.1912 C   0  0  0  0  0  0  0  0  0  0  0  0
    7.5337   -6.9256   16.9519 C   0  0  0  0  0  0  0  0  0  0  0  0
    9.6782    0.5671   23.5143 C   0  0  0  0  0  0  0  0  0  0  0  0
    8.4532    0.3482   26.0821 C   0  0  0  0  0  0  0  0  0  0  0  0
   10.4239   -1.7677   22.2230 N   0  0  0  0  0  0  0  0  0  0  0  0
    9.9468   -4.5953   20.1709 C   0  0  0  0  0  0  0  0  0  0  0  0
   10.0366   -3.0590   23.9864 N   0  0  0  0  0  0  0  0  0  0  0  0
    7.1191   -7.3636   15.7739 C   0  0  0  0  0  0  0  0  0  0  0  0
    5.9612   -8.3203   17.2732 N   0  0  0  0  0  0  0  0  0  0  0  0
    8.5296   -5.9814   17.1841 C   0  0  0  0  0  0  0  0  0  0  0  0
    9.1527   -5.2118   16.2116 C   0  0  0  0  0  0  0  0  0  0  0  0
   10.3364   -3.8368   22.9255 O   0  0  0  0  0  0  0  0  0  0  0  0
    9.6947   -4.8407   18.8534 C   0  0  0  0  0  0  0  0  0  0  0  0
    9.1596    1.7042   24.1381 C   0  0  0  0  0  0  0  0  0  0  0  0
   11.0456   -2.9774   18.2694 N   0  0  0  0  0  0  0  0  0  0  0  0
   10.4788   -3.0457   21.8593 C   0  0  0  0  0  0  0  0  0  0  0  0
    8.8693   -5.8099   18.4657 N   0  0  0  0  0  0  0  0  0  0  0  0
    8.9892   -0.7926   25.4573 C   0  0  0  0  0  0  0  0  0  0  0  0
   10.5677   -3.4462   20.5323 C   0  0  0  0  0  0  0  0  0  0  0  0
  1  8  1  0
  1 12  4  0
  1 14  4  0
  2  3  4  0
  2 18  4  0
  3 20  4  0
  3 22  4  0
  4 11  4  0
  4 21  4  0
  5  9  4  0
  5 16  4  0
  6 15  4  0
  6 16  4  0
  7 22  4  0
  7 26  4  0
  8 10  4  0
  8 25  4  0
  9 15  4  0
  9 17  1  0
 10 21  4  0
 11 25  4  0
 12 23  4  0
 13 20  4  0
 13 26  4  0
 14 19  4  0
 17 18  4  0
 17 24  4  0
 19 23  4  0
 20 24  4  0
 23 26  1  0
M  END
$$$$

 Created by Python create_sdf_string function

 26 30  0  0  0  0  0  0  0  0999 V2000
   10.0084   -1.8019   23.4945 C   0  0  0  0  0  0  0  0  0  0  0  0
   10.0005   -4.2520   16.5631 C   0  0  0  0  0  0  0  0  0  0  0  0
   10.2759   -4.0036   17.8845 C   0  0  0  0  0  0  0  0  0  0  0  0
    8.5652    1.5478   25.3778 N   0  0  0  0  0  0  0  0  0  0  0  0
    6.8048   -7.5457   17.8752 C   0  0  0  0  0  0  0  0  0  0  0  0
    6.1721   -8.2186   15.9886 N   0  0  0  0  0  0  0  0  0  0  0  0
   11.1764   -2.6600   19.5604 C   0  0  0  0  0  0  0  0  0  0  0  0
    9.5491   -0.6380   24.1912 C   0  0  0  0  0  0  0  0  0  0  0  0
    7.5337   -6.9256   16.9519 C   0  0  0  0  0  0  0  0  0  0  0  0
    9.6782    0.5671   23.5143 C   0  0  0  0  0  0  0  0  0  0  0  0
    8.4532    0.3482   26.0821 C   0  0  0  0  0  0  0  0  0  0  0  0
   10.4239   -1.7677   22.2230 N   0  0  0  0  0  0  0  0  0  0  0  0
    9.9468   -4.5953   20.1709 C   0  0  0  0  0  0  0  0  0  0  0  0
   10.0366   -3.0590   23.9864 N   0  0  0  0  0  0  0  0  0  0  0  0
    7.1191   -7.3636   15.7739 C   0  0  0  0  0  0  0  0  0  0  0  0
    5.9612   -8.3203   17.2732 N   0  0  0  0  0  0  0  0  0  0  0  0
    8.5296   -5.9814   17.1841 C   0  0  0  0  0  0  0  0  0  0  0  0
    9.1527   -5.2118   16.2116 C   0  0  0  0  0  0  0  0  0  0  0  0
   10.3364   -3.8368   22.9255 O   0  0  0  0  0  0  0  0  0  0  0  0
    9.6947   -4.8407   18.8534 C   0  0  0  0  0  0  0  0  0  0  0  0
    9.1596    1.7042   24.1381 C   0  0  0  0  0  0  0  0  0  0  0  0
   11.0456   -2.9774   18.2694 N   0  0  0  0  0  0  0  0  0  0  0  0
   10.4788   -3.0457   21.8593 C   0  0  0  0  0  0  0  0  0  0  0  0
    8.8693   -5.8099   18.4657 N   0  0  0  0  0  0  0  0  0  0  0  0
    8.9892   -0.7926   25.4573 C   0  0  0  0  0  0  0  0  0  0  0  0
   10.5677   -3.4462   20.5323 C   0  0  0  0  0  0  0  0  0  0  0  0
  1  8  1  0
  1 12  4  0
  1 14  4  0
  2  3  4  0
  2 18  4  0
  3 20  4  0
  3 22  4  0
  4 11  4  0
  4 21  4  0
  5  9  4  0
  5 16  4  0
  6 15  4  0
  6 16  4  0
  7 22  4  0
  7 26  4  0
  8 10  4  0
  8 25  4  0
  9 15  4  0
  9 17  1  0
 10 21  4  0
 11 25  4  0
 12 23  4  0
 13 20  4  0
 13 26  4  0
 14 19  4  0
 17 18  4  0
 17 24  4  0
 19 23  4  0
 20 24  4  0
 23 26  1  0
M  END
$$$$

 Created by Python create_sdf_string function

 26 30  0  0  0  0  0  0  0  0999 V2000
   10.0084   -1.8019   23.4945 C   0  0  0  0  0  0  0  0  0  0  0  0
   10.0005   -4.2520   16.5631 C   0  0  0  0  0  0  0  0  0  0  0  0
   10.2759   -4.0036   17.8845 C   0  0  0  0  0  0  0  0  0  0  0  0
    8.5652    1.5478   25.3778 N   0  0  0  0  0  0  0  0  0  0  0  0
    6.8048   -7.5457   17.8752 C   0  0  0  0  0  0  0  0  0  0  0  0
    6.1721   -8.2186   15.9886 N   0  0  0  0  0  0  0  0  0  0  0  0
   11.1764   -2.6600   19.5604 C   0  0  0  0  0  0  0  0  0  0  0  0
    9.5491   -0.6380   24.1912 C   0  0  0  0  0  0  0  0  0  0  0  0
    7.5337   -6.9256   16.9519 C   0  0  0  0  0  0  0  0  0  0  0  0
    9.6782    0.5671   23.5143 C   0  0  0  0  0  0  0  0  0  0  0  0
    8.4532    0.3482   26.0821 C   0  0  0  0  0  0  0  0  0  0  0  0
   10.4239   -1.7677   22.2230 N   0  0  0  0  0  0  0  0  0  0  0  0
    9.9468   -4.5953   20.1709 C   0  0  0  0  0  0  0  0  0  0  0  0
   10.0366   -3.0590   23.9864 N   0  0  0  0  0  0  0  0  0  0  0  0
    7.1191   -7.3636   15.7739 C   0  0  0  0  0  0  0  0  0  0  0  0
    5.9612   -8.3203   17.2732 N   0  0  0  0  0  0  0  0  0  0  0  0
    8.5296   -5.9814   17.1841 C   0  0  0  0  0  0  0  0  0  0  0  0
    9.1527   -5.2118   16.2116 C   0  0  0  0  0  0  0  0  0  0  0  0
   10.3364   -3.8368   22.9255 O   0  0  0  0  0  0  0  0  0  0  0  0
    9.6947   -4.8407   18.8534 C   0  0  0  0  0  0  0  0  0  0  0  0
    9.1596    1.7042   24.1381 C   0  0  0  0  0  0  0  0  0  0  0  0
   11.0456   -2.9774   18.2694 N   0  0  0  0  0  0  0  0  0  0  0  0
   10.4788   -3.0457   21.8593 C   0  0  0  0  0  0  0  0  0  0  0  0
    8.8693   -5.8099   18.4657 N   0  0  0  0  0  0  0  0  0  0  0  0
    8.9892   -0.7926   25.4573 C   0  0  0  0  0  0  0  0  0  0  0  0
   10.5677   -3.4462   20.5323 C   0  0  0  0  0  0  0  0  0  0  0  0
  1  8  1  0
  1 12  4  0
  1 14  4  0
  2  3  4  0
  2 18  4  0
  3 20  4  0
  3 22  4  0
  4 11  4  0
  4 21  4  0
  5  9  4  0
  5 16  4  0
  6 15  4  0
  6 16  4  0
  7 22  4  0
  7 26  4  0
  8 10  4  0
  8 25  4  0
  9 15  4  0
  9 17  1  0
 10 21  4  0
 11 25  4  0
 12 23  4  0
 13 20  4  0
 13 26  4  0
 14 19  4  0
 17 18  4  0
 17 24  4  0
 19 23  4  0
 20 24  4  0
 23 26  1  0
M  END
$$$$

 Created by Python create_sdf_string function

 26 30  0  0  0  0  0  0  0  0999 V2000
   10.0084   -1.8019   23.4945 C   0  0  0  0  0  0  0  0  0  0  0  0
   10.0005   -4.2520   16.5631 C   0  0  0  0  0  0  0  0  0  0  0  0
   10.2759   -4.0036   17.8845 C   0  0  0  0  0  0  0  0  0  0  0  0
    8.5652    1.5478   25.3778 N   0  0  0  0  0  0  0  0  0  0  0  0
    6.8048   -7.5457   17.8752 C   0  0  0  0  0  0  0  0  0  0  0  0
    6.1721   -8.2186   15.9886 N   0  0  0  0  0  0  0  0  0  0  0  0
   11.1764   -2.6600   19.5604 C   0  0  0  0  0  0  0  0  0  0  0  0
    9.5491   -0.6380   24.1912 C   0  0  0  0  0  0  0  0  0  0  0  0
    7.5337   -6.9256   16.9519 C   0  0  0  0  0  0  0  0  0  0  0  0
    9.6782    0.5671   23.5143 C   0  0  0  0  0  0  0  0  0  0  0  0
    8.4532    0.3482   26.0821 C   0  0  0  0  0  0  0  0  0  0  0  0
   10.4239   -1.7677   22.2230 N   0  0  0  0  0  0  0  0  0  0  0  0
    9.9468   -4.5953   20.1709 C   0  0  0  0  0  0  0  0  0  0  0  0
   10.0366   -3.0590   23.9864 N   0  0  0  0  0  0  0  0  0  0  0  0
    7.1191   -7.3636   15.7739 C   0  0  0  0  0  0  0  0  0  0  0  0
    5.9612   -8.3203   17.2732 N   0  0  0  0  0  0  0  0  0  0  0  0
    8.5296   -5.9814   17.1841 C   0  0  0  0  0  0  0  0  0  0  0  0
    9.1527   -5.2118   16.2116 C   0  0  0  0  0  0  0  0  0  0  0  0
   10.3364   -3.8368   22.9255 O   0  0  0  0  0  0  0  0  0  0  0  0
    9.6947   -4.8407   18.8534 C   0  0  0  0  0  0  0  0  0  0  0  0
    9.1596    1.7042   24.1381 C   0  0  0  0  0  0  0  0  0  0  0  0
   11.0456   -2.9774   18.2694 N   0  0  0  0  0  0  0  0  0  0  0  0
   10.4788   -3.0457   21.8593 C   0  0  0  0  0  0  0  0  0  0  0  0
    8.8693   -5.8099   18.4657 N   0  0  0  0  0  0  0  0  0  0  0  0
    8.9892   -0.7926   25.4573 C   0  0  0  0  0  0  0  0  0  0  0  0
   10.5677   -3.4462   20.5323 C   0  0  0  0  0  0  0  0  0  0  0  0
  1  8  1  0
  1 12  4  0
  1 14  4  0
  2  3  4  0
  2 18  4  0
  3 20  4  0
  3 22  4  0
  4 11  4  0
  4 21  4  0
  5  9  4  0
  5 16  4  0
  6 15  4  0
  6 16  4  0
  7 22  4  0
  7 26  4  0
  8 10  4  0
  8 25  4  0
  9 15  4  0
  9 17  1  0
 10 21  4  0
 11 25  4  0
 12 23  4  0
 13 20  4  0
 13 26  4  0
 14 19  4  0
 17 18  4  0
 17 24  4  0
 19 23  4  0
 20 24  4  0
 23 26  1  0
M  END
$$$$

 Created by Python create_sdf_string function

 26 30  0  0  0  0  0  0  0  0999 V2000
   10.0084   -1.8019   23.4945 C   0  0  0  0  0  0  0  0  0  0  0  0
   10.0005   -4.2520   16.5631 C   0  0  0  0  0  0  0  0  0  0  0  0
   10.2759   -4.0036   17.8845 C   0  0  0  0  0  0  0  0  0  0  0  0
    8.5652    1.5478   25.3778 N   0  0  0  0  0  0  0  0  0  0  0  0
    6.8048   -7.5457   17.8752 C   0  0  0  0  0  0  0  0  0  0  0  0
    6.1721   -8.2186   15.9886 N   0  0  0  0  0  0  0  0  0  0  0  0
   11.1764   -2.6600   19.5604 C   0  0  0  0  0  0  0  0  0  0  0  0
    9.5491   -0.6380   24.1912 C   0  0  0  0  0  0  0  0  0  0  0  0
    7.5337   -6.9256   16.9519 C   0  0  0  0  0  0  0  0  0  0  0  0
    9.6782    0.5671   23.5143 C   0  0  0  0  0  0  0  0  0  0  0  0
    8.4532    0.3482   26.0821 C   0  0  0  0  0  0  0  0  0  0  0  0
   10.4239   -1.7677   22.2230 N   0  0  0  0  0  0  0  0  0  0  0  0
    9.9468   -4.5953   20.1709 C   0  0  0  0  0  0  0  0  0  0  0  0
   10.0366   -3.0590   23.9864 N   0  0  0  0  0  0  0  0  0  0  0  0
    7.1191   -7.3636   15.7739 C   0  0  0  0  0  0  0  0  0  0  0  0
    5.9612   -8.3203   17.2732 N   0  0  0  0  0  0  0  0  0  0  0  0
    8.5296   -5.9814   17.1841 C   0  0  0  0  0  0  0  0  0  0  0  0
    9.1527   -5.2118   16.2116 C   0  0  0  0  0  0  0  0  0  0  0  0
   10.3364   -3.8368   22.9255 O   0  0  0  0  0  0  0  0  0  0  0  0
    9.6947   -4.8407   18.8534 C   0  0  0  0  0  0  0  0  0  0  0  0
    9.1596    1.7042   24.1381 C   0  0  0  0  0  0  0  0  0  0  0  0
   11.0456   -2.9774   18.2694 N   0  0  0  0  0  0  0  0  0  0  0  0
   10.4788   -3.0457   21.8593 C   0  0  0  0  0  0  0  0  0  0  0  0
    8.8693   -5.8099   18.4657 N   0  0  0  0  0  0  0  0  0  0  0  0
    8.9892   -0.7926   25.4573 C   0  0  0  0  0  0  0  0  0  0  0  0
   10.5677   -3.4462   20.5323 C   0  0  0  0  0  0  0  0  0  0  0  0
  1  8  1  0
  1 12  4  0
  1 14  4  0
  2  3  4  0
  2 18  4  0
  3 20  4  0
  3 22  4  0
  4 11  4  0
  4 21  4  0
  5  9  4  0
  5 16  4  0
  6 15  4  0
  6 16  4  0
  7 22  4  0
  7 26  4  0
  8 10  4  0
  8 25  4  0
  9 15  4  0
  9 17  1  0
 10 21  4  0
 11 25  4  0
 12 23  4  0
 13 20  4  0
 13 26  4  0
 14 19  4  0
 17 18  4  0
 17 24  4  0
 19 23  4  0
 20 24  4  0
 23 26  1  0
M  END
$$$$

 Created by Python create_sdf_string function

 26 30  0  0  0  0  0  0  0  0999 V2000
   10.0084   -1.8019   23.4945 C   0  0  0  0  0  0  0  0  0  0  0  0
   10.0005   -4.2520   16.5631 C   0  0  0  0  0  0  0  0  0  0  0  0
   10.2759   -4.0036   17.8845 C   0  0  0  0  0  0  0  0  0  0  0  0
    8.5652    1.5478   25.3778 N   0  0  0  0  0  0  0  0  0  0  0  0
    6.8048   -7.5457   17.8752 C   0  0  0  0  0  0  0  0  0  0  0  0
    6.1721   -8.2186   15.9886 N   0  0  0  0  0  0  0  0  0  0  0  0
   11.1764   -2.6600   19.5604 C   0  0  0  0  0  0  0  0  0  0  0  0
    9.5491   -0.6380   24.1912 C   0  0  0  0  0  0  0  0  0  0  0  0
    7.5337   -6.9256   16.9519 C   0  0  0  0  0  0  0  0  0  0  0  0
    9.6782    0.5671   23.5143 C   0  0  0  0  0  0  0  0  0  0  0  0
    8.4532    0.3482   26.0821 C   0  0  0  0  0  0  0  0  0  0  0  0
   10.4239   -1.7677   22.2230 N   0  0  0  0  0  0  0  0  0  0  0  0
    9.9468   -4.5953   20.1709 C   0  0  0  0  0  0  0  0  0  0  0  0
   10.0366   -3.0590   23.9864 N   0  0  0  0  0  0  0  0  0  0  0  0
    7.1191   -7.3636   15.7739 C   0  0  0  0  0  0  0  0  0  0  0  0
    5.9612   -8.3203   17.2732 N   0  0  0  0  0  0  0  0  0  0  0  0
    8.5296   -5.9814   17.1841 C   0  0  0  0  0  0  0  0  0  0  0  0
    9.1527   -5.2118   16.2116 C   0  0  0  0  0  0  0  0  0  0  0  0
   10.3364   -3.8368   22.9255 O   0  0  0  0  0  0  0  0  0  0  0  0
    9.6947   -4.8407   18.8534 C   0  0  0  0  0  0  0  0  0  0  0  0
    9.1596    1.7042   24.1381 C   0  0  0  0  0  0  0  0  0  0  0  0
   11.0456   -2.9774   18.2694 N   0  0  0  0  0  0  0  0  0  0  0  0
   10.4788   -3.0457   21.8593 C   0  0  0  0  0  0  0  0  0  0  0  0
    8.8693   -5.8099   18.4657 N   0  0  0  0  0  0  0  0  0  0  0  0
    8.9892   -0.7926   25.4573 C   0  0  0  0  0  0  0  0  0  0  0  0
   10.5677   -3.4462   20.5323 C   0  0  0  0  0  0  0  0  0  0  0  0
  1  8  1  0
  1 12  4  0
  1 14  4  0
  2  3  4  0
  2 18  4  0
  3 20  4  0
  3 22  4  0
  4 11  4  0
  4 21  4  0
  5  9  4  0
  5 16  4  0
  6 15  4  0
  6 16  4  0
  7 22  4  0
  7 26  4  0
  8 10  4  0
  8 25  4  0
  9 15  4  0
  9 17  1  0
 10 21  4  0
 11 25  4  0
 12 23  4  0
 13 20  4  0
 13 26  4  0
 14 19  4  0
 17 18  4  0
 17 24  4  0
 19 23  4  0
 20 24  4  0
 23 26  1  0
M  END
$$$$

 Created by Python create_sdf_string function

 26 30  0  0  0  0  0  0  0  0999 V2000
   10.0084   -1.8019   23.4945 C   0  0  0  0  0  0  0  0  0  0  0  0
   10.0005   -4.2520   16.5631 C   0  0  0  0  0  0  0  0  0  0  0  0
   10.2759   -4.0036   17.8845 C   0  0  0  0  0  0  0  0  0  0  0  0
    8.5652    1.5478   25.3778 N   0  0  0  0  0  0  0  0  0  0  0  0
    6.8048   -7.5457   17.8752 C   0  0  0  0  0  0  0  0  0  0  0  0
    6.1721   -8.2186   15.9886 N   0  0  0  0  0  0  0  0  0  0  0  0
   11.1764   -2.6600   19.5604 C   0  0  0  0  0  0  0  0  0  0  0  0
    9.5491   -0.6380   24.1912 C   0  0  0  0  0  0  0  0  0  0  0  0
    7.5337   -6.9256   16.9519 C   0  0  0  0  0  0  0  0  0  0  0  0
    9.6782    0.5671   23.5143 C   0  0  0  0  0  0  0  0  0  0  0  0
    8.4532    0.3482   26.0821 C   0  0  0  0  0  0  0  0  0  0  0  0
   10.4239   -1.7677   22.2230 N   0  0  0  0  0  0  0  0  0  0  0  0
    9.9468   -4.5953   20.1709 C   0  0  0  0  0  0  0  0  0  0  0  0
   10.0366   -3.0590   23.9864 N   0  0  0  0  0  0  0  0  0  0  0  0
    7.1191   -7.3636   15.7739 C   0  0  0  0  0  0  0  0  0  0  0  0
    5.9612   -8.3203   17.2732 N   0  0  0  0  0  0  0  0  0  0  0  0
    8.5296   -5.9814   17.1841 C   0  0  0  0  0  0  0  0  0  0  0  0
    9.1527   -5.2118   16.2116 C   0  0  0  0  0  0  0  0  0  0  0  0
   10.3364   -3.8368   22.9255 O   0  0  0  0  0  0  0  0  0  0  0  0
    9.6947   -4.8407   18.8534 C   0  0  0  0  0  0  0  0  0  0  0  0
    9.1596    1.7042   24.1381 C   0  0  0  0  0  0  0  0  0  0  0  0
   11.0456   -2.9774   18.2694 N   0  0  0  0  0  0  0  0  0  0  0  0
   10.4788   -3.0457   21.8593 C   0  0  0  0  0  0  0  0  0  0  0  0
    8.8693   -5.8099   18.4657 N   0  0  0  0  0  0  0  0  0  0  0  0
    8.9892   -0.7926   25.4573 C   0  0  0  0  0  0  0  0  0  0  0  0
   10.5677   -3.4462   20.5323 C   0  0  0  0  0  0  0  0  0  0  0  0
  1  8  1  0
  1 12  4  0
  1 14  4  0
  2  3  4  0
  2 18  4  0
  3 20  4  0
  3 22  4  0
  4 11  4  0
  4 21  4  0
  5  9  4  0
  5 16  4  0
  6 15  4  0
  6 16  4  0
  7 22  4  0
  7 26  4  0
  8 10  4  0
  8 25  4  0
  9 15  4  0
  9 17  1  0
 10 21  4  0
 11 25  4  0
 12 23  4  0
 13 20  4  0
 13 26  4  0
 14 19  4  0
 17 18  4  0
 17 24  4  0
 19 23  4  0
 20 24  4  0
 23 26  1  0
M  END
$$$$

 Created by Python create_sdf_string function

 26 30  0  0  0  0  0  0  0  0999 V2000
   10.0084   -1.8019   23.4945 C   0  0  0  0  0  0  0  0  0  0  0  0
   10.0005   -4.2520   16.5631 C   0  0  0  0  0  0  0  0  0  0  0  0
   10.2759   -4.0036   17.8845 C   0  0  0  0  0  0  0  0  0  0  0  0
    8.5652    1.5478   25.3778 N   0  0  0  0  0  0  0  0  0  0  0  0
    6.8048   -7.5457   17.8752 C   0  0  0  0  0  0  0  0  0  0  0  0
    6.1721   -8.2186   15.9886 N   0  0  0  0  0  0  0  0  0  0  0  0
   11.1764   -2.6600   19.5604 C   0  0  0  0  0  0  0  0  0  0  0  0
    9.5491   -0.6380   24.1912 C   0  0  0  0  0  0  0  0  0  0  0  0
    7.5337   -6.9256   16.9519 C   0  0  0  0  0  0  0  0  0  0  0  0
    9.6782    0.5671   23.5143 C   0  0  0  0  0  0  0  0  0  0  0  0
    8.4532    0.3482   26.0821 C   0  0  0  0  0  0  0  0  0  0  0  0
   10.4239   -1.7677   22.2230 N   0  0  0  0  0  0  0  0  0  0  0  0
    9.9468   -4.5953   20.1709 C   0  0  0  0  0  0  0  0  0  0  0  0
   10.0366   -3.0590   23.9864 N   0  0  0  0  0  0  0  0  0  0  0  0
    7.1191   -7.3636   15.7739 C   0  0  0  0  0  0  0  0  0  0  0  0
    5.9612   -8.3203   17.2732 N   0  0  0  0  0  0  0  0  0  0  0  0
    8.5296   -5.9814   17.1841 C   0  0  0  0  0  0  0  0  0  0  0  0
    9.1527   -5.2118   16.2116 C   0  0  0  0  0  0  0  0  0  0  0  0
   10.3364   -3.8368   22.9255 O   0  0  0  0  0  0  0  0  0  0  0  0
    9.6947   -4.8407   18.8534 C   0  0  0  0  0  0  0  0  0  0  0  0
    9.1596    1.7042   24.1381 C   0  0  0  0  0  0  0  0  0  0  0  0
   11.0456   -2.9774   18.2694 N   0  0  0  0  0  0  0  0  0  0  0  0
   10.4788   -3.0457   21.8593 C   0  0  0  0  0  0  0  0  0  0  0  0
    8.8693   -5.8099   18.4657 N   0  0  0  0  0  0  0  0  0  0  0  0
    8.9892   -0.7926   25.4573 C   0  0  0  0  0  0  0  0  0  0  0  0
   10.5677   -3.4462   20.5323 C   0  0  0  0  0  0  0  0  0  0  0  0
  1  8  1  0
  1 12  4  0
  1 14  4  0
  2  3  4  0
  2 18  4  0
  3 20  4  0
  3 22  4  0
  4 11  4  0
  4 21  4  0
  5  9  4  0
  5 16  4  0
  6 15  4  0
  6 16  4  0
  7 22  4  0
  7 26  4  0
  8 10  4  0
  8 25  4  0
  9 15  4  0
  9 17  1  0
 10 21  4  0
 11 25  4  0
 12 23  4  0
 13 20  4  0
 13 26  4  0
 14 19  4  0
 17 18  4  0
 17 24  4  0
 19 23  4  0
 20 24  4  0
 23 26  1  0
M  END
$$$$

 Created by Python create_sdf_string function

 26 30  0  0  0  0  0  0  0  0999 V2000
   10.0084   -1.8019   23.4945 C   0  0  0  0  0  0  0  0  0  0  0  0
   10.0005   -4.2520   16.5631 C   0  0  0  0  0  0  0  0  0  0  0  0
   10.2759   -4.0036   17.8845 C   0  0  0  0  0  0  0  0  0  0  0  0
    8.5652    1.5478   25.3778 N   0  0  0  0  0  0  0  0  0  0  0  0
    6.8048   -7.5457   17.8752 C   0  0  0  0  0  0  0  0  0  0  0  0
    6.1721   -8.2186   15.9886 N   0  0  0  0  0  0  0  0  0  0  0  0
   11.1764   -2.6600   19.5604 C   0  0  0  0  0  0  0  0  0  0  0  0
    9.5491   -0.6380   24.1912 C   0  0  0  0  0  0  0  0  0  0  0  0
    7.5337   -6.9256   16.9519 C   0  0  0  0  0  0  0  0  0  0  0  0
    9.6782    0.5671   23.5143 C   0  0  0  0  0  0  0  0  0  0  0  0
    8.4532    0.3482   26.0821 C   0  0  0  0  0  0  0  0  0  0  0  0
   10.4239   -1.7677   22.2230 N   0  0  0  0  0  0  0  0  0  0  0  0
    9.9468   -4.5953   20.1709 C   0  0  0  0  0  0  0  0  0  0  0  0
   10.0366   -3.0590   23.9864 N   0  0  0  0  0  0  0  0  0  0  0  0
    7.1191   -7.3636   15.7739 C   0  0  0  0  0  0  0  0  0  0  0  0
    5.9612   -8.3203   17.2732 N   0  0  0  0  0  0  0  0  0  0  0  0
    8.5296   -5.9814   17.1841 C   0  0  0  0  0  0  0  0  0  0  0  0
    9.1527   -5.2118   16.2116 C   0  0  0  0  0  0  0  0  0  0  0  0
   10.3364   -3.8368   22.9255 O   0  0  0  0  0  0  0  0  0  0  0  0
    9.6947   -4.8407   18.8534 C   0  0  0  0  0  0  0  0  0  0  0  0
    9.1596    1.7042   24.1381 C   0  0  0  0  0  0  0  0  0  0  0  0
   11.0456   -2.9774   18.2694 N   0  0  0  0  0  0  0  0  0  0  0  0
   10.4788   -3.0457   21.8593 C   0  0  0  0  0  0  0  0  0  0  0  0
    8.8693   -5.8099   18.4657 N   0  0  0  0  0  0  0  0  0  0  0  0
    8.9892   -0.7926   25.4573 C   0  0  0  0  0  0  0  0  0  0  0  0
   10.5677   -3.4462   20.5323 C   0  0  0  0  0  0  0  0  0  0  0  0
  1  8  1  0
  1 12  4  0
  1 14  4  0
  2  3  4  0
  2 18  4  0
  3 20  4  0
  3 22  4  0
  4 11  4  0
  4 21  4  0
  5  9  4  0
  5 16  4  0
  6 15  4  0
  6 16  4  0
  7 22  4  0
  7 26  4  0
  8 10  4  0
  8 25  4  0
  9 15  4  0
  9 17  1  0
 10 21  4  0
 11 25  4  0
 12 23  4  0
 13 20  4  0
 13 26  4  0
 14 19  4  0
 17 18  4  0
 17 24  4  0
 19 23  4  0
 20 24  4  0
 23 26  1  0
M  END
$$$$

 Created by Python create_sdf_string function

 26 30  0  0  0  0  0  0  0  0999 V2000
   10.0084   -1.8019   23.4945 C   0  0  0  0  0  0  0  0  0  0  0  0
   10.0005   -4.2520   16.5631 C   0  0  0  0  0  0  0  0  0  0  0  0
   10.2759   -4.0036   17.8845 C   0  0  0  0  0  0  0  0  0  0  0  0
    8.5652    1.5478   25.3778 N   0  0  0  0  0  0  0  0  0  0  0  0
    6.8048   -7.5457   17.8752 C   0  0  0  0  0  0  0  0  0  0  0  0
    6.1721   -8.2186   15.9886 N   0  0  0  0  0  0  0  0  0  0  0  0
   11.1764   -2.6600   19.5604 C   0  0  0  0  0  0  0  0  0  0  0  0
    9.5491   -0.6380   24.1912 C   0  0  0  0  0  0  0  0  0  0  0  0
    7.5337   -6.9256   16.9519 C   0  0  0  0  0  0  0  0  0  0  0  0
    9.6782    0.5671   23.5143 C   0  0  0  0  0  0  0  0  0  0  0  0
    8.4532    0.3482   26.0821 C   0  0  0  0  0  0  0  0  0  0  0  0
   10.4239   -1.7677   22.2230 N   0  0  0  0  0  0  0  0  0  0  0  0
    9.9468   -4.5953   20.1709 C   0  0  0  0  0  0  0  0  0  0  0  0
   10.0366   -3.0590   23.9864 N   0  0  0  0  0  0  0  0  0  0  0  0
    7.1191   -7.3636   15.7739 C   0  0  0  0  0  0  0  0  0  0  0  0
    5.9612   -8.3203   17.2732 N   0  0  0  0  0  0  0  0  0  0  0  0
    8.5296   -5.9814   17.1841 C   0  0  0  0  0  0  0  0  0  0  0  0
    9.1527   -5.2118   16.2116 C   0  0  0  0  0  0  0  0  0  0  0  0
   10.3364   -3.8368   22.9255 O   0  0  0  0  0  0  0  0  0  0  0  0
    9.6947   -4.8407   18.8534 C   0  0  0  0  0  0  0  0  0  0  0  0
    9.1596    1.7042   24.1381 C   0  0  0  0  0  0  0  0  0  0  0  0
   11.0456   -2.9774   18.2694 N   0  0  0  0  0  0  0  0  0  0  0  0
   10.4788   -3.0457   21.8593 C   0  0  0  0  0  0  0  0  0  0  0  0
    8.8693   -5.8099   18.4657 N   0  0  0  0  0  0  0  0  0  0  0  0
    8.9892   -0.7926   25.4573 C   0  0  0  0  0  0  0  0  0  0  0  0
   10.5677   -3.4462   20.5323 C   0  0  0  0  0  0  0  0  0  0  0  0
  1  8  1  0
  1 12  4  0
  1 14  4  0
  2  3  4  0
  2 18  4  0
  3 20  4  0
  3 22  4  0
  4 11  4  0
  4 21  4  0
  5  9  4  0
  5 16  4  0
  6 15  4  0
  6 16  4  0
  7 22  4  0
  7 26  4  0
  8 10  4  0
  8 25  4  0
  9 15  4  0
  9 17  1  0
 10 21  4  0
 11 25  4  0
 12 23  4  0
 13 20  4  0
 13 26  4  0
 14 19  4  0
 17 18  4  0
 17 24  4  0
 19 23  4  0
 20 24  4  0
 23 26  1  0
M  END
$$$$

 Created by Python create_sdf_string function

 26 30  0  0  0  0  0  0  0  0999 V2000
   10.0084   -1.8019   23.4945 C   0  0  0  0  0  0  0  0  0  0  0  0
   10.0005   -4.2520   16.5631 C   0  0  0  0  0  0  0  0  0  0  0  0
   10.2759   -4.0036   17.8845 C   0  0  0  0  0  0  0  0  0  0  0  0
    8.5652    1.5478   25.3778 N   0  0  0  0  0  0  0  0  0  0  0  0
    6.8048   -7.5457   17.8752 C   0  0  0  0  0  0  0  0  0  0  0  0
    6.1721   -8.2186   15.9886 N   0  0  0  0  0  0  0  0  0  0  0  0
   11.1764   -2.6600   19.5604 C   0  0  0  0  0  0  0  0  0  0  0  0
    9.5491   -0.6380   24.1912 C   0  0  0  0  0  0  0  0  0  0  0  0
    7.5337   -6.9256   16.9519 C   0  0  0  0  0  0  0  0  0  0  0  0
    9.6782    0.5671   23.5143 C   0  0  0  0  0  0  0  0  0  0  0  0
    8.4532    0.3482   26.0821 C   0  0  0  0  0  0  0  0  0  0  0  0
   10.4239   -1.7677   22.2230 N   0  0  0  0  0  0  0  0  0  0  0  0
    9.9468   -4.5953   20.1709 C   0  0  0  0  0  0  0  0  0  0  0  0
   10.0366   -3.0590   23.9864 N   0  0  0  0  0  0  0  0  0  0  0  0
    7.1191   -7.3636   15.7739 C   0  0  0  0  0  0  0  0  0  0  0  0
    5.9612   -8.3203   17.2732 N   0  0  0  0  0  0  0  0  0  0  0  0
    8.5296   -5.9814   17.1841 C   0  0  0  0  0  0  0  0  0  0  0  0
    9.1527   -5.2118   16.2116 C   0  0  0  0  0  0  0  0  0  0  0  0
   10.3364   -3.8368   22.9255 O   0  0  0  0  0  0  0  0  0  0  0  0
    9.6947   -4.8407   18.8534 C   0  0  0  0  0  0  0  0  0  0  0  0
    9.1596    1.7042   24.1381 C   0  0  0  0  0  0  0  0  0  0  0  0
   11.0456   -2.9774   18.2694 N   0  0  0  0  0  0  0  0  0  0  0  0
   10.4788   -3.0457   21.8593 C   0  0  0  0  0  0  0  0  0  0  0  0
    8.8693   -5.8099   18.4657 N   0  0  0  0  0  0  0  0  0  0  0  0
    8.9892   -0.7926   25.4573 C   0  0  0  0  0  0  0  0  0  0  0  0
   10.5677   -3.4462   20.5323 C   0  0  0  0  0  0  0  0  0  0  0  0
  1  8  1  0
  1 12  4  0
  1 14  4  0
  2  3  4  0
  2 18  4  0
  3 20  4  0
  3 22  4  0
  4 11  4  0
  4 21  4  0
  5  9  4  0
  5 16  4  0
  6 15  4  0
  6 16  4  0
  7 22  4  0
  7 26  4  0
  8 10  4  0
  8 25  4  0
  9 15  4  0
  9 17  1  0
 10 21  4  0
 11 25  4  0
 12 23  4  0
 13 20  4  0
 13 26  4  0
 14 19  4  0
 17 18  4  0
 17 24  4  0
 19 23  4  0
 20 24  4  0
 23 26  1  0
M  END
$$$$

 Created by Python create_sdf_string function

 26 30  0  0  0  0  0  0  0  0999 V2000
   10.0084   -1.8019   23.4945 C   0  0  0  0  0  0  0  0  0  0  0  0
   10.0005   -4.2520   16.5631 C   0  0  0  0  0  0  0  0  0  0  0  0
   10.2759   -4.0036   17.8845 C   0  0  0  0  0  0  0  0  0  0  0  0
    8.5652    1.5478   25.3778 N   0  0  0  0  0  0  0  0  0  0  0  0
    6.8048   -7.5457   17.8752 C   0  0  0  0  0  0  0  0  0  0  0  0
    6.1721   -8.2186   15.9886 N   0  0  0  0  0  0  0  0  0  0  0  0
   11.1764   -2.6600   19.5604 C   0  0  0  0  0  0  0  0  0  0  0  0
    9.5491   -0.6380   24.1912 C   0  0  0  0  0  0  0  0  0  0  0  0
    7.5337   -6.9256   16.9519 C   0  0  0  0  0  0  0  0  0  0  0  0
    9.6782    0.5671   23.5143 C   0  0  0  0  0  0  0  0  0  0  0  0
    8.4532    0.3482   26.0821 C   0  0  0  0  0  0  0  0  0  0  0  0
   10.4239   -1.7677   22.2230 N   0  0  0  0  0  0  0  0  0  0  0  0
    9.9468   -4.5953   20.1709 C   0  0  0  0  0  0  0  0  0  0  0  0
   10.0366   -3.0590   23.9864 N   0  0  0  0  0  0  0  0  0  0  0  0
    7.1191   -7.3636   15.7739 C   0  0  0  0  0  0  0  0  0  0  0  0
    5.9612   -8.3203   17.2732 N   0  0  0  0  0  0  0  0  0  0  0  0
    8.5296   -5.9814   17.1841 C   0  0  0  0  0  0  0  0  0  0  0  0
    9.1527   -5.2118   16.2116 C   0  0  0  0  0  0  0  0  0  0  0  0
   10.3364   -3.8368   22.9255 O   0  0  0  0  0  0  0  0  0  0  0  0
    9.6947   -4.8407   18.8534 C   0  0  0  0  0  0  0  0  0  0  0  0
    9.1596    1.7042   24.1381 C   0  0  0  0  0  0  0  0  0  0  0  0
   11.0456   -2.9774   18.2694 N   0  0  0  0  0  0  0  0  0  0  0  0
   10.4788   -3.0457   21.8593 C   0  0  0  0  0  0  0  0  0  0  0  0
    8.8693   -5.8099   18.4657 N   0  0  0  0  0  0  0  0  0  0  0  0
    8.9892   -0.7926   25.4573 C   0  0  0  0  0  0  0  0  0  0  0  0
   10.5677   -3.4462   20.5323 C   0  0  0  0  0  0  0  0  0  0  0  0
  1  8  1  0
  1 12  4  0
  1 14  4  0
  2  3  4  0
  2 18  4  0
  3 20  4  0
  3 22  4  0
  4 11  4  0
  4 21  4  0
  5  9  4  0
  5 16  4  0
  6 15  4  0
  6 16  4  0
  7 22  4  0
  7 26  4  0
  8 10  4  0
  8 25  4  0
  9 15  4  0
  9 17  1  0
 10 21  4  0
 11 25  4  0
 12 23  4  0
 13 20  4  0
 13 26  4  0
 14 19  4  0
 17 18  4  0
 17 24  4  0
 19 23  4  0
 20 24  4  0
 23 26  1  0
M  END
$$$$

 Created by Python create_sdf_string function

 26 30  0  0  0  0  0  0  0  0999 V2000
   10.0084   -1.8019   23.4945 C   0  0  0  0  0  0  0  0  0  0  0  0
   10.0005   -4.2520   16.5631 C   0  0  0  0  0  0  0  0  0  0  0  0
   10.2759   -4.0036   17.8845 C   0  0  0  0  0  0  0  0  0  0  0  0
    8.5652    1.5478   25.3778 N   0  0  0  0  0  0  0  0  0  0  0  0
    6.8048   -7.5457   17.8752 C   0  0  0  0  0  0  0  0  0  0  0  0
    6.1721   -8.2186   15.9886 N   0  0  0  0  0  0  0  0  0  0  0  0
   11.1764   -2.6600   19.5604 C   0  0  0  0  0  0  0  0  0  0  0  0
    9.5491   -0.6380   24.1912 C   0  0  0  0  0  0  0  0  0  0  0  0
    7.5337   -6.9256   16.9519 C   0  0  0  0  0  0  0  0  0  0  0  0
    9.6782    0.5671   23.5143 C   0  0  0  0  0  0  0  0  0  0  0  0
    8.4532    0.3482   26.0821 C   0  0  0  0  0  0  0  0  0  0  0  0
   10.4239   -1.7677   22.2230 N   0  0  0  0  0  0  0  0  0  0  0  0
    9.9468   -4.5953   20.1709 C   0  0  0  0  0  0  0  0  0  0  0  0
   10.0366   -3.0590   23.9864 N   0  0  0  0  0  0  0  0  0  0  0  0
    7.1191   -7.3636   15.7739 C   0  0  0  0  0  0  0  0  0  0  0  0
    5.9612   -8.3203   17.2732 N   0  0  0  0  0  0  0  0  0  0  0  0
    8.5296   -5.9814   17.1841 C   0  0  0  0  0  0  0  0  0  0  0  0
    9.1527   -5.2118   16.2116 C   0  0  0  0  0  0  0  0  0  0  0  0
   10.3364   -3.8368   22.9255 O   0  0  0  0  0  0  0  0  0  0  0  0
    9.6947   -4.8407   18.8534 C   0  0  0  0  0  0  0  0  0  0  0  0
    9.1596    1.7042   24.1381 C   0  0  0  0  0  0  0  0  0  0  0  0
   11.0456   -2.9774   18.2694 N   0  0  0  0  0  0  0  0  0  0  0  0
   10.4788   -3.0457   21.8593 C   0  0  0  0  0  0  0  0  0  0  0  0
    8.8693   -5.8099   18.4657 N   0  0  0  0  0  0  0  0  0  0  0  0
    8.9892   -0.7926   25.4573 C   0  0  0  0  0  0  0  0  0  0  0  0
   10.5677   -3.4462   20.5323 C   0  0  0  0  0  0  0  0  0  0  0  0
  1  8  1  0
  1 12  4  0
  1 14  4  0
  2  3  4  0
  2 18  4  0
  3 20  4  0
  3 22  4  0
  4 11  4  0
  4 21  4  0
  5  9  4  0
  5 16  4  0
  6 15  4  0
  6 16  4  0
  7 22  4  0
  7 26  4  0
  8 10  4  0
  8 25  4  0
  9 15  4  0
  9 17  1  0
 10 21  4  0
 11 25  4  0
 12 23  4  0
 13 20  4  0
 13 26  4  0
 14 19  4  0
 17 18  4  0
 17 24  4  0
 19 23  4  0
 20 24  4  0
 23 26  1  0
M  END
$$$$

 Created by Python create_sdf_string function

 26 30  0  0  0  0  0  0  0  0999 V2000
   10.0084   -1.8019   23.4945 C   0  0  0  0  0  0  0  0  0  0  0  0
   10.0005   -4.2520   16.5631 C   0  0  0  0  0  0  0  0  0  0  0  0
   10.2759   -4.0036   17.8845 C   0  0  0  0  0  0  0  0  0  0  0  0
    8.5652    1.5478   25.3778 N   0  0  0  0  0  0  0  0  0  0  0  0
    6.8048   -7.5457   17.8752 C   0  0  0  0  0  0  0  0  0  0  0  0
    6.1721   -8.2186   15.9886 N   0  0  0  0  0  0  0  0  0  0  0  0
   11.1764   -2.6600   19.5604 C   0  0  0  0  0  0  0  0  0  0  0  0
    9.5491   -0.6380   24.1912 C   0  0  0  0  0  0  0  0  0  0  0  0
    7.5337   -6.9256   16.9519 C   0  0  0  0  0  0  0  0  0  0  0  0
    9.6782    0.5671   23.5143 C   0  0  0  0  0  0  0  0  0  0  0  0
    8.4532    0.3482   26.0821 C   0  0  0  0  0  0  0  0  0  0  0  0
   10.4239   -1.7677   22.2230 N   0  0  0  0  0  0  0  0  0  0  0  0
    9.9468   -4.5953   20.1709 C   0  0  0  0  0  0  0  0  0  0  0  0
   10.0366   -3.0590   23.9864 N   0  0  0  0  0  0  0  0  0  0  0  0
    7.1191   -7.3636   15.7739 C   0  0  0  0  0  0  0  0  0  0  0  0
    5.9612   -8.3203   17.2732 N   0  0  0  0  0  0  0  0  0  0  0  0
    8.5296   -5.9814   17.1841 C   0  0  0  0  0  0  0  0  0  0  0  0
    9.1527   -5.2118   16.2116 C   0  0  0  0  0  0  0  0  0  0  0  0
   10.3364   -3.8368   22.9255 O   0  0  0  0  0  0  0  0  0  0  0  0
    9.6947   -4.8407   18.8534 C   0  0  0  0  0  0  0  0  0  0  0  0
    9.1596    1.7042   24.1381 C   0  0  0  0  0  0  0  0  0  0  0  0
   11.0456   -2.9774   18.2694 N   0  0  0  0  0  0  0  0  0  0  0  0
   10.4788   -3.0457   21.8593 C   0  0  0  0  0  0  0  0  0  0  0  0
    8.8693   -5.8099   18.4657 N   0  0  0  0  0  0  0  0  0  0  0  0
    8.9892   -0.7926   25.4573 C   0  0  0  0  0  0  0  0  0  0  0  0
   10.5677   -3.4462   20.5323 C   0  0  0  0  0  0  0  0  0  0  0  0
  1  8  1  0
  1 12  4  0
  1 14  4  0
  2  3  4  0
  2 18  4  0
  3 20  4  0
  3 22  4  0
  4 11  4  0
  4 21  4  0
  5  9  4  0
  5 16  4  0
  6 15  4  0
  6 16  4  0
  7 22  4  0
  7 26  4  0
  8 10  4  0
  8 25  4  0
  9 15  4  0
  9 17  1  0
 10 21  4  0
 11 25  4  0
 12 23  4  0
 13 20  4  0
 13 26  4  0
 14 19  4  0
 17 18  4  0
 17 24  4  0
 19 23  4  0
 20 24  4  0
 23 26  1  0
M  END
$$$$

 Created by Python create_sdf_string function

 26 30  0  0  0  0  0  0  0  0999 V2000
   10.0084   -1.8019   23.4945 C   0  0  0  0  0  0  0  0  0  0  0  0
   10.0005   -4.2520   16.5631 C   0  0  0  0  0  0  0  0  0  0  0  0
   10.2759   -4.0036   17.8845 C   0  0  0  0  0  0  0  0  0  0  0  0
    8.5652    1.5478   25.3778 N   0  0  0  0  0  0  0  0  0  0  0  0
    6.8048   -7.5457   17.8752 C   0  0  0  0  0  0  0  0  0  0  0  0
    6.1721   -8.2186   15.9886 N   0  0  0  0  0  0  0  0  0  0  0  0
   11.1764   -2.6600   19.5604 C   0  0  0  0  0  0  0  0  0  0  0  0
    9.5491   -0.6380   24.1912 C   0  0  0  0  0  0  0  0  0  0  0  0
    7.5337   -6.9256   16.9519 C   0  0  0  0  0  0  0  0  0  0  0  0
    9.6782    0.5671   23.5143 C   0  0  0  0  0  0  0  0  0  0  0  0
    8.4532    0.3482   26.0821 C   0  0  0  0  0  0  0  0  0  0  0  0
   10.4239   -1.7677   22.2230 N   0  0  0  0  0  0  0  0  0  0  0  0
    9.9468   -4.5953   20.1709 C   0  0  0  0  0  0  0  0  0  0  0  0
   10.0366   -3.0590   23.9864 N   0  0  0  0  0  0  0  0  0  0  0  0
    7.1191   -7.3636   15.7739 C   0  0  0  0  0  0  0  0  0  0  0  0
    5.9612   -8.3203   17.2732 N   0  0  0  0  0  0  0  0  0  0  0  0
    8.5296   -5.9814   17.1841 C   0  0  0  0  0  0  0  0  0  0  0  0
    9.1527   -5.2118   16.2116 C   0  0  0  0  0  0  0  0  0  0  0  0
   10.3364   -3.8368   22.9255 O   0  0  0  0  0  0  0  0  0  0  0  0
    9.6947   -4.8407   18.8534 C   0  0  0  0  0  0  0  0  0  0  0  0
    9.1596    1.7042   24.1381 C   0  0  0  0  0  0  0  0  0  0  0  0
   11.0456   -2.9774   18.2694 N   0  0  0  0  0  0  0  0  0  0  0  0
   10.4788   -3.0457   21.8593 C   0  0  0  0  0  0  0  0  0  0  0  0
    8.8693   -5.8099   18.4657 N   0  0  0  0  0  0  0  0  0  0  0  0
    8.9892   -0.7926   25.4573 C   0  0  0  0  0  0  0  0  0  0  0  0
   10.5677   -3.4462   20.5323 C   0  0  0  0  0  0  0  0  0  0  0  0
  1  8  1  0
  1 12  4  0
  1 14  4  0
  2  3  4  0
  2 18  4  0
  3 20  4  0
  3 22  4  0
  4 11  4  0
  4 21  4  0
  5  9  4  0
  5 16  4  0
  6 15  4  0
  6 16  4  0
  7 22  4  0
  7 26  4  0
  8 10  4  0
  8 25  4  0
  9 15  4  0
  9 17  1  0
 10 21  4  0
 11 25  4  0
 12 23  4  0
 13 20  4  0
 13 26  4  0
 14 19  4  0
 17 18  4  0
 17 24  4  0
 19 23  4  0
 20 24  4  0
 23 26  1  0
M  END
$$$$

 Created by Python create_sdf_string function

 26 30  0  0  0  0  0  0  0  0999 V2000
   10.0084   -1.8019   23.4945 C   0  0  0  0  0  0  0  0  0  0  0  0
   10.0005   -4.2520   16.5631 C   0  0  0  0  0  0  0  0  0  0  0  0
   10.2759   -4.0036   17.8845 C   0  0  0  0  0  0  0  0  0  0  0  0
    8.5652    1.5478   25.3778 N   0  0  0  0  0  0  0  0  0  0  0  0
    6.8048   -7.5457   17.8752 C   0  0  0  0  0  0  0  0  0  0  0  0
    6.1721   -8.2186   15.9886 N   0  0  0  0  0  0  0  0  0  0  0  0
   11.1764   -2.6600   19.5604 C   0  0  0  0  0  0  0  0  0  0  0  0
    9.5491   -0.6380   24.1912 C   0  0  0  0  0  0  0  0  0  0  0  0
    7.5337   -6.9256   16.9519 C   0  0  0  0  0  0  0  0  0  0  0  0
    9.6782    0.5671   23.5143 C   0  0  0  0  0  0  0  0  0  0  0  0
    8.4532    0.3482   26.0821 C   0  0  0  0  0  0  0  0  0  0  0  0
   10.4239   -1.7677   22.2230 N   0  0  0  0  0  0  0  0  0  0  0  0
    9.9468   -4.5953   20.1709 C   0  0  0  0  0  0  0  0  0  0  0  0
   10.0366   -3.0590   23.9864 N   0  0  0  0  0  0  0  0  0  0  0  0
    7.1191   -7.3636   15.7739 C   0  0  0  0  0  0  0  0  0  0  0  0
    5.9612   -8.3203   17.2732 N   0  0  0  0  0  0  0  0  0  0  0  0
    8.5296   -5.9814   17.1841 C   0  0  0  0  0  0  0  0  0  0  0  0
    9.1527   -5.2118   16.2116 C   0  0  0  0  0  0  0  0  0  0  0  0
   10.3364   -3.8368   22.9255 O   0  0  0  0  0  0  0  0  0  0  0  0
    9.6947   -4.8407   18.8534 C   0  0  0  0  0  0  0  0  0  0  0  0
    9.1596    1.7042   24.1381 C   0  0  0  0  0  0  0  0  0  0  0  0
   11.0456   -2.9774   18.2694 N   0  0  0  0  0  0  0  0  0  0  0  0
   10.4788   -3.0457   21.8593 C   0  0  0  0  0  0  0  0  0  0  0  0
    8.8693   -5.8099   18.4657 N   0  0  0  0  0  0  0  0  0  0  0  0
    8.9892   -0.7926   25.4573 C   0  0  0  0  0  0  0  0  0  0  0  0
   10.5677   -3.4462   20.5323 C   0  0  0  0  0  0  0  0  0  0  0  0
  1  8  1  0
  1 12  4  0
  1 14  4  0
  2  3  4  0
  2 18  4  0
  3 20  4  0
  3 22  4  0
  4 11  4  0
  4 21  4  0
  5  9  4  0
  5 16  4  0
  6 15  4  0
  6 16  4  0
  7 22  4  0
  7 26  4  0
  8 10  4  0
  8 25  4  0
  9 15  4  0
  9 17  1  0
 10 21  4  0
 11 25  4  0
 12 23  4  0
 13 20  4  0
 13 26  4  0
 14 19  4  0
 17 18  4  0
 17 24  4  0
 19 23  4  0
 20 24  4  0
 23 26  1  0
M  END
$$$$

 Created by Python create_sdf_string function

 26 30  0  0  0  0  0  0  0  0999 V2000
   10.0084   -1.8019   23.4945 C   0  0  0  0  0  0  0  0  0  0  0  0
   10.0005   -4.2520   16.5631 C   0  0  0  0  0  0  0  0  0  0  0  0
   10.2759   -4.0036   17.8845 C   0  0  0  0  0  0  0  0  0  0  0  0
    8.5652    1.5478   25.3778 N   0  0  0  0  0  0  0  0  0  0  0  0
    6.8048   -7.5457   17.8752 C   0  0  0  0  0  0  0  0  0  0  0  0
    6.1721   -8.2186   15.9886 N   0  0  0  0  0  0  0  0  0  0  0  0
   11.1764   -2.6600   19.5604 C   0  0  0  0  0  0  0  0  0  0  0  0
    9.5491   -0.6380   24.1912 C   0  0  0  0  0  0  0  0  0  0  0  0
    7.5337   -6.9256   16.9519 C   0  0  0  0  0  0  0  0  0  0  0  0
    9.6782    0.5671   23.5143 C   0  0  0  0  0  0  0  0  0  0  0  0
    8.4532    0.3482   26.0821 C   0  0  0  0  0  0  0  0  0  0  0  0
   10.4239   -1.7677   22.2230 N   0  0  0  0  0  0  0  0  0  0  0  0
    9.9468   -4.5953   20.1709 C   0  0  0  0  0  0  0  0  0  0  0  0
   10.0366   -3.0590   23.9864 N   0  0  0  0  0  0  0  0  0  0  0  0
    7.1191   -7.3636   15.7739 C   0  0  0  0  0  0  0  0  0  0  0  0
    5.9612   -8.3203   17.2732 N   0  0  0  0  0  0  0  0  0  0  0  0
    8.5296   -5.9814   17.1841 C   0  0  0  0  0  0  0  0  0  0  0  0
    9.1527   -5.2118   16.2116 C   0  0  0  0  0  0  0  0  0  0  0  0
   10.3364   -3.8368   22.9255 O   0  0  0  0  0  0  0  0  0  0  0  0
    9.6947   -4.8407   18.8534 C   0  0  0  0  0  0  0  0  0  0  0  0
    9.1596    1.7042   24.1381 C   0  0  0  0  0  0  0  0  0  0  0  0
   11.0456   -2.9774   18.2694 N   0  0  0  0  0  0  0  0  0  0  0  0
   10.4788   -3.0457   21.8593 C   0  0  0  0  0  0  0  0  0  0  0  0
    8.8693   -5.8099   18.4657 N   0  0  0  0  0  0  0  0  0  0  0  0
    8.9892   -0.7926   25.4573 C   0  0  0  0  0  0  0  0  0  0  0  0
   10.5677   -3.4462   20.5323 C   0  0  0  0  0  0  0  0  0  0  0  0
  1  8  1  0
  1 12  4  0
  1 14  4  0
  2  3  4  0
  2 18  4  0
  3 20  4  0
  3 22  4  0
  4 11  4  0
  4 21  4  0
  5  9  4  0
  5 16  4  0
  6 15  4  0
  6 16  4  0
  7 22  4  0
  7 26  4  0
  8 10  4  0
  8 25  4  0
  9 15  4  0
  9 17  1  0
 10 21  4  0
 11 25  4  0
 12 23  4  0
 13 20  4  0
 13 26  4  0
 14 19  4  0
 17 18  4  0
 17 24  4  0
 19 23  4  0
 20 24  4  0
 23 26  1  0
M  END
$$$$

 Created by Python create_sdf_string function

 26 30  0  0  0  0  0  0  0  0999 V2000
   10.0084   -1.8019   23.4945 C   0  0  0  0  0  0  0  0  0  0  0  0
   10.0005   -4.2520   16.5631 C   0  0  0  0  0  0  0  0  0  0  0  0
   10.2759   -4.0036   17.8845 C   0  0  0  0  0  0  0  0  0  0  0  0
    8.5652    1.5478   25.3778 N   0  0  0  0  0  0  0  0  0  0  0  0
    6.8048   -7.5457   17.8752 C   0  0  0  0  0  0  0  0  0  0  0  0
    6.1721   -8.2186   15.9886 N   0  0  0  0  0  0  0  0  0  0  0  0
   11.1764   -2.6600   19.5604 C   0  0  0  0  0  0  0  0  0  0  0  0
    9.5491   -0.6380   24.1912 C   0  0  0  0  0  0  0  0  0  0  0  0
    7.5337   -6.9256   16.9519 C   0  0  0  0  0  0  0  0  0  0  0  0
    9.6782    0.5671   23.5143 C   0  0  0  0  0  0  0  0  0  0  0  0
    8.4532    0.3482   26.0821 C   0  0  0  0  0  0  0  0  0  0  0  0
   10.4239   -1.7677   22.2230 N   0  0  0  0  0  0  0  0  0  0  0  0
    9.9468   -4.5953   20.1709 C   0  0  0  0  0  0  0  0  0  0  0  0
   10.0366   -3.0590   23.9864 N   0  0  0  0  0  0  0  0  0  0  0  0
    7.1191   -7.3636   15.7739 C   0  0  0  0  0  0  0  0  0  0  0  0
    5.9612   -8.3203   17.2732 N   0  0  0  0  0  0  0  0  0  0  0  0
    8.5296   -5.9814   17.1841 C   0  0  0  0  0  0  0  0  0  0  0  0
    9.1527   -5.2118   16.2116 C   0  0  0  0  0  0  0  0  0  0  0  0
   10.3364   -3.8368   22.9255 O   0  0  0  0  0  0  0  0  0  0  0  0
    9.6947   -4.8407   18.8534 C   0  0  0  0  0  0  0  0  0  0  0  0
    9.1596    1.7042   24.1381 C   0  0  0  0  0  0  0  0  0  0  0  0
   11.0456   -2.9774   18.2694 N   0  0  0  0  0  0  0  0  0  0  0  0
   10.4788   -3.0457   21.8593 C   0  0  0  0  0  0  0  0  0  0  0  0
    8.8693   -5.8099   18.4657 N   0  0  0  0  0  0  0  0  0  0  0  0
    8.9892   -0.7926   25.4573 C   0  0  0  0  0  0  0  0  0  0  0  0
   10.5677   -3.4462   20.5323 C   0  0  0  0  0  0  0  0  0  0  0  0
  1  8  1  0
  1 12  4  0
  1 14  4  0
  2  3  4  0
  2 18  4  0
  3 20  4  0
  3 22  4  0
  4 11  4  0
  4 21  4  0
  5  9  4  0
  5 16  4  0
  6 15  4  0
  6 16  4  0
  7 22  4  0
  7 26  4  0
  8 10  4  0
  8 25  4  0
  9 15  4  0
  9 17  1  0
 10 21  4  0
 11 25  4  0
 12 23  4  0
 13 20  4  0
 13 26  4  0
 14 19  4  0
 17 18  4  0
 17 24  4  0
 19 23  4  0
 20 24  4  0
 23 26  1  0
M  END
$$$$

 Created by Python create_sdf_string function

 26 30  0  0  0  0  0  0  0  0999 V2000
   10.0084   -1.8019   23.4945 C   0  0  0  0  0  0  0  0  0  0  0  0
   10.0005   -4.2520   16.5631 C   0  0  0  0  0  0  0  0  0  0  0  0
   10.2759   -4.0036   17.8845 C   0  0  0  0  0  0  0  0  0  0  0  0
    8.5652    1.5478   25.3778 N   0  0  0  0  0  0  0  0  0  0  0  0
    6.8048   -7.5457   17.8752 C   0  0  0  0  0  0  0  0  0  0  0  0
    6.1721   -8.2186   15.9886 N   0  0  0  0  0  0  0  0  0  0  0  0
   11.1764   -2.6600   19.5604 C   0  0  0  0  0  0  0  0  0  0  0  0
    9.5491   -0.6380   24.1912 C   0  0  0  0  0  0  0  0  0  0  0  0
    7.5337   -6.9256   16.9519 C   0  0  0  0  0  0  0  0  0  0  0  0
    9.6782    0.5671   23.5143 C   0  0  0  0  0  0  0  0  0  0  0  0
    8.4532    0.3482   26.0821 C   0  0  0  0  0  0  0  0  0  0  0  0
   10.4239   -1.7677   22.2230 N   0  0  0  0  0  0  0  0  0  0  0  0
    9.9468   -4.5953   20.1709 C   0  0  0  0  0  0  0  0  0  0  0  0
   10.0366   -3.0590   23.9864 N   0  0  0  0  0  0  0  0  0  0  0  0
    7.1191   -7.3636   15.7739 C   0  0  0  0  0  0  0  0  0  0  0  0
    5.9612   -8.3203   17.2732 N   0  0  0  0  0  0  0  0  0  0  0  0
    8.5296   -5.9814   17.1841 C   0  0  0  0  0  0  0  0  0  0  0  0
    9.1527   -5.2118   16.2116 C   0  0  0  0  0  0  0  0  0  0  0  0
   10.3364   -3.8368   22.9255 O   0  0  0  0  0  0  0  0  0  0  0  0
    9.6947   -4.8407   18.8534 C   0  0  0  0  0  0  0  0  0  0  0  0
    9.1596    1.7042   24.1381 C   0  0  0  0  0  0  0  0  0  0  0  0
   11.0456   -2.9774   18.2694 N   0  0  0  0  0  0  0  0  0  0  0  0
   10.4788   -3.0457   21.8593 C   0  0  0  0  0  0  0  0  0  0  0  0
    8.8693   -5.8099   18.4657 N   0  0  0  0  0  0  0  0  0  0  0  0
    8.9892   -0.7926   25.4573 C   0  0  0  0  0  0  0  0  0  0  0  0
   10.5677   -3.4462   20.5323 C   0  0  0  0  0  0  0  0  0  0  0  0
  1  8  1  0
  1 12  4  0
  1 14  4  0
  2  3  4  0
  2 18  4  0
  3 20  4  0
  3 22  4  0
  4 11  4  0
  4 21  4  0
  5  9  4  0
  5 16  4  0
  6 15  4  0
  6 16  4  0
  7 22  4  0
  7 26  4  0
  8 10  4  0
  8 25  4  0
  9 15  4  0
  9 17  1  0
 10 21  4  0
 11 25  4  0
 12 23  4  0
 13 20  4  0
 13 26  4  0
 14 19  4  0
 17 18  4  0
 17 24  4  0
 19 23  4  0
 20 24  4  0
 23 26  1  0
M  END
$$$$

 Created by Python create_sdf_string function

 26 30  0  0  0  0  0  0  0  0999 V2000
   10.0084   -1.8019   23.4945 C   0  0  0  0  0  0  0  0  0  0  0  0
   10.0005   -4.2520   16.5631 C   0  0  0  0  0  0  0  0  0  0  0  0
   10.2759   -4.0036   17.8845 C   0  0  0  0  0  0  0  0  0  0  0  0
    8.5652    1.5478   25.3778 N   0  0  0  0  0  0  0  0  0  0  0  0
    6.8048   -7.5457   17.8752 C   0  0  0  0  0  0  0  0  0  0  0  0
    6.1721   -8.2186   15.9886 N   0  0  0  0  0  0  0  0  0  0  0  0
   11.1764   -2.6600   19.5604 C   0  0  0  0  0  0  0  0  0  0  0  0
    9.5491   -0.6380   24.1912 C   0  0  0  0  0  0  0  0  0  0  0  0
    7.5337   -6.9256   16.9519 C   0  0  0  0  0  0  0  0  0  0  0  0
    9.6782    0.5671   23.5143 C   0  0  0  0  0  0  0  0  0  0  0  0
    8.4532    0.3482   26.0821 C   0  0  0  0  0  0  0  0  0  0  0  0
   10.4239   -1.7677   22.2230 N   0  0  0  0  0  0  0  0  0  0  0  0
    9.9468   -4.5953   20.1709 C   0  0  0  0  0  0  0  0  0  0  0  0
   10.0366   -3.0590   23.9864 N   0  0  0  0  0  0  0  0  0  0  0  0
    7.1191   -7.3636   15.7739 C   0  0  0  0  0  0  0  0  0  0  0  0
    5.9612   -8.3203   17.2732 N   0  0  0  0  0  0  0  0  0  0  0  0
    8.5296   -5.9814   17.1841 C   0  0  0  0  0  0  0  0  0  0  0  0
    9.1527   -5.2118   16.2116 C   0  0  0  0  0  0  0  0  0  0  0  0
   10.3364   -3.8368   22.9255 O   0  0  0  0  0  0  0  0  0  0  0  0
    9.6947   -4.8407   18.8534 C   0  0  0  0  0  0  0  0  0  0  0  0
    9.1596    1.7042   24.1381 C   0  0  0  0  0  0  0  0  0  0  0  0
   11.0456   -2.9774   18.2694 N   0  0  0  0  0  0  0  0  0  0  0  0
   10.4788   -3.0457   21.8593 C   0  0  0  0  0  0  0  0  0  0  0  0
    8.8693   -5.8099   18.4657 N   0  0  0  0  0  0  0  0  0  0  0  0
    8.9892   -0.7926   25.4573 C   0  0  0  0  0  0  0  0  0  0  0  0
   10.5677   -3.4462   20.5323 C   0  0  0  0  0  0  0  0  0  0  0  0
  1  8  1  0
  1 12  4  0
  1 14  4  0
  2  3  4  0
  2 18  4  0
  3 20  4  0
  3 22  4  0
  4 11  4  0
  4 21  4  0
  5  9  4  0
  5 16  4  0
  6 15  4  0
  6 16  4  0
  7 22  4  0
  7 26  4  0
  8 10  4  0
  8 25  4  0
  9 15  4  0
  9 17  1  0
 10 21  4  0
 11 25  4  0
 12 23  4  0
 13 20  4  0
 13 26  4  0
 14 19  4  0
 17 18  4  0
 17 24  4  0
 19 23  4  0
 20 24  4  0
 23 26  1  0
M  END
$$$$

 Created by Python create_sdf_string function

 26 30  0  0  0  0  0  0  0  0999 V2000
   10.0084   -1.8019   23.4945 C   0  0  0  0  0  0  0  0  0  0  0  0
   10.0005   -4.2520   16.5631 C   0  0  0  0  0  0  0  0  0  0  0  0
   10.2759   -4.0036   17.8845 C   0  0  0  0  0  0  0  0  0  0  0  0
    8.5652    1.5478   25.3778 N   0  0  0  0  0  0  0  0  0  0  0  0
    6.8048   -7.5457   17.8752 C   0  0  0  0  0  0  0  0  0  0  0  0
    6.1721   -8.2186   15.9886 N   0  0  0  0  0  0  0  0  0  0  0  0
   11.1764   -2.6600   19.5604 C   0  0  0  0  0  0  0  0  0  0  0  0
    9.5491   -0.6380   24.1912 C   0  0  0  0  0  0  0  0  0  0  0  0
    7.5337   -6.9256   16.9519 C   0  0  0  0  0  0  0  0  0  0  0  0
    9.6782    0.5671   23.5143 C   0  0  0  0  0  0  0  0  0  0  0  0
    8.4532    0.3482   26.0821 C   0  0  0  0  0  0  0  0  0  0  0  0
   10.4239   -1.7677   22.2230 N   0  0  0  0  0  0  0  0  0  0  0  0
    9.9468   -4.5953   20.1709 C   0  0  0  0  0  0  0  0  0  0  0  0
   10.0366   -3.0590   23.9864 N   0  0  0  0  0  0  0  0  0  0  0  0
    7.1191   -7.3636   15.7739 C   0  0  0  0  0  0  0  0  0  0  0  0
    5.9612   -8.3203   17.2732 N   0  0  0  0  0  0  0  0  0  0  0  0
    8.5296   -5.9814   17.1841 C   0  0  0  0  0  0  0  0  0  0  0  0
    9.1527   -5.2118   16.2116 C   0  0  0  0  0  0  0  0  0  0  0  0
   10.3364   -3.8368   22.9255 O   0  0  0  0  0  0  0  0  0  0  0  0
    9.6947   -4.8407   18.8534 C   0  0  0  0  0  0  0  0  0  0  0  0
    9.1596    1.7042   24.1381 C   0  0  0  0  0  0  0  0  0  0  0  0
   11.0456   -2.9774   18.2694 N   0  0  0  0  0  0  0  0  0  0  0  0
   10.4788   -3.0457   21.8593 C   0  0  0  0  0  0  0  0  0  0  0  0
    8.8693   -5.8099   18.4657 N   0  0  0  0  0  0  0  0  0  0  0  0
    8.9892   -0.7926   25.4573 C   0  0  0  0  0  0  0  0  0  0  0  0
   10.5677   -3.4462   20.5323 C   0  0  0  0  0  0  0  0  0  0  0  0
  1  8  1  0
  1 12  4  0
  1 14  4  0
  2  3  4  0
  2 18  4  0
  3 20  4  0
  3 22  4  0
  4 11  4  0
  4 21  4  0
  5  9  4  0
  5 16  4  0
  6 15  4  0
  6 16  4  0
  7 22  4  0
  7 26  4  0
  8 10  4  0
  8 25  4  0
  9 15  4  0
  9 17  1  0
 10 21  4  0
 11 25  4  0
 12 23  4  0
 13 20  4  0
 13 26  4  0
 14 19  4  0
 17 18  4  0
 17 24  4  0
 19 23  4  0
 20 24  4  0
 23 26  1  0
M  END
$$$$

 Created by Python create_sdf_string function

 26 30  0  0  0  0  0  0  0  0999 V2000
   10.0084   -1.8019   23.4945 C   0  0  0  0  0  0  0  0  0  0  0  0
   10.0005   -4.2520   16.5631 C   0  0  0  0  0  0  0  0  0  0  0  0
   10.2759   -4.0036   17.8845 C   0  0  0  0  0  0  0  0  0  0  0  0
    8.5652    1.5478   25.3778 N   0  0  0  0  0  0  0  0  0  0  0  0
    6.8048   -7.5457   17.8752 C   0  0  0  0  0  0  0  0  0  0  0  0
    6.1721   -8.2186   15.9886 N   0  0  0  0  0  0  0  0  0  0  0  0
   11.1764   -2.6600   19.5604 C   0  0  0  0  0  0  0  0  0  0  0  0
    9.5491   -0.6380   24.1912 C   0  0  0  0  0  0  0  0  0  0  0  0
    7.5337   -6.9256   16.9519 C   0  0  0  0  0  0  0  0  0  0  0  0
    9.6782    0.5671   23.5143 C   0  0  0  0  0  0  0  0  0  0  0  0
    8.4532    0.3482   26.0821 C   0  0  0  0  0  0  0  0  0  0  0  0
   10.4239   -1.7677   22.2230 N   0  0  0  0  0  0  0  0  0  0  0  0
    9.9468   -4.5953   20.1709 C   0  0  0  0  0  0  0  0  0  0  0  0
   10.0366   -3.0590   23.9864 N   0  0  0  0  0  0  0  0  0  0  0  0
    7.1191   -7.3636   15.7739 C   0  0  0  0  0  0  0  0  0  0  0  0
    5.9612   -8.3203   17.2732 N   0  0  0  0  0  0  0  0  0  0  0  0
    8.5296   -5.9814   17.1841 C   0  0  0  0  0  0  0  0  0  0  0  0
    9.1527   -5.2118   16.2116 C   0  0  0  0  0  0  0  0  0  0  0  0
   10.3364   -3.8368   22.9255 O   0  0  0  0  0  0  0  0  0  0  0  0
    9.6947   -4.8407   18.8534 C   0  0  0  0  0  0  0  0  0  0  0  0
    9.1596    1.7042   24.1381 C   0  0  0  0  0  0  0  0  0  0  0  0
   11.0456   -2.9774   18.2694 N   0  0  0  0  0  0  0  0  0  0  0  0
   10.4788   -3.0457   21.8593 C   0  0  0  0  0  0  0  0  0  0  0  0
    8.8693   -5.8099   18.4657 N   0  0  0  0  0  0  0  0  0  0  0  0
    8.9892   -0.7926   25.4573 C   0  0  0  0  0  0  0  0  0  0  0  0
   10.5677   -3.4462   20.5323 C   0  0  0  0  0  0  0  0  0  0  0  0
  1  8  1  0
  1 12  4  0
  1 14  4  0
  2  3  4  0
  2 18  4  0
  3 20  4  0
  3 22  4  0
  4 11  4  0
  4 21  4  0
  5  9  4  0
  5 16  4  0
  6 15  4  0
  6 16  4  0
  7 22  4  0
  7 26  4  0
  8 10  4  0
  8 25  4  0
  9 15  4  0
  9 17  1  0
 10 21  4  0
 11 25  4  0
 12 23  4  0
 13 20  4  0
 13 26  4  0
 14 19  4  0
 17 18  4  0
 17 24  4  0
 19 23  4  0
 20 24  4  0
 23 26  1  0
M  END
$$$$

 Created by Python create_sdf_string function

 26 30  0  0  0  0  0  0  0  0999 V2000
   10.0084   -1.8019   23.4945 C   0  0  0  0  0  0  0  0  0  0  0  0
   10.0005   -4.2520   16.5631 C   0  0  0  0  0  0  0  0  0  0  0  0
   10.2759   -4.0036   17.8845 C   0  0  0  0  0  0  0  0  0  0  0  0
    8.5652    1.5478   25.3778 N   0  0  0  0  0  0  0  0  0  0  0  0
    6.8048   -7.5457   17.8752 C   0  0  0  0  0  0  0  0  0  0  0  0
    6.1721   -8.2186   15.9886 N   0  0  0  0  0  0  0  0  0  0  0  0
   11.1764   -2.6600   19.5604 C   0  0  0  0  0  0  0  0  0  0  0  0
    9.5491   -0.6380   24.1912 C   0  0  0  0  0  0  0  0  0  0  0  0
    7.5337   -6.9256   16.9519 C   0  0  0  0  0  0  0  0  0  0  0  0
    9.6782    0.5671   23.5143 C   0  0  0  0  0  0  0  0  0  0  0  0
    8.4532    0.3482   26.0821 C   0  0  0  0  0  0  0  0  0  0  0  0
   10.4239   -1.7677   22.2230 N   0  0  0  0  0  0  0  0  0  0  0  0
    9.9468   -4.5953   20.1709 C   0  0  0  0  0  0  0  0  0  0  0  0
   10.0366   -3.0590   23.9864 N   0  0  0  0  0  0  0  0  0  0  0  0
    7.1191   -7.3636   15.7739 C   0  0  0  0  0  0  0  0  0  0  0  0
    5.9612   -8.3203   17.2732 N   0  0  0  0  0  0  0  0  0  0  0  0
    8.5296   -5.9814   17.1841 C   0  0  0  0  0  0  0  0  0  0  0  0
    9.1527   -5.2118   16.2116 C   0  0  0  0  0  0  0  0  0  0  0  0
   10.3364   -3.8368   22.9255 O   0  0  0  0  0  0  0  0  0  0  0  0
    9.6947   -4.8407   18.8534 C   0  0  0  0  0  0  0  0  0  0  0  0
    9.1596    1.7042   24.1381 C   0  0  0  0  0  0  0  0  0  0  0  0
   11.0456   -2.9774   18.2694 N   0  0  0  0  0  0  0  0  0  0  0  0
   10.4788   -3.0457   21.8593 C   0  0  0  0  0  0  0  0  0  0  0  0
    8.8693   -5.8099   18.4657 N   0  0  0  0  0  0  0  0  0  0  0  0
    8.9892   -0.7926   25.4573 C   0  0  0  0  0  0  0  0  0  0  0  0
   10.5677   -3.4462   20.5323 C   0  0  0  0  0  0  0  0  0  0  0  0
  1  8  1  0
  1 12  4  0
  1 14  4  0
  2  3  4  0
  2 18  4  0
  3 20  4  0
  3 22  4  0
  4 11  4  0
  4 21  4  0
  5  9  4  0
  5 16  4  0
  6 15  4  0
  6 16  4  0
  7 22  4  0
  7 26  4  0
  8 10  4  0
  8 25  4  0
  9 15  4  0
  9 17  1  0
 10 21  4  0
 11 25  4  0
 12 23  4  0
 13 20  4  0
 13 26  4  0
 14 19  4  0
 17 18  4  0
 17 24  4  0
 19 23  4  0
 20 24  4  0
 23 26  1  0
M  END
$$$$

 Created by Python create_sdf_string function

 26 30  0  0  0  0  0  0  0  0999 V2000
   10.0084   -1.8019   23.4945 C   0  0  0  0  0  0  0  0  0  0  0  0
   10.0005   -4.2520   16.5631 C   0  0  0  0  0  0  0  0  0  0  0  0
   10.2759   -4.0036   17.8845 C   0  0  0  0  0  0  0  0  0  0  0  0
    8.5652    1.5478   25.3778 N   0  0  0  0  0  0  0  0  0  0  0  0
    6.8048   -7.5457   17.8752 C   0  0  0  0  0  0  0  0  0  0  0  0
    6.1721   -8.2186   15.9886 N   0  0  0  0  0  0  0  0  0  0  0  0
   11.1764   -2.6600   19.5604 C   0  0  0  0  0  0  0  0  0  0  0  0
    9.5491   -0.6380   24.1912 C   0  0  0  0  0  0  0  0  0  0  0  0
    7.5337   -6.9256   16.9519 C   0  0  0  0  0  0  0  0  0  0  0  0
    9.6782    0.5671   23.5143 C   0  0  0  0  0  0  0  0  0  0  0  0
    8.4532    0.3482   26.0821 C   0  0  0  0  0  0  0  0  0  0  0  0
   10.4239   -1.7677   22.2230 N   0  0  0  0  0  0  0  0  0  0  0  0
    9.9468   -4.5953   20.1709 C   0  0  0  0  0  0  0  0  0  0  0  0
   10.0366   -3.0590   23.9864 N   0  0  0  0  0  0  0  0  0  0  0  0
    7.1191   -7.3636   15.7739 C   0  0  0  0  0  0  0  0  0  0  0  0
    5.9612   -8.3203   17.2732 N   0  0  0  0  0  0  0  0  0  0  0  0
    8.5296   -5.9814   17.1841 C   0  0  0  0  0  0  0  0  0  0  0  0
    9.1527   -5.2118   16.2116 C   0  0  0  0  0  0  0  0  0  0  0  0
   10.3364   -3.8368   22.9255 O   0  0  0  0  0  0  0  0  0  0  0  0
    9.6947   -4.8407   18.8534 C   0  0  0  0  0  0  0  0  0  0  0  0
    9.1596    1.7042   24.1381 C   0  0  0  0  0  0  0  0  0  0  0  0
   11.0456   -2.9774   18.2694 N   0  0  0  0  0  0  0  0  0  0  0  0
   10.4788   -3.0457   21.8593 C   0  0  0  0  0  0  0  0  0  0  0  0
    8.8693   -5.8099   18.4657 N   0  0  0  0  0  0  0  0  0  0  0  0
    8.9892   -0.7926   25.4573 C   0  0  0  0  0  0  0  0  0  0  0  0
   10.5677   -3.4462   20.5323 C   0  0  0  0  0  0  0  0  0  0  0  0
  1  8  1  0
  1 12  4  0
  1 14  4  0
  2  3  4  0
  2 18  4  0
  3 20  4  0
  3 22  4  0
  4 11  4  0
  4 21  4  0
  5  9  4  0
  5 16  4  0
  6 15  4  0
  6 16  4  0
  7 22  4  0
  7 26  4  0
  8 10  4  0
  8 25  4  0
  9 15  4  0
  9 17  1  0
 10 21  4  0
 11 25  4  0
 12 23  4  0
 13 20  4  0
 13 26  4  0
 14 19  4  0
 17 18  4  0
 17 24  4  0
 19 23  4  0
 20 24  4  0
 23 26  1  0
M  END
$$$$

 Created by Python create_sdf_string function

 26 30  0  0  0  0  0  0  0  0999 V2000
   10.0084   -1.8019   23.4945 C   0  0  0  0  0  0  0  0  0  0  0  0
   10.0005   -4.2520   16.5631 C   0  0  0  0  0  0  0  0  0  0  0  0
   10.2759   -4.0036   17.8845 C   0  0  0  0  0  0  0  0  0  0  0  0
    8.5652    1.5478   25.3778 N   0  0  0  0  0  0  0  0  0  0  0  0
    6.8048   -7.5457   17.8752 C   0  0  0  0  0  0  0  0  0  0  0  0
    6.1721   -8.2186   15.9886 N   0  0  0  0  0  0  0  0  0  0  0  0
   11.1764   -2.6600   19.5604 C   0  0  0  0  0  0  0  0  0  0  0  0
    9.5491   -0.6380   24.1912 C   0  0  0  0  0  0  0  0  0  0  0  0
    7.5337   -6.9256   16.9519 C   0  0  0  0  0  0  0  0  0  0  0  0
    9.6782    0.5671   23.5143 C   0  0  0  0  0  0  0  0  0  0  0  0
    8.4532    0.3482   26.0821 C   0  0  0  0  0  0  0  0  0  0  0  0
   10.4239   -1.7677   22.2230 N   0  0  0  0  0  0  0  0  0  0  0  0
    9.9468   -4.5953   20.1709 C   0  0  0  0  0  0  0  0  0  0  0  0
   10.0366   -3.0590   23.9864 N   0  0  0  0  0  0  0  0  0  0  0  0
    7.1191   -7.3636   15.7739 C   0  0  0  0  0  0  0  0  0  0  0  0
    5.9612   -8.3203   17.2732 N   0  0  0  0  0  0  0  0  0  0  0  0
    8.5296   -5.9814   17.1841 C   0  0  0  0  0  0  0  0  0  0  0  0
    9.1527   -5.2118   16.2116 C   0  0  0  0  0  0  0  0  0  0  0  0
   10.3364   -3.8368   22.9255 O   0  0  0  0  0  0  0  0  0  0  0  0
    9.6947   -4.8407   18.8534 C   0  0  0  0  0  0  0  0  0  0  0  0
    9.1596    1.7042   24.1381 C   0  0  0  0  0  0  0  0  0  0  0  0
   11.0456   -2.9774   18.2694 N   0  0  0  0  0  0  0  0  0  0  0  0
   10.4788   -3.0457   21.8593 C   0  0  0  0  0  0  0  0  0  0  0  0
    8.8693   -5.8099   18.4657 N   0  0  0  0  0  0  0  0  0  0  0  0
    8.9892   -0.7926   25.4573 C   0  0  0  0  0  0  0  0  0  0  0  0
   10.5677   -3.4462   20.5323 C   0  0  0  0  0  0  0  0  0  0  0  0
  1  8  1  0
  1 12  4  0
  1 14  4  0
  2  3  4  0
  2 18  4  0
  3 20  4  0
  3 22  4  0
  4 11  4  0
  4 21  4  0
  5  9  4  0
  5 16  4  0
  6 15  4  0
  6 16  4  0
  7 22  4  0
  7 26  4  0
  8 10  4  0
  8 25  4  0
  9 15  4  0
  9 17  1  0
 10 21  4  0
 11 25  4  0
 12 23  4  0
 13 20  4  0
 13 26  4  0
 14 19  4  0
 17 18  4  0
 17 24  4  0
 19 23  4  0
 20 24  4  0
 23 26  1  0
M  END
$$$$

 Created by Python create_sdf_string function

 26 30  0  0  0  0  0  0  0  0999 V2000
   10.0084   -1.8019   23.4945 C   0  0  0  0  0  0  0  0  0  0  0  0
   10.0005   -4.2520   16.5631 C   0  0  0  0  0  0  0  0  0  0  0  0
   10.2759   -4.0036   17.8845 C   0  0  0  0  0  0  0  0  0  0  0  0
    8.5652    1.5478   25.3778 N   0  0  0  0  0  0  0  0  0  0  0  0
    6.8048   -7.5457   17.8752 C   0  0  0  0  0  0  0  0  0  0  0  0
    6.1721   -8.2186   15.9886 N   0  0  0  0  0  0  0  0  0  0  0  0
   11.1764   -2.6600   19.5604 C   0  0  0  0  0  0  0  0  0  0  0  0
    9.5491   -0.6380   24.1912 C   0  0  0  0  0  0  0  0  0  0  0  0
    7.5337   -6.9256   16.9519 C   0  0  0  0  0  0  0  0  0  0  0  0
    9.6782    0.5671   23.5143 C   0  0  0  0  0  0  0  0  0  0  0  0
    8.4532    0.3482   26.0821 C   0  0  0  0  0  0  0  0  0  0  0  0
   10.4239   -1.7677   22.2230 N   0  0  0  0  0  0  0  0  0  0  0  0
    9.9468   -4.5953   20.1709 C   0  0  0  0  0  0  0  0  0  0  0  0
   10.0366   -3.0590   23.9864 N   0  0  0  0  0  0  0  0  0  0  0  0
    7.1191   -7.3636   15.7739 C   0  0  0  0  0  0  0  0  0  0  0  0
    5.9612   -8.3203   17.2732 N   0  0  0  0  0  0  0  0  0  0  0  0
    8.5296   -5.9814   17.1841 C   0  0  0  0  0  0  0  0  0  0  0  0
    9.1527   -5.2118   16.2116 C   0  0  0  0  0  0  0  0  0  0  0  0
   10.3364   -3.8368   22.9255 O   0  0  0  0  0  0  0  0  0  0  0  0
    9.6947   -4.8407   18.8534 C   0  0  0  0  0  0  0  0  0  0  0  0
    9.1596    1.7042   24.1381 C   0  0  0  0  0  0  0  0  0  0  0  0
   11.0456   -2.9774   18.2694 N   0  0  0  0  0  0  0  0  0  0  0  0
   10.4788   -3.0457   21.8593 C   0  0  0  0  0  0  0  0  0  0  0  0
    8.8693   -5.8099   18.4657 N   0  0  0  0  0  0  0  0  0  0  0  0
    8.9892   -0.7926   25.4573 C   0  0  0  0  0  0  0  0  0  0  0  0
   10.5677   -3.4462   20.5323 C   0  0  0  0  0  0  0  0  0  0  0  0
  1  8  1  0
  1 12  4  0
  1 14  4  0
  2  3  4  0
  2 18  4  0
  3 20  4  0
  3 22  4  0
  4 11  4  0
  4 21  4  0
  5  9  4  0
  5 16  4  0
  6 15  4  0
  6 16  4  0
  7 22  4  0
  7 26  4  0
  8 10  4  0
  8 25  4  0
  9 15  4  0
  9 17  1  0
 10 21  4  0
 11 25  4  0
 12 23  4  0
 13 20  4  0
 13 26  4  0
 14 19  4  0
 17 18  4  0
 17 24  4  0
 19 23  4  0
 20 24  4  0
 23 26  1  0
M  END
$$$$

 Created by Python create_sdf_string function

 26 30  0  0  0  0  0  0  0  0999 V2000
   10.0084   -1.8019   23.4945 C   0  0  0  0  0  0  0  0  0  0  0  0
   10.0005   -4.2520   16.5631 C   0  0  0  0  0  0  0  0  0  0  0  0
   10.2759   -4.0036   17.8845 C   0  0  0  0  0  0  0  0  0  0  0  0
    8.5652    1.5478   25.3778 N   0  0  0  0  0  0  0  0  0  0  0  0
    6.8048   -7.5457   17.8752 C   0  0  0  0  0  0  0  0  0  0  0  0
    6.1721   -8.2186   15.9886 N   0  0  0  0  0  0  0  0  0  0  0  0
   11.1764   -2.6600   19.5604 C   0  0  0  0  0  0  0  0  0  0  0  0
    9.5491   -0.6380   24.1912 C   0  0  0  0  0  0  0  0  0  0  0  0
    7.5337   -6.9256   16.9519 C   0  0  0  0  0  0  0  0  0  0  0  0
    9.6782    0.5671   23.5143 C   0  0  0  0  0  0  0  0  0  0  0  0
    8.4532    0.3482   26.0821 C   0  0  0  0  0  0  0  0  0  0  0  0
   10.4239   -1.7677   22.2230 N   0  0  0  0  0  0  0  0  0  0  0  0
    9.9468   -4.5953   20.1709 C   0  0  0  0  0  0  0  0  0  0  0  0
   10.0366   -3.0590   23.9864 N   0  0  0  0  0  0  0  0  0  0  0  0
    7.1191   -7.3636   15.7739 C   0  0  0  0  0  0  0  0  0  0  0  0
    5.9612   -8.3203   17.2732 N   0  0  0  0  0  0  0  0  0  0  0  0
    8.5296   -5.9814   17.1841 C   0  0  0  0  0  0  0  0  0  0  0  0
    9.1527   -5.2118   16.2116 C   0  0  0  0  0  0  0  0  0  0  0  0
   10.3364   -3.8368   22.9255 O   0  0  0  0  0  0  0  0  0  0  0  0
    9.6947   -4.8407   18.8534 C   0  0  0  0  0  0  0  0  0  0  0  0
    9.1596    1.7042   24.1381 C   0  0  0  0  0  0  0  0  0  0  0  0
   11.0456   -2.9774   18.2694 N   0  0  0  0  0  0  0  0  0  0  0  0
   10.4788   -3.0457   21.8593 C   0  0  0  0  0  0  0  0  0  0  0  0
    8.8693   -5.8099   18.4657 N   0  0  0  0  0  0  0  0  0  0  0  0
    8.9892   -0.7926   25.4573 C   0  0  0  0  0  0  0  0  0  0  0  0
   10.5677   -3.4462   20.5323 C   0  0  0  0  0  0  0  0  0  0  0  0
  1  8  1  0
  1 12  4  0
  1 14  4  0
  2  3  4  0
  2 18  4  0
  3 20  4  0
  3 22  4  0
  4 11  4  0
  4 21  4  0
  5  9  4  0
  5 16  4  0
  6 15  4  0
  6 16  4  0
  7 22  4  0
  7 26  4  0
  8 10  4  0
  8 25  4  0
  9 15  4  0
  9 17  1  0
 10 21  4  0
 11 25  4  0
 12 23  4  0
 13 20  4  0
 13 26  4  0
 14 19  4  0
 17 18  4  0
 17 24  4  0
 19 23  4  0
 20 24  4  0
 23 26  1  0
M  END
$$$$

 Created by Python create_sdf_string function

 26 30  0  0  0  0  0  0  0  0999 V2000
   10.0084   -1.8019   23.4945 C   0  0  0  0  0  0  0  0  0  0  0  0
   10.0005   -4.2520   16.5631 C   0  0  0  0  0  0  0  0  0  0  0  0
   10.2759   -4.0036   17.8845 C   0  0  0  0  0  0  0  0  0  0  0  0
    8.5652    1.5478   25.3778 N   0  0  0  0  0  0  0  0  0  0  0  0
    6.8048   -7.5457   17.8752 C   0  0  0  0  0  0  0  0  0  0  0  0
    6.1721   -8.2186   15.9886 N   0  0  0  0  0  0  0  0  0  0  0  0
   11.1764   -2.6600   19.5604 C   0  0  0  0  0  0  0  0  0  0  0  0
    9.5491   -0.6380   24.1912 C   0  0  0  0  0  0  0  0  0  0  0  0
    7.5337   -6.9256   16.9519 C   0  0  0  0  0  0  0  0  0  0  0  0
    9.6782    0.5671   23.5143 C   0  0  0  0  0  0  0  0  0  0  0  0
    8.4532    0.3482   26.0821 C   0  0  0  0  0  0  0  0  0  0  0  0
   10.4239   -1.7677   22.2230 N   0  0  0  0  0  0  0  0  0  0  0  0
    9.9468   -4.5953   20.1709 C   0  0  0  0  0  0  0  0  0  0  0  0
   10.0366   -3.0590   23.9864 N   0  0  0  0  0  0  0  0  0  0  0  0
    7.1191   -7.3636   15.7739 C   0  0  0  0  0  0  0  0  0  0  0  0
    5.9612   -8.3203   17.2732 N   0  0  0  0  0  0  0  0  0  0  0  0
    8.5296   -5.9814   17.1841 C   0  0  0  0  0  0  0  0  0  0  0  0
    9.1527   -5.2118   16.2116 C   0  0  0  0  0  0  0  0  0  0  0  0
   10.3364   -3.8368   22.9255 O   0  0  0  0  0  0  0  0  0  0  0  0
    9.6947   -4.8407   18.8534 C   0  0  0  0  0  0  0  0  0  0  0  0
    9.1596    1.7042   24.1381 C   0  0  0  0  0  0  0  0  0  0  0  0
   11.0456   -2.9774   18.2694 N   0  0  0  0  0  0  0  0  0  0  0  0
   10.4788   -3.0457   21.8593 C   0  0  0  0  0  0  0  0  0  0  0  0
    8.8693   -5.8099   18.4657 N   0  0  0  0  0  0  0  0  0  0  0  0
    8.9892   -0.7926   25.4573 C   0  0  0  0  0  0  0  0  0  0  0  0
   10.5677   -3.4462   20.5323 C   0  0  0  0  0  0  0  0  0  0  0  0
  1  8  1  0
  1 12  4  0
  1 14  4  0
  2  3  4  0
  2 18  4  0
  3 20  4  0
  3 22  4  0
  4 11  4  0
  4 21  4  0
  5  9  4  0
  5 16  4  0
  6 15  4  0
  6 16  4  0
  7 22  4  0
  7 26  4  0
  8 10  4  0
  8 25  4  0
  9 15  4  0
  9 17  1  0
 10 21  4  0
 11 25  4  0
 12 23  4  0
 13 20  4  0
 13 26  4  0
 14 19  4  0
 17 18  4  0
 17 24  4  0
 19 23  4  0
 20 24  4  0
 23 26  1  0
M  END
$$$$

 Created by Python create_sdf_string function

 26 30  0  0  0  0  0  0  0  0999 V2000
   10.0084   -1.8019   23.4945 C   0  0  0  0  0  0  0  0  0  0  0  0
   10.0005   -4.2520   16.5631 C   0  0  0  0  0  0  0  0  0  0  0  0
   10.2759   -4.0036   17.8845 C   0  0  0  0  0  0  0  0  0  0  0  0
    8.5652    1.5478   25.3778 N   0  0  0  0  0  0  0  0  0  0  0  0
    6.8048   -7.5457   17.8752 C   0  0  0  0  0  0  0  0  0  0  0  0
    6.1721   -8.2186   15.9886 N   0  0  0  0  0  0  0  0  0  0  0  0
   11.1764   -2.6600   19.5604 C   0  0  0  0  0  0  0  0  0  0  0  0
    9.5491   -0.6380   24.1912 C   0  0  0  0  0  0  0  0  0  0  0  0
    7.5337   -6.9256   16.9519 C   0  0  0  0  0  0  0  0  0  0  0  0
    9.6782    0.5671   23.5143 C   0  0  0  0  0  0  0  0  0  0  0  0
    8.4532    0.3482   26.0821 C   0  0  0  0  0  0  0  0  0  0  0  0
   10.4239   -1.7677   22.2230 N   0  0  0  0  0  0  0  0  0  0  0  0
    9.9468   -4.5953   20.1709 C   0  0  0  0  0  0  0  0  0  0  0  0
   10.0366   -3.0590   23.9864 N   0  0  0  0  0  0  0  0  0  0  0  0
    7.1191   -7.3636   15.7739 C   0  0  0  0  0  0  0  0  0  0  0  0
    5.9612   -8.3203   17.2732 N   0  0  0  0  0  0  0  0  0  0  0  0
    8.5296   -5.9814   17.1841 C   0  0  0  0  0  0  0  0  0  0  0  0
    9.1527   -5.2118   16.2116 C   0  0  0  0  0  0  0  0  0  0  0  0
   10.3364   -3.8368   22.9255 O   0  0  0  0  0  0  0  0  0  0  0  0
    9.6947   -4.8407   18.8534 C   0  0  0  0  0  0  0  0  0  0  0  0
    9.1596    1.7042   24.1381 C   0  0  0  0  0  0  0  0  0  0  0  0
   11.0456   -2.9774   18.2694 N   0  0  0  0  0  0  0  0  0  0  0  0
   10.4788   -3.0457   21.8593 C   0  0  0  0  0  0  0  0  0  0  0  0
    8.8693   -5.8099   18.4657 N   0  0  0  0  0  0  0  0  0  0  0  0
    8.9892   -0.7926   25.4573 C   0  0  0  0  0  0  0  0  0  0  0  0
   10.5677   -3.4462   20.5323 C   0  0  0  0  0  0  0  0  0  0  0  0
  1  8  1  0
  1 12  4  0
  1 14  4  0
  2  3  4  0
  2 18  4  0
  3 20  4  0
  3 22  4  0
  4 11  4  0
  4 21  4  0
  5  9  4  0
  5 16  4  0
  6 15  4  0
  6 16  4  0
  7 22  4  0
  7 26  4  0
  8 10  4  0
  8 25  4  0
  9 15  4  0
  9 17  1  0
 10 21  4  0
 11 25  4  0
 12 23  4  0
 13 20  4  0
 13 26  4  0
 14 19  4  0
 17 18  4  0
 17 24  4  0
 19 23  4  0
 20 24  4  0
 23 26  1  0
M  END
$$$$

 Created by Python create_sdf_string function

 26 30  0  0  0  0  0  0  0  0999 V2000
   10.0084   -1.8019   23.4945 C   0  0  0  0  0  0  0  0  0  0  0  0
   10.0005   -4.2520   16.5631 C   0  0  0  0  0  0  0  0  0  0  0  0
   10.2759   -4.0036   17.8845 C   0  0  0  0  0  0  0  0  0  0  0  0
    8.5652    1.5478   25.3778 N   0  0  0  0  0  0  0  0  0  0  0  0
    6.8048   -7.5457   17.8752 C   0  0  0  0  0  0  0  0  0  0  0  0
    6.1721   -8.2186   15.9886 N   0  0  0  0  0  0  0  0  0  0  0  0
   11.1764   -2.6600   19.5604 C   0  0  0  0  0  0  0  0  0  0  0  0
    9.5491   -0.6380   24.1912 C   0  0  0  0  0  0  0  0  0  0  0  0
    7.5337   -6.9256   16.9519 C   0  0  0  0  0  0  0  0  0  0  0  0
    9.6782    0.5671   23.5143 C   0  0  0  0  0  0  0  0  0  0  0  0
    8.4532    0.3482   26.0821 C   0  0  0  0  0  0  0  0  0  0  0  0
   10.4239   -1.7677   22.2230 N   0  0  0  0  0  0  0  0  0  0  0  0
    9.9468   -4.5953   20.1709 C   0  0  0  0  0  0  0  0  0  0  0  0
   10.0366   -3.0590   23.9864 N   0  0  0  0  0  0  0  0  0  0  0  0
    7.1191   -7.3636   15.7739 C   0  0  0  0  0  0  0  0  0  0  0  0
    5.9612   -8.3203   17.2732 N   0  0  0  0  0  0  0  0  0  0  0  0
    8.5296   -5.9814   17.1841 C   0  0  0  0  0  0  0  0  0  0  0  0
    9.1527   -5.2118   16.2116 C   0  0  0  0  0  0  0  0  0  0  0  0
   10.3364   -3.8368   22.9255 O   0  0  0  0  0  0  0  0  0  0  0  0
    9.6947   -4.8407   18.8534 C   0  0  0  0  0  0  0  0  0  0  0  0
    9.1596    1.7042   24.1381 C   0  0  0  0  0  0  0  0  0  0  0  0
   11.0456   -2.9774   18.2694 N   0  0  0  0  0  0  0  0  0  0  0  0
   10.4788   -3.0457   21.8593 C   0  0  0  0  0  0  0  0  0  0  0  0
    8.8693   -5.8099   18.4657 N   0  0  0  0  0  0  0  0  0  0  0  0
    8.9892   -0.7926   25.4573 C   0  0  0  0  0  0  0  0  0  0  0  0
   10.5677   -3.4462   20.5323 C   0  0  0  0  0  0  0  0  0  0  0  0
  1  8  1  0
  1 12  4  0
  1 14  4  0
  2  3  4  0
  2 18  4  0
  3 20  4  0
  3 22  4  0
  4 11  4  0
  4 21  4  0
  5  9  4  0
  5 16  4  0
  6 15  4  0
  6 16  4  0
  7 22  4  0
  7 26  4  0
  8 10  4  0
  8 25  4  0
  9 15  4  0
  9 17  1  0
 10 21  4  0
 11 25  4  0
 12 23  4  0
 13 20  4  0
 13 26  4  0
 14 19  4  0
 17 18  4  0
 17 24  4  0
 19 23  4  0
 20 24  4  0
 23 26  1  0
M  END
$$$$

 Created by Python create_sdf_string function

 26 30  0  0  0  0  0  0  0  0999 V2000
   10.0084   -1.8019   23.4945 C   0  0  0  0  0  0  0  0  0  0  0  0
   10.0005   -4.2520   16.5631 C   0  0  0  0  0  0  0  0  0  0  0  0
   10.2759   -4.0036   17.8845 C   0  0  0  0  0  0  0  0  0  0  0  0
    8.5652    1.5478   25.3778 N   0  0  0  0  0  0  0  0  0  0  0  0
    6.8048   -7.5457   17.8752 C   0  0  0  0  0  0  0  0  0  0  0  0
    6.1721   -8.2186   15.9886 N   0  0  0  0  0  0  0  0  0  0  0  0
   11.1764   -2.6600   19.5604 C   0  0  0  0  0  0  0  0  0  0  0  0
    9.5491   -0.6380   24.1912 C   0  0  0  0  0  0  0  0  0  0  0  0
    7.5337   -6.9256   16.9519 C   0  0  0  0  0  0  0  0  0  0  0  0
    9.6782    0.5671   23.5143 C   0  0  0  0  0  0  0  0  0  0  0  0
    8.4532    0.3482   26.0821 C   0  0  0  0  0  0  0  0  0  0  0  0
   10.4239   -1.7677   22.2230 N   0  0  0  0  0  0  0  0  0  0  0  0
    9.9468   -4.5953   20.1709 C   0  0  0  0  0  0  0  0  0  0  0  0
   10.0366   -3.0590   23.9864 N   0  0  0  0  0  0  0  0  0  0  0  0
    7.1191   -7.3636   15.7739 C   0  0  0  0  0  0  0  0  0  0  0  0
    5.9612   -8.3203   17.2732 N   0  0  0  0  0  0  0  0  0  0  0  0
    8.5296   -5.9814   17.1841 C   0  0  0  0  0  0  0  0  0  0  0  0
    9.1527   -5.2118   16.2116 C   0  0  0  0  0  0  0  0  0  0  0  0
   10.3364   -3.8368   22.9255 O   0  0  0  0  0  0  0  0  0  0  0  0
    9.6947   -4.8407   18.8534 C   0  0  0  0  0  0  0  0  0  0  0  0
    9.1596    1.7042   24.1381 C   0  0  0  0  0  0  0  0  0  0  0  0
   11.0456   -2.9774   18.2694 N   0  0  0  0  0  0  0  0  0  0  0  0
   10.4788   -3.0457   21.8593 C   0  0  0  0  0  0  0  0  0  0  0  0
    8.8693   -5.8099   18.4657 N   0  0  0  0  0  0  0  0  0  0  0  0
    8.9892   -0.7926   25.4573 C   0  0  0  0  0  0  0  0  0  0  0  0
   10.5677   -3.4462   20.5323 C   0  0  0  0  0  0  0  0  0  0  0  0
  1  8  1  0
  1 12  4  0
  1 14  4  0
  2  3  4  0
  2 18  4  0
  3 20  4  0
  3 22  4  0
  4 11  4  0
  4 21  4  0
  5  9  4  0
  5 16  4  0
  6 15  4  0
  6 16  4  0
  7 22  4  0
  7 26  4  0
  8 10  4  0
  8 25  4  0
  9 15  4  0
  9 17  1  0
 10 21  4  0
 11 25  4  0
 12 23  4  0
 13 20  4  0
 13 26  4  0
 14 19  4  0
 17 18  4  0
 17 24  4  0
 19 23  4  0
 20 24  4  0
 23 26  1  0
M  END
$$$$

 Created by Python create_sdf_string function

 26 30  0  0  0  0  0  0  0  0999 V2000
   10.0084   -1.8019   23.4945 C   0  0  0  0  0  0  0  0  0  0  0  0
   10.0005   -4.2520   16.5631 C   0  0  0  0  0  0  0  0  0  0  0  0
   10.2759   -4.0036   17.8845 C   0  0  0  0  0  0  0  0  0  0  0  0
    8.5652    1.5478   25.3778 N   0  0  0  0  0  0  0  0  0  0  0  0
    6.8048   -7.5457   17.8752 C   0  0  0  0  0  0  0  0  0  0  0  0
    6.1721   -8.2186   15.9886 N   0  0  0  0  0  0  0  0  0  0  0  0
   11.1764   -2.6600   19.5604 C   0  0  0  0  0  0  0  0  0  0  0  0
    9.5491   -0.6380   24.1912 C   0  0  0  0  0  0  0  0  0  0  0  0
    7.5337   -6.9256   16.9519 C   0  0  0  0  0  0  0  0  0  0  0  0
    9.6782    0.5671   23.5143 C   0  0  0  0  0  0  0  0  0  0  0  0
    8.4532    0.3482   26.0821 C   0  0  0  0  0  0  0  0  0  0  0  0
   10.4239   -1.7677   22.2230 N   0  0  0  0  0  0  0  0  0  0  0  0
    9.9468   -4.5953   20.1709 C   0  0  0  0  0  0  0  0  0  0  0  0
   10.0366   -3.0590   23.9864 N   0  0  0  0  0  0  0  0  0  0  0  0
    7.1191   -7.3636   15.7739 C   0  0  0  0  0  0  0  0  0  0  0  0
    5.9612   -8.3203   17.2732 N   0  0  0  0  0  0  0  0  0  0  0  0
    8.5296   -5.9814   17.1841 C   0  0  0  0  0  0  0  0  0  0  0  0
    9.1527   -5.2118   16.2116 C   0  0  0  0  0  0  0  0  0  0  0  0
   10.3364   -3.8368   22.9255 O   0  0  0  0  0  0  0  0  0  0  0  0
    9.6947   -4.8407   18.8534 C   0  0  0  0  0  0  0  0  0  0  0  0
    9.1596    1.7042   24.1381 C   0  0  0  0  0  0  0  0  0  0  0  0
   11.0456   -2.9774   18.2694 N   0  0  0  0  0  0  0  0  0  0  0  0
   10.4788   -3.0457   21.8593 C   0  0  0  0  0  0  0  0  0  0  0  0
    8.8693   -5.8099   18.4657 N   0  0  0  0  0  0  0  0  0  0  0  0
    8.9892   -0.7926   25.4573 C   0  0  0  0  0  0  0  0  0  0  0  0
   10.5677   -3.4462   20.5323 C   0  0  0  0  0  0  0  0  0  0  0  0
  1  8  1  0
  1 12  4  0
  1 14  4  0
  2  3  4  0
  2 18  4  0
  3 20  4  0
  3 22  4  0
  4 11  4  0
  4 21  4  0
  5  9  4  0
  5 16  4  0
  6 15  4  0
  6 16  4  0
  7 22  4  0
  7 26  4  0
  8 10  4  0
  8 25  4  0
  9 15  4  0
  9 17  1  0
 10 21  4  0
 11 25  4  0
 12 23  4  0
 13 20  4  0
 13 26  4  0
 14 19  4  0
 17 18  4  0
 17 24  4  0
 19 23  4  0
 20 24  4  0
 23 26  1  0
M  END
$$$$

 Created by Python create_sdf_string function

 26 30  0  0  0  0  0  0  0  0999 V2000
   10.0084   -1.8019   23.4945 C   0  0  0  0  0  0  0  0  0  0  0  0
   10.0005   -4.2520   16.5631 C   0  0  0  0  0  0  0  0  0  0  0  0
   10.2759   -4.0036   17.8845 C   0  0  0  0  0  0  0  0  0  0  0  0
    8.5652    1.5478   25.3778 N   0  0  0  0  0  0  0  0  0  0  0  0
    6.8048   -7.5457   17.8752 C   0  0  0  0  0  0  0  0  0  0  0  0
    6.1721   -8.2186   15.9886 N   0  0  0  0  0  0  0  0  0  0  0  0
   11.1764   -2.6600   19.5604 C   0  0  0  0  0  0  0  0  0  0  0  0
    9.5491   -0.6380   24.1912 C   0  0  0  0  0  0  0  0  0  0  0  0
    7.5337   -6.9256   16.9519 C   0  0  0  0  0  0  0  0  0  0  0  0
    9.6782    0.5671   23.5143 C   0  0  0  0  0  0  0  0  0  0  0  0
    8.4532    0.3482   26.0821 C   0  0  0  0  0  0  0  0  0  0  0  0
   10.4239   -1.7677   22.2230 N   0  0  0  0  0  0  0  0  0  0  0  0
    9.9468   -4.5953   20.1709 C   0  0  0  0  0  0  0  0  0  0  0  0
   10.0366   -3.0590   23.9864 N   0  0  0  0  0  0  0  0  0  0  0  0
    7.1191   -7.3636   15.7739 C   0  0  0  0  0  0  0  0  0  0  0  0
    5.9612   -8.3203   17.2732 N   0  0  0  0  0  0  0  0  0  0  0  0
    8.5296   -5.9814   17.1841 C   0  0  0  0  0  0  0  0  0  0  0  0
    9.1527   -5.2118   16.2116 C   0  0  0  0  0  0  0  0  0  0  0  0
   10.3364   -3.8368   22.9255 O   0  0  0  0  0  0  0  0  0  0  0  0
    9.6947   -4.8407   18.8534 C   0  0  0  0  0  0  0  0  0  0  0  0
    9.1596    1.7042   24.1381 C   0  0  0  0  0  0  0  0  0  0  0  0
   11.0456   -2.9774   18.2694 N   0  0  0  0  0  0  0  0  0  0  0  0
   10.4788   -3.0457   21.8593 C   0  0  0  0  0  0  0  0  0  0  0  0
    8.8693   -5.8099   18.4657 N   0  0  0  0  0  0  0  0  0  0  0  0
    8.9892   -0.7926   25.4573 C   0  0  0  0  0  0  0  0  0  0  0  0
   10.5677   -3.4462   20.5323 C   0  0  0  0  0  0  0  0  0  0  0  0
  1  8  1  0
  1 12  4  0
  1 14  4  0
  2  3  4  0
  2 18  4  0
  3 20  4  0
  3 22  4  0
  4 11  4  0
  4 21  4  0
  5  9  4  0
  5 16  4  0
  6 15  4  0
  6 16  4  0
  7 22  4  0
  7 26  4  0
  8 10  4  0
  8 25  4  0
  9 15  4  0
  9 17  1  0
 10 21  4  0
 11 25  4  0
 12 23  4  0
 13 20  4  0
 13 26  4  0
 14 19  4  0
 17 18  4  0
 17 24  4  0
 19 23  4  0
 20 24  4  0
 23 26  1  0
M  END
$$$$

 Created by Python create_sdf_string function

 26 30  0  0  0  0  0  0  0  0999 V2000
   10.0084   -1.8019   23.4945 C   0  0  0  0  0  0  0  0  0  0  0  0
   10.0005   -4.2520   16.5631 C   0  0  0  0  0  0  0  0  0  0  0  0
   10.2759   -4.0036   17.8845 C   0  0  0  0  0  0  0  0  0  0  0  0
    8.5652    1.5478   25.3778 N   0  0  0  0  0  0  0  0  0  0  0  0
    6.8048   -7.5457   17.8752 C   0  0  0  0  0  0  0  0  0  0  0  0
    6.1721   -8.2186   15.9886 N   0  0  0  0  0  0  0  0  0  0  0  0
   11.1764   -2.6600   19.5604 C   0  0  0  0  0  0  0  0  0  0  0  0
    9.5491   -0.6380   24.1912 C   0  0  0  0  0  0  0  0  0  0  0  0
    7.5337   -6.9256   16.9519 C   0  0  0  0  0  0  0  0  0  0  0  0
    9.6782    0.5671   23.5143 C   0  0  0  0  0  0  0  0  0  0  0  0
    8.4532    0.3482   26.0821 C   0  0  0  0  0  0  0  0  0  0  0  0
   10.4239   -1.7677   22.2230 N   0  0  0  0  0  0  0  0  0  0  0  0
    9.9468   -4.5953   20.1709 C   0  0  0  0  0  0  0  0  0  0  0  0
   10.0366   -3.0590   23.9864 N   0  0  0  0  0  0  0  0  0  0  0  0
    7.1191   -7.3636   15.7739 C   0  0  0  0  0  0  0  0  0  0  0  0
    5.9612   -8.3203   17.2732 N   0  0  0  0  0  0  0  0  0  0  0  0
    8.5296   -5.9814   17.1841 C   0  0  0  0  0  0  0  0  0  0  0  0
    9.1527   -5.2118   16.2116 C   0  0  0  0  0  0  0  0  0  0  0  0
   10.3364   -3.8368   22.9255 O   0  0  0  0  0  0  0  0  0  0  0  0
    9.6947   -4.8407   18.8534 C   0  0  0  0  0  0  0  0  0  0  0  0
    9.1596    1.7042   24.1381 C   0  0  0  0  0  0  0  0  0  0  0  0
   11.0456   -2.9774   18.2694 N   0  0  0  0  0  0  0  0  0  0  0  0
   10.4788   -3.0457   21.8593 C   0  0  0  0  0  0  0  0  0  0  0  0
    8.8693   -5.8099   18.4657 N   0  0  0  0  0  0  0  0  0  0  0  0
    8.9892   -0.7926   25.4573 C   0  0  0  0  0  0  0  0  0  0  0  0
   10.5677   -3.4462   20.5323 C   0  0  0  0  0  0  0  0  0  0  0  0
  1  8  1  0
  1 12  4  0
  1 14  4  0
  2  3  4  0
  2 18  4  0
  3 20  4  0
  3 22  4  0
  4 11  4  0
  4 21  4  0
  5  9  4  0
  5 16  4  0
  6 15  4  0
  6 16  4  0
  7 22  4  0
  7 26  4  0
  8 10  4  0
  8 25  4  0
  9 15  4  0
  9 17  1  0
 10 21  4  0
 11 25  4  0
 12 23  4  0
 13 20  4  0
 13 26  4  0
 14 19  4  0
 17 18  4  0
 17 24  4  0
 19 23  4  0
 20 24  4  0
 23 26  1  0
M  END
$$$$

 Created by Python create_sdf_string function

 26 30  0  0  0  0  0  0  0  0999 V2000
   10.0084   -1.8019   23.4945 C   0  0  0  0  0  0  0  0  0  0  0  0
   10.0005   -4.2520   16.5631 C   0  0  0  0  0  0  0  0  0  0  0  0
   10.2759   -4.0036   17.8845 C   0  0  0  0  0  0  0  0  0  0  0  0
    8.5652    1.5478   25.3778 N   0  0  0  0  0  0  0  0  0  0  0  0
    6.8048   -7.5457   17.8752 C   0  0  0  0  0  0  0  0  0  0  0  0
    6.1721   -8.2186   15.9886 N   0  0  0  0  0  0  0  0  0  0  0  0
   11.1764   -2.6600   19.5604 C   0  0  0  0  0  0  0  0  0  0  0  0
    9.5491   -0.6380   24.1912 C   0  0  0  0  0  0  0  0  0  0  0  0
    7.5337   -6.9256   16.9519 C   0  0  0  0  0  0  0  0  0  0  0  0
    9.6782    0.5671   23.5143 C   0  0  0  0  0  0  0  0  0  0  0  0
    8.4532    0.3482   26.0821 C   0  0  0  0  0  0  0  0  0  0  0  0
   10.4239   -1.7677   22.2230 N   0  0  0  0  0  0  0  0  0  0  0  0
    9.9468   -4.5953   20.1709 C   0  0  0  0  0  0  0  0  0  0  0  0
   10.0366   -3.0590   23.9864 N   0  0  0  0  0  0  0  0  0  0  0  0
    7.1191   -7.3636   15.7739 C   0  0  0  0  0  0  0  0  0  0  0  0
    5.9612   -8.3203   17.2732 N   0  0  0  0  0  0  0  0  0  0  0  0
    8.5296   -5.9814   17.1841 C   0  0  0  0  0  0  0  0  0  0  0  0
    9.1527   -5.2118   16.2116 C   0  0  0  0  0  0  0  0  0  0  0  0
   10.3364   -3.8368   22.9255 O   0  0  0  0  0  0  0  0  0  0  0  0
    9.6947   -4.8407   18.8534 C   0  0  0  0  0  0  0  0  0  0  0  0
    9.1596    1.7042   24.1381 C   0  0  0  0  0  0  0  0  0  0  0  0
   11.0456   -2.9774   18.2694 N   0  0  0  0  0  0  0  0  0  0  0  0
   10.4788   -3.0457   21.8593 C   0  0  0  0  0  0  0  0  0  0  0  0
    8.8693   -5.8099   18.4657 N   0  0  0  0  0  0  0  0  0  0  0  0
    8.9892   -0.7926   25.4573 C   0  0  0  0  0  0  0  0  0  0  0  0
   10.5677   -3.4462   20.5323 C   0  0  0  0  0  0  0  0  0  0  0  0
  1  8  1  0
  1 12  4  0
  1 14  4  0
  2  3  4  0
  2 18  4  0
  3 20  4  0
  3 22  4  0
  4 11  4  0
  4 21  4  0
  5  9  4  0
  5 16  4  0
  6 15  4  0
  6 16  4  0
  7 22  4  0
  7 26  4  0
  8 10  4  0
  8 25  4  0
  9 15  4  0
  9 17  1  0
 10 21  4  0
 11 25  4  0
 12 23  4  0
 13 20  4  0
 13 26  4  0
 14 19  4  0
 17 18  4  0
 17 24  4  0
 19 23  4  0
 20 24  4  0
 23 26  1  0
M  END
$$$$

 Created by Python create_sdf_string function

 26 30  0  0  0  0  0  0  0  0999 V2000
   10.0084   -1.8019   23.4945 C   0  0  0  0  0  0  0  0  0  0  0  0
   10.0005   -4.2520   16.5631 C   0  0  0  0  0  0  0  0  0  0  0  0
   10.2759   -4.0036   17.8845 C   0  0  0  0  0  0  0  0  0  0  0  0
    8.5652    1.5478   25.3778 N   0  0  0  0  0  0  0  0  0  0  0  0
    6.8048   -7.5457   17.8752 C   0  0  0  0  0  0  0  0  0  0  0  0
    6.1721   -8.2186   15.9886 N   0  0  0  0  0  0  0  0  0  0  0  0
   11.1764   -2.6600   19.5604 C   0  0  0  0  0  0  0  0  0  0  0  0
    9.5491   -0.6380   24.1912 C   0  0  0  0  0  0  0  0  0  0  0  0
    7.5337   -6.9256   16.9519 C   0  0  0  0  0  0  0  0  0  0  0  0
    9.6782    0.5671   23.5143 C   0  0  0  0  0  0  0  0  0  0  0  0
    8.4532    0.3482   26.0821 C   0  0  0  0  0  0  0  0  0  0  0  0
   10.4239   -1.7677   22.2230 N   0  0  0  0  0  0  0  0  0  0  0  0
    9.9468   -4.5953   20.1709 C   0  0  0  0  0  0  0  0  0  0  0  0
   10.0366   -3.0590   23.9864 N   0  0  0  0  0  0  0  0  0  0  0  0
    7.1191   -7.3636   15.7739 C   0  0  0  0  0  0  0  0  0  0  0  0
    5.9612   -8.3203   17.2732 N   0  0  0  0  0  0  0  0  0  0  0  0
    8.5296   -5.9814   17.1841 C   0  0  0  0  0  0  0  0  0  0  0  0
    9.1527   -5.2118   16.2116 C   0  0  0  0  0  0  0  0  0  0  0  0
   10.3364   -3.8368   22.9255 O   0  0  0  0  0  0  0  0  0  0  0  0
    9.6947   -4.8407   18.8534 C   0  0  0  0  0  0  0  0  0  0  0  0
    9.1596    1.7042   24.1381 C   0  0  0  0  0  0  0  0  0  0  0  0
   11.0456   -2.9774   18.2694 N   0  0  0  0  0  0  0  0  0  0  0  0
   10.4788   -3.0457   21.8593 C   0  0  0  0  0  0  0  0  0  0  0  0
    8.8693   -5.8099   18.4657 N   0  0  0  0  0  0  0  0  0  0  0  0
    8.9892   -0.7926   25.4573 C   0  0  0  0  0  0  0  0  0  0  0  0
   10.5677   -3.4462   20.5323 C   0  0  0  0  0  0  0  0  0  0  0  0
  1  8  1  0
  1 12  4  0
  1 14  4  0
  2  3  4  0
  2 18  4  0
  3 20  4  0
  3 22  4  0
  4 11  4  0
  4 21  4  0
  5  9  4  0
  5 16  4  0
  6 15  4  0
  6 16  4  0
  7 22  4  0
  7 26  4  0
  8 10  4  0
  8 25  4  0
  9 15  4  0
  9 17  1  0
 10 21  4  0
 11 25  4  0
 12 23  4  0
 13 20  4  0
 13 26  4  0
 14 19  4  0
 17 18  4  0
 17 24  4  0
 19 23  4  0
 20 24  4  0
 23 26  1  0
M  END
$$$$

 Created by Python create_sdf_string function

 26 30  0  0  0  0  0  0  0  0999 V2000
   10.0084   -1.8019   23.4945 C   0  0  0  0  0  0  0  0  0  0  0  0
   10.0005   -4.2520   16.5631 C   0  0  0  0  0  0  0  0  0  0  0  0
   10.2759   -4.0036   17.8845 C   0  0  0  0  0  0  0  0  0  0  0  0
    8.5652    1.5478   25.3778 N   0  0  0  0  0  0  0  0  0  0  0  0
    6.8048   -7.5457   17.8752 C   0  0  0  0  0  0  0  0  0  0  0  0
    6.1721   -8.2186   15.9886 N   0  0  0  0  0  0  0  0  0  0  0  0
   11.1764   -2.6600   19.5604 C   0  0  0  0  0  0  0  0  0  0  0  0
    9.5491   -0.6380   24.1912 C   0  0  0  0  0  0  0  0  0  0  0  0
    7.5337   -6.9256   16.9519 C   0  0  0  0  0  0  0  0  0  0  0  0
    9.6782    0.5671   23.5143 C   0  0  0  0  0  0  0  0  0  0  0  0
    8.4532    0.3482   26.0821 C   0  0  0  0  0  0  0  0  0  0  0  0
   10.4239   -1.7677   22.2230 N   0  0  0  0  0  0  0  0  0  0  0  0
    9.9468   -4.5953   20.1709 C   0  0  0  0  0  0  0  0  0  0  0  0
   10.0366   -3.0590   23.9864 N   0  0  0  0  0  0  0  0  0  0  0  0
    7.1191   -7.3636   15.7739 C   0  0  0  0  0  0  0  0  0  0  0  0
    5.9612   -8.3203   17.2732 N   0  0  0  0  0  0  0  0  0  0  0  0
    8.5296   -5.9814   17.1841 C   0  0  0  0  0  0  0  0  0  0  0  0
    9.1527   -5.2118   16.2116 C   0  0  0  0  0  0  0  0  0  0  0  0
   10.3364   -3.8368   22.9255 O   0  0  0  0  0  0  0  0  0  0  0  0
    9.6947   -4.8407   18.8534 C   0  0  0  0  0  0  0  0  0  0  0  0
    9.1596    1.7042   24.1381 C   0  0  0  0  0  0  0  0  0  0  0  0
   11.0456   -2.9774   18.2694 N   0  0  0  0  0  0  0  0  0  0  0  0
   10.4788   -3.0457   21.8593 C   0  0  0  0  0  0  0  0  0  0  0  0
    8.8693   -5.8099   18.4657 N   0  0  0  0  0  0  0  0  0  0  0  0
    8.9892   -0.7926   25.4573 C   0  0  0  0  0  0  0  0  0  0  0  0
   10.5677   -3.4462   20.5323 C   0  0  0  0  0  0  0  0  0  0  0  0
  1  8  1  0
  1 12  4  0
  1 14  4  0
  2  3  4  0
  2 18  4  0
  3 20  4  0
  3 22  4  0
  4 11  4  0
  4 21  4  0
  5  9  4  0
  5 16  4  0
  6 15  4  0
  6 16  4  0
  7 22  4  0
  7 26  4  0
  8 10  4  0
  8 25  4  0
  9 15  4  0
  9 17  1  0
 10 21  4  0
 11 25  4  0
 12 23  4  0
 13 20  4  0
 13 26  4  0
 14 19  4  0
 17 18  4  0
 17 24  4  0
 19 23  4  0
 20 24  4  0
 23 26  1  0
M  END
$$$$

 Created by Python create_sdf_string function

 26 30  0  0  0  0  0  0  0  0999 V2000
   10.0084   -1.8019   23.4945 C   0  0  0  0  0  0  0  0  0  0  0  0
   10.0005   -4.2520   16.5631 C   0  0  0  0  0  0  0  0  0  0  0  0
   10.2759   -4.0036   17.8845 C   0  0  0  0  0  0  0  0  0  0  0  0
    8.5652    1.5478   25.3778 N   0  0  0  0  0  0  0  0  0  0  0  0
    6.8048   -7.5457   17.8752 C   0  0  0  0  0  0  0  0  0  0  0  0
    6.1721   -8.2186   15.9886 N   0  0  0  0  0  0  0  0  0  0  0  0
   11.1764   -2.6600   19.5604 C   0  0  0  0  0  0  0  0  0  0  0  0
    9.5491   -0.6380   24.1912 C   0  0  0  0  0  0  0  0  0  0  0  0
    7.5337   -6.9256   16.9519 C   0  0  0  0  0  0  0  0  0  0  0  0
    9.6782    0.5671   23.5143 C   0  0  0  0  0  0  0  0  0  0  0  0
    8.4532    0.3482   26.0821 C   0  0  0  0  0  0  0  0  0  0  0  0
   10.4239   -1.7677   22.2230 N   0  0  0  0  0  0  0  0  0  0  0  0
    9.9468   -4.5953   20.1709 C   0  0  0  0  0  0  0  0  0  0  0  0
   10.0366   -3.0590   23.9864 N   0  0  0  0  0  0  0  0  0  0  0  0
    7.1191   -7.3636   15.7739 C   0  0  0  0  0  0  0  0  0  0  0  0
    5.9612   -8.3203   17.2732 N   0  0  0  0  0  0  0  0  0  0  0  0
    8.5296   -5.9814   17.1841 C   0  0  0  0  0  0  0  0  0  0  0  0
    9.1527   -5.2118   16.2116 C   0  0  0  0  0  0  0  0  0  0  0  0
   10.3364   -3.8368   22.9255 O   0  0  0  0  0  0  0  0  0  0  0  0
    9.6947   -4.8407   18.8534 C   0  0  0  0  0  0  0  0  0  0  0  0
    9.1596    1.7042   24.1381 C   0  0  0  0  0  0  0  0  0  0  0  0
   11.0456   -2.9774   18.2694 N   0  0  0  0  0  0  0  0  0  0  0  0
   10.4788   -3.0457   21.8593 C   0  0  0  0  0  0  0  0  0  0  0  0
    8.8693   -5.8099   18.4657 N   0  0  0  0  0  0  0  0  0  0  0  0
    8.9892   -0.7926   25.4573 C   0  0  0  0  0  0  0  0  0  0  0  0
   10.5677   -3.4462   20.5323 C   0  0  0  0  0  0  0  0  0  0  0  0
  1  8  1  0
  1 12  4  0
  1 14  4  0
  2  3  4  0
  2 18  4  0
  3 20  4  0
  3 22  4  0
  4 11  4  0
  4 21  4  0
  5  9  4  0
  5 16  4  0
  6 15  4  0
  6 16  4  0
  7 22  4  0
  7 26  4  0
  8 10  4  0
  8 25  4  0
  9 15  4  0
  9 17  1  0
 10 21  4  0
 11 25  4  0
 12 23  4  0
 13 20  4  0
 13 26  4  0
 14 19  4  0
 17 18  4  0
 17 24  4  0
 19 23  4  0
 20 24  4  0
 23 26  1  0
M  END
$$$$

 Created by Python create_sdf_string function

 26 30  0  0  0  0  0  0  0  0999 V2000
   10.0084   -1.8019   23.4945 C   0  0  0  0  0  0  0  0  0  0  0  0
   10.0005   -4.2520   16.5631 C   0  0  0  0  0  0  0  0  0  0  0  0
   10.2759   -4.0036   17.8845 C   0  0  0  0  0  0  0  0  0  0  0  0
    8.5652    1.5478   25.3778 N   0  0  0  0  0  0  0  0  0  0  0  0
    6.8048   -7.5457   17.8752 C   0  0  0  0  0  0  0  0  0  0  0  0
    6.1721   -8.2186   15.9886 N   0  0  0  0  0  0  0  0  0  0  0  0
   11.1764   -2.6600   19.5604 C   0  0  0  0  0  0  0  0  0  0  0  0
    9.5491   -0.6380   24.1912 C   0  0  0  0  0  0  0  0  0  0  0  0
    7.5337   -6.9256   16.9519 C   0  0  0  0  0  0  0  0  0  0  0  0
    9.6782    0.5671   23.5143 C   0  0  0  0  0  0  0  0  0  0  0  0
    8.4532    0.3482   26.0821 C   0  0  0  0  0  0  0  0  0  0  0  0
   10.4239   -1.7677   22.2230 N   0  0  0  0  0  0  0  0  0  0  0  0
    9.9468   -4.5953   20.1709 C   0  0  0  0  0  0  0  0  0  0  0  0
   10.0366   -3.0590   23.9864 N   0  0  0  0  0  0  0  0  0  0  0  0
    7.1191   -7.3636   15.7739 C   0  0  0  0  0  0  0  0  0  0  0  0
    5.9612   -8.3203   17.2732 N   0  0  0  0  0  0  0  0  0  0  0  0
    8.5296   -5.9814   17.1841 C   0  0  0  0  0  0  0  0  0  0  0  0
    9.1527   -5.2118   16.2116 C   0  0  0  0  0  0  0  0  0  0  0  0
   10.3364   -3.8368   22.9255 O   0  0  0  0  0  0  0  0  0  0  0  0
    9.6947   -4.8407   18.8534 C   0  0  0  0  0  0  0  0  0  0  0  0
    9.1596    1.7042   24.1381 C   0  0  0  0  0  0  0  0  0  0  0  0
   11.0456   -2.9774   18.2694 N   0  0  0  0  0  0  0  0  0  0  0  0
   10.4788   -3.0457   21.8593 C   0  0  0  0  0  0  0  0  0  0  0  0
    8.8693   -5.8099   18.4657 N   0  0  0  0  0  0  0  0  0  0  0  0
    8.9892   -0.7926   25.4573 C   0  0  0  0  0  0  0  0  0  0  0  0
   10.5677   -3.4462   20.5323 C   0  0  0  0  0  0  0  0  0  0  0  0
  1  8  1  0
  1 12  4  0
  1 14  4  0
  2  3  4  0
  2 18  4  0
  3 20  4  0
  3 22  4  0
  4 11  4  0
  4 21  4  0
  5  9  4  0
  5 16  4  0
  6 15  4  0
  6 16  4  0
  7 22  4  0
  7 26  4  0
  8 10  4  0
  8 25  4  0
  9 15  4  0
  9 17  1  0
 10 21  4  0
 11 25  4  0
 12 23  4  0
 13 20  4  0
 13 26  4  0
 14 19  4  0
 17 18  4  0
 17 24  4  0
 19 23  4  0
 20 24  4  0
 23 26  1  0
M  END
$$$$

 Created by Python create_sdf_string function

 26 30  0  0  0  0  0  0  0  0999 V2000
   10.0084   -1.8019   23.4945 C   0  0  0  0  0  0  0  0  0  0  0  0
   10.0005   -4.2520   16.5631 C   0  0  0  0  0  0  0  0  0  0  0  0
   10.2759   -4.0036   17.8845 C   0  0  0  0  0  0  0  0  0  0  0  0
    8.5652    1.5478   25.3778 N   0  0  0  0  0  0  0  0  0  0  0  0
    6.8048   -7.5457   17.8752 C   0  0  0  0  0  0  0  0  0  0  0  0
    6.1721   -8.2186   15.9886 N   0  0  0  0  0  0  0  0  0  0  0  0
   11.1764   -2.6600   19.5604 C   0  0  0  0  0  0  0  0  0  0  0  0
    9.5491   -0.6380   24.1912 C   0  0  0  0  0  0  0  0  0  0  0  0
    7.5337   -6.9256   16.9519 C   0  0  0  0  0  0  0  0  0  0  0  0
    9.6782    0.5671   23.5143 C   0  0  0  0  0  0  0  0  0  0  0  0
    8.4532    0.3482   26.0821 C   0  0  0  0  0  0  0  0  0  0  0  0
   10.4239   -1.7677   22.2230 N   0  0  0  0  0  0  0  0  0  0  0  0
    9.9468   -4.5953   20.1709 C   0  0  0  0  0  0  0  0  0  0  0  0
   10.0366   -3.0590   23.9864 N   0  0  0  0  0  0  0  0  0  0  0  0
    7.1191   -7.3636   15.7739 C   0  0  0  0  0  0  0  0  0  0  0  0
    5.9612   -8.3203   17.2732 N   0  0  0  0  0  0  0  0  0  0  0  0
    8.5296   -5.9814   17.1841 C   0  0  0  0  0  0  0  0  0  0  0  0
    9.1527   -5.2118   16.2116 C   0  0  0  0  0  0  0  0  0  0  0  0
   10.3364   -3.8368   22.9255 O   0  0  0  0  0  0  0  0  0  0  0  0
    9.6947   -4.8407   18.8534 C   0  0  0  0  0  0  0  0  0  0  0  0
    9.1596    1.7042   24.1381 C   0  0  0  0  0  0  0  0  0  0  0  0
   11.0456   -2.9774   18.2694 N   0  0  0  0  0  0  0  0  0  0  0  0
   10.4788   -3.0457   21.8593 C   0  0  0  0  0  0  0  0  0  0  0  0
    8.8693   -5.8099   18.4657 N   0  0  0  0  0  0  0  0  0  0  0  0
    8.9892   -0.7926   25.4573 C   0  0  0  0  0  0  0  0  0  0  0  0
   10.5677   -3.4462   20.5323 C   0  0  0  0  0  0  0  0  0  0  0  0
  1  8  1  0
  1 12  4  0
  1 14  4  0
  2  3  4  0
  2 18  4  0
  3 20  4  0
  3 22  4  0
  4 11  4  0
  4 21  4  0
  5  9  4  0
  5 16  4  0
  6 15  4  0
  6 16  4  0
  7 22  4  0
  7 26  4  0
  8 10  4  0
  8 25  4  0
  9 15  4  0
  9 17  1  0
 10 21  4  0
 11 25  4  0
 12 23  4  0
 13 20  4  0
 13 26  4  0
 14 19  4  0
 17 18  4  0
 17 24  4  0
 19 23  4  0
 20 24  4  0
 23 26  1  0
M  END
$$$$

 Created by Python create_sdf_string function

 26 30  0  0  0  0  0  0  0  0999 V2000
   10.0084   -1.8019   23.4945 C   0  0  0  0  0  0  0  0  0  0  0  0
   10.0005   -4.2520   16.5631 C   0  0  0  0  0  0  0  0  0  0  0  0
   10.2759   -4.0036   17.8845 C   0  0  0  0  0  0  0  0  0  0  0  0
    8.5652    1.5478   25.3778 N   0  0  0  0  0  0  0  0  0  0  0  0
    6.8048   -7.5457   17.8752 C   0  0  0  0  0  0  0  0  0  0  0  0
    6.1721   -8.2186   15.9886 N   0  0  0  0  0  0  0  0  0  0  0  0
   11.1764   -2.6600   19.5604 C   0  0  0  0  0  0  0  0  0  0  0  0
    9.5491   -0.6380   24.1912 C   0  0  0  0  0  0  0  0  0  0  0  0
    7.5337   -6.9256   16.9519 C   0  0  0  0  0  0  0  0  0  0  0  0
    9.6782    0.5671   23.5143 C   0  0  0  0  0  0  0  0  0  0  0  0
    8.4532    0.3482   26.0821 C   0  0  0  0  0  0  0  0  0  0  0  0
   10.4239   -1.7677   22.2230 N   0  0  0  0  0  0  0  0  0  0  0  0
    9.9468   -4.5953   20.1709 C   0  0  0  0  0  0  0  0  0  0  0  0
   10.0366   -3.0590   23.9864 N   0  0  0  0  0  0  0  0  0  0  0  0
    7.1191   -7.3636   15.7739 C   0  0  0  0  0  0  0  0  0  0  0  0
    5.9612   -8.3203   17.2732 N   0  0  0  0  0  0  0  0  0  0  0  0
    8.5296   -5.9814   17.1841 C   0  0  0  0  0  0  0  0  0  0  0  0
    9.1527   -5.2118   16.2116 C   0  0  0  0  0  0  0  0  0  0  0  0
   10.3364   -3.8368   22.9255 O   0  0  0  0  0  0  0  0  0  0  0  0
    9.6947   -4.8407   18.8534 C   0  0  0  0  0  0  0  0  0  0  0  0
    9.1596    1.7042   24.1381 C   0  0  0  0  0  0  0  0  0  0  0  0
   11.0456   -2.9774   18.2694 N   0  0  0  0  0  0  0  0  0  0  0  0
   10.4788   -3.0457   21.8593 C   0  0  0  0  0  0  0  0  0  0  0  0
    8.8693   -5.8099   18.4657 N   0  0  0  0  0  0  0  0  0  0  0  0
    8.9892   -0.7926   25.4573 C   0  0  0  0  0  0  0  0  0  0  0  0
   10.5677   -3.4462   20.5323 C   0  0  0  0  0  0  0  0  0  0  0  0
  1  8  1  0
  1 12  4  0
  1 14  4  0
  2  3  4  0
  2 18  4  0
  3 20  4  0
  3 22  4  0
  4 11  4  0
  4 21  4  0
  5  9  4  0
  5 16  4  0
  6 15  4  0
  6 16  4  0
  7 22  4  0
  7 26  4  0
  8 10  4  0
  8 25  4  0
  9 15  4  0
  9 17  1  0
 10 21  4  0
 11 25  4  0
 12 23  4  0
 13 20  4  0
 13 26  4  0
 14 19  4  0
 17 18  4  0
 17 24  4  0
 19 23  4  0
 20 24  4  0
 23 26  1  0
M  END
$$$$

 Created by Python create_sdf_string function

 26 30  0  0  0  0  0  0  0  0999 V2000
   10.0084   -1.8019   23.4945 C   0  0  0  0  0  0  0  0  0  0  0  0
   10.0005   -4.2520   16.5631 C   0  0  0  0  0  0  0  0  0  0  0  0
   10.2759   -4.0036   17.8845 C   0  0  0  0  0  0  0  0  0  0  0  0
    8.5652    1.5478   25.3778 N   0  0  0  0  0  0  0  0  0  0  0  0
    6.8048   -7.5457   17.8752 C   0  0  0  0  0  0  0  0  0  0  0  0
    6.1721   -8.2186   15.9886 N   0  0  0  0  0  0  0  0  0  0  0  0
   11.1764   -2.6600   19.5604 C   0  0  0  0  0  0  0  0  0  0  0  0
    9.5491   -0.6380   24.1912 C   0  0  0  0  0  0  0  0  0  0  0  0
    7.5337   -6.9256   16.9519 C   0  0  0  0  0  0  0  0  0  0  0  0
    9.6782    0.5671   23.5143 C   0  0  0  0  0  0  0  0  0  0  0  0
    8.4532    0.3482   26.0821 C   0  0  0  0  0  0  0  0  0  0  0  0
   10.4239   -1.7677   22.2230 N   0  0  0  0  0  0  0  0  0  0  0  0
    9.9468   -4.5953   20.1709 C   0  0  0  0  0  0  0  0  0  0  0  0
   10.0366   -3.0590   23.9864 N   0  0  0  0  0  0  0  0  0  0  0  0
    7.1191   -7.3636   15.7739 C   0  0  0  0  0  0  0  0  0  0  0  0
    5.9612   -8.3203   17.2732 N   0  0  0  0  0  0  0  0  0  0  0  0
    8.5296   -5.9814   17.1841 C   0  0  0  0  0  0  0  0  0  0  0  0
    9.1527   -5.2118   16.2116 C   0  0  0  0  0  0  0  0  0  0  0  0
   10.3364   -3.8368   22.9255 O   0  0  0  0  0  0  0  0  0  0  0  0
    9.6947   -4.8407   18.8534 C   0  0  0  0  0  0  0  0  0  0  0  0
    9.1596    1.7042   24.1381 C   0  0  0  0  0  0  0  0  0  0  0  0
   11.0456   -2.9774   18.2694 N   0  0  0  0  0  0  0  0  0  0  0  0
   10.4788   -3.0457   21.8593 C   0  0  0  0  0  0  0  0  0  0  0  0
    8.8693   -5.8099   18.4657 N   0  0  0  0  0  0  0  0  0  0  0  0
    8.9892   -0.7926   25.4573 C   0  0  0  0  0  0  0  0  0  0  0  0
   10.5677   -3.4462   20.5323 C   0  0  0  0  0  0  0  0  0  0  0  0
  1  8  1  0
  1 12  4  0
  1 14  4  0
  2  3  4  0
  2 18  4  0
  3 20  4  0
  3 22  4  0
  4 11  4  0
  4 21  4  0
  5  9  4  0
  5 16  4  0
  6 15  4  0
  6 16  4  0
  7 22  4  0
  7 26  4  0
  8 10  4  0
  8 25  4  0
  9 15  4  0
  9 17  1  0
 10 21  4  0
 11 25  4  0
 12 23  4  0
 13 20  4  0
 13 26  4  0
 14 19  4  0
 17 18  4  0
 17 24  4  0
 19 23  4  0
 20 24  4  0
 23 26  1  0
M  END
$$$$

 Created by Python create_sdf_string function

 26 30  0  0  0  0  0  0  0  0999 V2000
   10.0084   -1.8019   23.4945 C   0  0  0  0  0  0  0  0  0  0  0  0
   10.0005   -4.2520   16.5631 C   0  0  0  0  0  0  0  0  0  0  0  0
   10.2759   -4.0036   17.8845 C   0  0  0  0  0  0  0  0  0  0  0  0
    8.5652    1.5478   25.3778 N   0  0  0  0  0  0  0  0  0  0  0  0
    6.8048   -7.5457   17.8752 C   0  0  0  0  0  0  0  0  0  0  0  0
    6.1721   -8.2186   15.9886 N   0  0  0  0  0  0  0  0  0  0  0  0
   11.1764   -2.6600   19.5604 C   0  0  0  0  0  0  0  0  0  0  0  0
    9.5491   -0.6380   24.1912 C   0  0  0  0  0  0  0  0  0  0  0  0
    7.5337   -6.9256   16.9519 C   0  0  0  0  0  0  0  0  0  0  0  0
    9.6782    0.5671   23.5143 C   0  0  0  0  0  0  0  0  0  0  0  0
    8.4532    0.3482   26.0821 C   0  0  0  0  0  0  0  0  0  0  0  0
   10.4239   -1.7677   22.2230 N   0  0  0  0  0  0  0  0  0  0  0  0
    9.9468   -4.5953   20.1709 C   0  0  0  0  0  0  0  0  0  0  0  0
   10.0366   -3.0590   23.9864 N   0  0  0  0  0  0  0  0  0  0  0  0
    7.1191   -7.3636   15.7739 C   0  0  0  0  0  0  0  0  0  0  0  0
    5.9612   -8.3203   17.2732 N   0  0  0  0  0  0  0  0  0  0  0  0
    8.5296   -5.9814   17.1841 C   0  0  0  0  0  0  0  0  0  0  0  0
    9.1527   -5.2118   16.2116 C   0  0  0  0  0  0  0  0  0  0  0  0
   10.3364   -3.8368   22.9255 O   0  0  0  0  0  0  0  0  0  0  0  0
    9.6947   -4.8407   18.8534 C   0  0  0  0  0  0  0  0  0  0  0  0
    9.1596    1.7042   24.1381 C   0  0  0  0  0  0  0  0  0  0  0  0
   11.0456   -2.9774   18.2694 N   0  0  0  0  0  0  0  0  0  0  0  0
   10.4788   -3.0457   21.8593 C   0  0  0  0  0  0  0  0  0  0  0  0
    8.8693   -5.8099   18.4657 N   0  0  0  0  0  0  0  0  0  0  0  0
    8.9892   -0.7926   25.4573 C   0  0  0  0  0  0  0  0  0  0  0  0
   10.5677   -3.4462   20.5323 C   0  0  0  0  0  0  0  0  0  0  0  0
  1  8  1  0
  1 12  4  0
  1 14  4  0
  2  3  4  0
  2 18  4  0
  3 20  4  0
  3 22  4  0
  4 11  4  0
  4 21  4  0
  5  9  4  0
  5 16  4  0
  6 15  4  0
  6 16  4  0
  7 22  4  0
  7 26  4  0
  8 10  4  0
  8 25  4  0
  9 15  4  0
  9 17  1  0
 10 21  4  0
 11 25  4  0
 12 23  4  0
 13 20  4  0
 13 26  4  0
 14 19  4  0
 17 18  4  0
 17 24  4  0
 19 23  4  0
 20 24  4  0
 23 26  1  0
M  END
$$$$

 Created by Python create_sdf_string function

 26 30  0  0  0  0  0  0  0  0999 V2000
   10.0084   -1.8019   23.4945 C   0  0  0  0  0  0  0  0  0  0  0  0
   10.0005   -4.2520   16.5631 C   0  0  0  0  0  0  0  0  0  0  0  0
   10.2759   -4.0036   17.8845 C   0  0  0  0  0  0  0  0  0  0  0  0
    8.5652    1.5478   25.3778 N   0  0  0  0  0  0  0  0  0  0  0  0
    6.8048   -7.5457   17.8752 C   0  0  0  0  0  0  0  0  0  0  0  0
    6.1721   -8.2186   15.9886 N   0  0  0  0  0  0  0  0  0  0  0  0
   11.1764   -2.6600   19.5604 C   0  0  0  0  0  0  0  0  0  0  0  0
    9.5491   -0.6380   24.1912 C   0  0  0  0  0  0  0  0  0  0  0  0
    7.5337   -6.9256   16.9519 C   0  0  0  0  0  0  0  0  0  0  0  0
    9.6782    0.5671   23.5143 C   0  0  0  0  0  0  0  0  0  0  0  0
    8.4532    0.3482   26.0821 C   0  0  0  0  0  0  0  0  0  0  0  0
   10.4239   -1.7677   22.2230 N   0  0  0  0  0  0  0  0  0  0  0  0
    9.9468   -4.5953   20.1709 C   0  0  0  0  0  0  0  0  0  0  0  0
   10.0366   -3.0590   23.9864 N   0  0  0  0  0  0  0  0  0  0  0  0
    7.1191   -7.3636   15.7739 C   0  0  0  0  0  0  0  0  0  0  0  0
    5.9612   -8.3203   17.2732 N   0  0  0  0  0  0  0  0  0  0  0  0
    8.5296   -5.9814   17.1841 C   0  0  0  0  0  0  0  0  0  0  0  0
    9.1527   -5.2118   16.2116 C   0  0  0  0  0  0  0  0  0  0  0  0
   10.3364   -3.8368   22.9255 O   0  0  0  0  0  0  0  0  0  0  0  0
    9.6947   -4.8407   18.8534 C   0  0  0  0  0  0  0  0  0  0  0  0
    9.1596    1.7042   24.1381 C   0  0  0  0  0  0  0  0  0  0  0  0
   11.0456   -2.9774   18.2694 N   0  0  0  0  0  0  0  0  0  0  0  0
   10.4788   -3.0457   21.8593 C   0  0  0  0  0  0  0  0  0  0  0  0
    8.8693   -5.8099   18.4657 N   0  0  0  0  0  0  0  0  0  0  0  0
    8.9892   -0.7926   25.4573 C   0  0  0  0  0  0  0  0  0  0  0  0
   10.5677   -3.4462   20.5323 C   0  0  0  0  0  0  0  0  0  0  0  0
  1  8  1  0
  1 12  4  0
  1 14  4  0
  2  3  4  0
  2 18  4  0
  3 20  4  0
  3 22  4  0
  4 11  4  0
  4 21  4  0
  5  9  4  0
  5 16  4  0
  6 15  4  0
  6 16  4  0
  7 22  4  0
  7 26  4  0
  8 10  4  0
  8 25  4  0
  9 15  4  0
  9 17  1  0
 10 21  4  0
 11 25  4  0
 12 23  4  0
 13 20  4  0
 13 26  4  0
 14 19  4  0
 17 18  4  0
 17 24  4  0
 19 23  4  0
 20 24  4  0
 23 26  1  0
M  END
$$$$

 Created by Python create_sdf_string function

 26 30  0  0  0  0  0  0  0  0999 V2000
   10.0084   -1.8019   23.4945 C   0  0  0  0  0  0  0  0  0  0  0  0
   10.0005   -4.2520   16.5631 C   0  0  0  0  0  0  0  0  0  0  0  0
   10.2759   -4.0036   17.8845 C   0  0  0  0  0  0  0  0  0  0  0  0
    8.5652    1.5478   25.3778 N   0  0  0  0  0  0  0  0  0  0  0  0
    6.8048   -7.5457   17.8752 C   0  0  0  0  0  0  0  0  0  0  0  0
    6.1721   -8.2186   15.9886 N   0  0  0  0  0  0  0  0  0  0  0  0
   11.1764   -2.6600   19.5604 C   0  0  0  0  0  0  0  0  0  0  0  0
    9.5491   -0.6380   24.1912 C   0  0  0  0  0  0  0  0  0  0  0  0
    7.5337   -6.9256   16.9519 C   0  0  0  0  0  0  0  0  0  0  0  0
    9.6782    0.5671   23.5143 C   0  0  0  0  0  0  0  0  0  0  0  0
    8.4532    0.3482   26.0821 C   0  0  0  0  0  0  0  0  0  0  0  0
   10.4239   -1.7677   22.2230 N   0  0  0  0  0  0  0  0  0  0  0  0
    9.9468   -4.5953   20.1709 C   0  0  0  0  0  0  0  0  0  0  0  0
   10.0366   -3.0590   23.9864 N   0  0  0  0  0  0  0  0  0  0  0  0
    7.1191   -7.3636   15.7739 C   0  0  0  0  0  0  0  0  0  0  0  0
    5.9612   -8.3203   17.2732 N   0  0  0  0  0  0  0  0  0  0  0  0
    8.5296   -5.9814   17.1841 C   0  0  0  0  0  0  0  0  0  0  0  0
    9.1527   -5.2118   16.2116 C   0  0  0  0  0  0  0  0  0  0  0  0
   10.3364   -3.8368   22.9255 O   0  0  0  0  0  0  0  0  0  0  0  0
    9.6947   -4.8407   18.8534 C   0  0  0  0  0  0  0  0  0  0  0  0
    9.1596    1.7042   24.1381 C   0  0  0  0  0  0  0  0  0  0  0  0
   11.0456   -2.9774   18.2694 N   0  0  0  0  0  0  0  0  0  0  0  0
   10.4788   -3.0457   21.8593 C   0  0  0  0  0  0  0  0  0  0  0  0
    8.8693   -5.8099   18.4657 N   0  0  0  0  0  0  0  0  0  0  0  0
    8.9892   -0.7926   25.4573 C   0  0  0  0  0  0  0  0  0  0  0  0
   10.5677   -3.4462   20.5323 C   0  0  0  0  0  0  0  0  0  0  0  0
  1  8  1  0
  1 12  4  0
  1 14  4  0
  2  3  4  0
  2 18  4  0
  3 20  4  0
  3 22  4  0
  4 11  4  0
  4 21  4  0
  5  9  4  0
  5 16  4  0
  6 15  4  0
  6 16  4  0
  7 22  4  0
  7 26  4  0
  8 10  4  0
  8 25  4  0
  9 15  4  0
  9 17  1  0
 10 21  4  0
 11 25  4  0
 12 23  4  0
 13 20  4  0
 13 26  4  0
 14 19  4  0
 17 18  4  0
 17 24  4  0
 19 23  4  0
 20 24  4  0
 23 26  1  0
M  END
$$$$

 Created by Python create_sdf_string function

 26 30  0  0  0  0  0  0  0  0999 V2000
   10.0084   -1.8019   23.4945 C   0  0  0  0  0  0  0  0  0  0  0  0
   10.0005   -4.2520   16.5631 C   0  0  0  0  0  0  0  0  0  0  0  0
   10.2759   -4.0036   17.8845 C   0  0  0  0  0  0  0  0  0  0  0  0
    8.5652    1.5478   25.3778 N   0  0  0  0  0  0  0  0  0  0  0  0
    6.8048   -7.5457   17.8752 C   0  0  0  0  0  0  0  0  0  0  0  0
    6.1721   -8.2186   15.9886 N   0  0  0  0  0  0  0  0  0  0  0  0
   11.1764   -2.6600   19.5604 C   0  0  0  0  0  0  0  0  0  0  0  0
    9.5491   -0.6380   24.1912 C   0  0  0  0  0  0  0  0  0  0  0  0
    7.5337   -6.9256   16.9519 C   0  0  0  0  0  0  0  0  0  0  0  0
    9.6782    0.5671   23.5143 C   0  0  0  0  0  0  0  0  0  0  0  0
    8.4532    0.3482   26.0821 C   0  0  0  0  0  0  0  0  0  0  0  0
   10.4239   -1.7677   22.2230 N   0  0  0  0  0  0  0  0  0  0  0  0
    9.9468   -4.5953   20.1709 C   0  0  0  0  0  0  0  0  0  0  0  0
   10.0366   -3.0590   23.9864 N   0  0  0  0  0  0  0  0  0  0  0  0
    7.1191   -7.3636   15.7739 C   0  0  0  0  0  0  0  0  0  0  0  0
    5.9612   -8.3203   17.2732 N   0  0  0  0  0  0  0  0  0  0  0  0
    8.5296   -5.9814   17.1841 C   0  0  0  0  0  0  0  0  0  0  0  0
    9.1527   -5.2118   16.2116 C   0  0  0  0  0  0  0  0  0  0  0  0
   10.3364   -3.8368   22.9255 O   0  0  0  0  0  0  0  0  0  0  0  0
    9.6947   -4.8407   18.8534 C   0  0  0  0  0  0  0  0  0  0  0  0
    9.1596    1.7042   24.1381 C   0  0  0  0  0  0  0  0  0  0  0  0
   11.0456   -2.9774   18.2694 N   0  0  0  0  0  0  0  0  0  0  0  0
   10.4788   -3.0457   21.8593 C   0  0  0  0  0  0  0  0  0  0  0  0
    8.8693   -5.8099   18.4657 N   0  0  0  0  0  0  0  0  0  0  0  0
    8.9892   -0.7926   25.4573 C   0  0  0  0  0  0  0  0  0  0  0  0
   10.5677   -3.4462   20.5323 C   0  0  0  0  0  0  0  0  0  0  0  0
  1  8  1  0
  1 12  4  0
  1 14  4  0
  2  3  4  0
  2 18  4  0
  3 20  4  0
  3 22  4  0
  4 11  4  0
  4 21  4  0
  5  9  4  0
  5 16  4  0
  6 15  4  0
  6 16  4  0
  7 22  4  0
  7 26  4  0
  8 10  4  0
  8 25  4  0
  9 15  4  0
  9 17  1  0
 10 21  4  0
 11 25  4  0
 12 23  4  0
 13 20  4  0
 13 26  4  0
 14 19  4  0
 17 18  4  0
 17 24  4  0
 19 23  4  0
 20 24  4  0
 23 26  1  0
M  END
$$$$

 Created by Python create_sdf_string function

 26 30  0  0  0  0  0  0  0  0999 V2000
   10.0084   -1.8019   23.4945 C   0  0  0  0  0  0  0  0  0  0  0  0
   10.0005   -4.2520   16.5631 C   0  0  0  0  0  0  0  0  0  0  0  0
   10.2759   -4.0036   17.8845 C   0  0  0  0  0  0  0  0  0  0  0  0
    8.5652    1.5478   25.3778 N   0  0  0  0  0  0  0  0  0  0  0  0
    6.8048   -7.5457   17.8752 C   0  0  0  0  0  0  0  0  0  0  0  0
    6.1721   -8.2186   15.9886 N   0  0  0  0  0  0  0  0  0  0  0  0
   11.1764   -2.6600   19.5604 C   0  0  0  0  0  0  0  0  0  0  0  0
    9.5491   -0.6380   24.1912 C   0  0  0  0  0  0  0  0  0  0  0  0
    7.5337   -6.9256   16.9519 C   0  0  0  0  0  0  0  0  0  0  0  0
    9.6782    0.5671   23.5143 C   0  0  0  0  0  0  0  0  0  0  0  0
    8.4532    0.3482   26.0821 C   0  0  0  0  0  0  0  0  0  0  0  0
   10.4239   -1.7677   22.2230 N   0  0  0  0  0  0  0  0  0  0  0  0
    9.9468   -4.5953   20.1709 C   0  0  0  0  0  0  0  0  0  0  0  0
   10.0366   -3.0590   23.9864 N   0  0  0  0  0  0  0  0  0  0  0  0
    7.1191   -7.3636   15.7739 C   0  0  0  0  0  0  0  0  0  0  0  0
    5.9612   -8.3203   17.2732 N   0  0  0  0  0  0  0  0  0  0  0  0
    8.5296   -5.9814   17.1841 C   0  0  0  0  0  0  0  0  0  0  0  0
    9.1527   -5.2118   16.2116 C   0  0  0  0  0  0  0  0  0  0  0  0
   10.3364   -3.8368   22.9255 O   0  0  0  0  0  0  0  0  0  0  0  0
    9.6947   -4.8407   18.8534 C   0  0  0  0  0  0  0  0  0  0  0  0
    9.1596    1.7042   24.1381 C   0  0  0  0  0  0  0  0  0  0  0  0
   11.0456   -2.9774   18.2694 N   0  0  0  0  0  0  0  0  0  0  0  0
   10.4788   -3.0457   21.8593 C   0  0  0  0  0  0  0  0  0  0  0  0
    8.8693   -5.8099   18.4657 N   0  0  0  0  0  0  0  0  0  0  0  0
    8.9892   -0.7926   25.4573 C   0  0  0  0  0  0  0  0  0  0  0  0
   10.5677   -3.4462   20.5323 C   0  0  0  0  0  0  0  0  0  0  0  0
  1  8  1  0
  1 12  4  0
  1 14  4  0
  2  3  4  0
  2 18  4  0
  3 20  4  0
  3 22  4  0
  4 11  4  0
  4 21  4  0
  5  9  4  0
  5 16  4  0
  6 15  4  0
  6 16  4  0
  7 22  4  0
  7 26  4  0
  8 10  4  0
  8 25  4  0
  9 15  4  0
  9 17  1  0
 10 21  4  0
 11 25  4  0
 12 23  4  0
 13 20  4  0
 13 26  4  0
 14 19  4  0
 17 18  4  0
 17 24  4  0
 19 23  4  0
 20 24  4  0
 23 26  1  0
M  END
$$$$

 Created by Python create_sdf_string function

 26 30  0  0  0  0  0  0  0  0999 V2000
   10.0084   -1.8019   23.4945 C   0  0  0  0  0  0  0  0  0  0  0  0
   10.0005   -4.2520   16.5631 C   0  0  0  0  0  0  0  0  0  0  0  0
   10.2759   -4.0036   17.8845 C   0  0  0  0  0  0  0  0  0  0  0  0
    8.5652    1.5478   25.3778 N   0  0  0  0  0  0  0  0  0  0  0  0
    6.8048   -7.5457   17.8752 C   0  0  0  0  0  0  0  0  0  0  0  0
    6.1721   -8.2186   15.9886 N   0  0  0  0  0  0  0  0  0  0  0  0
   11.1764   -2.6600   19.5604 C   0  0  0  0  0  0  0  0  0  0  0  0
    9.5491   -0.6380   24.1912 C   0  0  0  0  0  0  0  0  0  0  0  0
    7.5337   -6.9256   16.9519 C   0  0  0  0  0  0  0  0  0  0  0  0
    9.6782    0.5671   23.5143 C   0  0  0  0  0  0  0  0  0  0  0  0
    8.4532    0.3482   26.0821 C   0  0  0  0  0  0  0  0  0  0  0  0
   10.4239   -1.7677   22.2230 N   0  0  0  0  0  0  0  0  0  0  0  0
    9.9468   -4.5953   20.1709 C   0  0  0  0  0  0  0  0  0  0  0  0
   10.0366   -3.0590   23.9864 N   0  0  0  0  0  0  0  0  0  0  0  0
    7.1191   -7.3636   15.7739 C   0  0  0  0  0  0  0  0  0  0  0  0
    5.9612   -8.3203   17.2732 N   0  0  0  0  0  0  0  0  0  0  0  0
    8.5296   -5.9814   17.1841 C   0  0  0  0  0  0  0  0  0  0  0  0
    9.1527   -5.2118   16.2116 C   0  0  0  0  0  0  0  0  0  0  0  0
   10.3364   -3.8368   22.9255 O   0  0  0  0  0  0  0  0  0  0  0  0
    9.6947   -4.8407   18.8534 C   0  0  0  0  0  0  0  0  0  0  0  0
    9.1596    1.7042   24.1381 C   0  0  0  0  0  0  0  0  0  0  0  0
   11.0456   -2.9774   18.2694 N   0  0  0  0  0  0  0  0  0  0  0  0
   10.4788   -3.0457   21.8593 C   0  0  0  0  0  0  0  0  0  0  0  0
    8.8693   -5.8099   18.4657 N   0  0  0  0  0  0  0  0  0  0  0  0
    8.9892   -0.7926   25.4573 C   0  0  0  0  0  0  0  0  0  0  0  0
   10.5677   -3.4462   20.5323 C   0  0  0  0  0  0  0  0  0  0  0  0
  1  8  1  0
  1 12  4  0
  1 14  4  0
  2  3  4  0
  2 18  4  0
  3 20  4  0
  3 22  4  0
  4 11  4  0
  4 21  4  0
  5  9  4  0
  5 16  4  0
  6 15  4  0
  6 16  4  0
  7 22  4  0
  7 26  4  0
  8 10  4  0
  8 25  4  0
  9 15  4  0
  9 17  1  0
 10 21  4  0
 11 25  4  0
 12 23  4  0
 13 20  4  0
 13 26  4  0
 14 19  4  0
 17 18  4  0
 17 24  4  0
 19 23  4  0
 20 24  4  0
 23 26  1  0
M  END
$$$$

 Created by Python create_sdf_string function

 26 30  0  0  0  0  0  0  0  0999 V2000
   10.0084   -1.8019   23.4945 C   0  0  0  0  0  0  0  0  0  0  0  0
   10.0005   -4.2520   16.5631 C   0  0  0  0  0  0  0  0  0  0  0  0
   10.2759   -4.0036   17.8845 C   0  0  0  0  0  0  0  0  0  0  0  0
    8.5652    1.5478   25.3778 N   0  0  0  0  0  0  0  0  0  0  0  0
    6.8048   -7.5457   17.8752 C   0  0  0  0  0  0  0  0  0  0  0  0
    6.1721   -8.2186   15.9886 N   0  0  0  0  0  0  0  0  0  0  0  0
   11.1764   -2.6600   19.5604 C   0  0  0  0  0  0  0  0  0  0  0  0
    9.5491   -0.6380   24.1912 C   0  0  0  0  0  0  0  0  0  0  0  0
    7.5337   -6.9256   16.9519 C   0  0  0  0  0  0  0  0  0  0  0  0
    9.6782    0.5671   23.5143 C   0  0  0  0  0  0  0  0  0  0  0  0
    8.4532    0.3482   26.0821 C   0  0  0  0  0  0  0  0  0  0  0  0
   10.4239   -1.7677   22.2230 N   0  0  0  0  0  0  0  0  0  0  0  0
    9.9468   -4.5953   20.1709 C   0  0  0  0  0  0  0  0  0  0  0  0
   10.0366   -3.0590   23.9864 N   0  0  0  0  0  0  0  0  0  0  0  0
    7.1191   -7.3636   15.7739 C   0  0  0  0  0  0  0  0  0  0  0  0
    5.9612   -8.3203   17.2732 N   0  0  0  0  0  0  0  0  0  0  0  0
    8.5296   -5.9814   17.1841 C   0  0  0  0  0  0  0  0  0  0  0  0
    9.1527   -5.2118   16.2116 C   0  0  0  0  0  0  0  0  0  0  0  0
   10.3364   -3.8368   22.9255 O   0  0  0  0  0  0  0  0  0  0  0  0
    9.6947   -4.8407   18.8534 C   0  0  0  0  0  0  0  0  0  0  0  0
    9.1596    1.7042   24.1381 C   0  0  0  0  0  0  0  0  0  0  0  0
   11.0456   -2.9774   18.2694 N   0  0  0  0  0  0  0  0  0  0  0  0
   10.4788   -3.0457   21.8593 C   0  0  0  0  0  0  0  0  0  0  0  0
    8.8693   -5.8099   18.4657 N   0  0  0  0  0  0  0  0  0  0  0  0
    8.9892   -0.7926   25.4573 C   0  0  0  0  0  0  0  0  0  0  0  0
   10.5677   -3.4462   20.5323 C   0  0  0  0  0  0  0  0  0  0  0  0
  1  8  1  0
  1 12  4  0
  1 14  4  0
  2  3  4  0
  2 18  4  0
  3 20  4  0
  3 22  4  0
  4 11  4  0
  4 21  4  0
  5  9  4  0
  5 16  4  0
  6 15  4  0
  6 16  4  0
  7 22  4  0
  7 26  4  0
  8 10  4  0
  8 25  4  0
  9 15  4  0
  9 17  1  0
 10 21  4  0
 11 25  4  0
 12 23  4  0
 13 20  4  0
 13 26  4  0
 14 19  4  0
 17 18  4  0
 17 24  4  0
 19 23  4  0
 20 24  4  0
 23 26  1  0
M  END
$$$$

 Created by Python create_sdf_string function

 26 30  0  0  0  0  0  0  0  0999 V2000
   10.0084   -1.8019   23.4945 C   0  0  0  0  0  0  0  0  0  0  0  0
   10.0005   -4.2520   16.5631 C   0  0  0  0  0  0  0  0  0  0  0  0
   10.2759   -4.0036   17.8845 C   0  0  0  0  0  0  0  0  0  0  0  0
    8.5652    1.5478   25.3778 N   0  0  0  0  0  0  0  0  0  0  0  0
    6.8048   -7.5457   17.8752 C   0  0  0  0  0  0  0  0  0  0  0  0
    6.1721   -8.2186   15.9886 N   0  0  0  0  0  0  0  0  0  0  0  0
   11.1764   -2.6600   19.5604 C   0  0  0  0  0  0  0  0  0  0  0  0
    9.5491   -0.6380   24.1912 C   0  0  0  0  0  0  0  0  0  0  0  0
    7.5337   -6.9256   16.9519 C   0  0  0  0  0  0  0  0  0  0  0  0
    9.6782    0.5671   23.5143 C   0  0  0  0  0  0  0  0  0  0  0  0
    8.4532    0.3482   26.0821 C   0  0  0  0  0  0  0  0  0  0  0  0
   10.4239   -1.7677   22.2230 N   0  0  0  0  0  0  0  0  0  0  0  0
    9.9468   -4.5953   20.1709 C   0  0  0  0  0  0  0  0  0  0  0  0
   10.0366   -3.0590   23.9864 N   0  0  0  0  0  0  0  0  0  0  0  0
    7.1191   -7.3636   15.7739 C   0  0  0  0  0  0  0  0  0  0  0  0
    5.9612   -8.3203   17.2732 N   0  0  0  0  0  0  0  0  0  0  0  0
    8.5296   -5.9814   17.1841 C   0  0  0  0  0  0  0  0  0  0  0  0
    9.1527   -5.2118   16.2116 C   0  0  0  0  0  0  0  0  0  0  0  0
   10.3364   -3.8368   22.9255 O   0  0  0  0  0  0  0  0  0  0  0  0
    9.6947   -4.8407   18.8534 C   0  0  0  0  0  0  0  0  0  0  0  0
    9.1596    1.7042   24.1381 C   0  0  0  0  0  0  0  0  0  0  0  0
   11.0456   -2.9774   18.2694 N   0  0  0  0  0  0  0  0  0  0  0  0
   10.4788   -3.0457   21.8593 C   0  0  0  0  0  0  0  0  0  0  0  0
    8.8693   -5.8099   18.4657 N   0  0  0  0  0  0  0  0  0  0  0  0
    8.9892   -0.7926   25.4573 C   0  0  0  0  0  0  0  0  0  0  0  0
   10.5677   -3.4462   20.5323 C   0  0  0  0  0  0  0  0  0  0  0  0
  1  8  1  0
  1 12  4  0
  1 14  4  0
  2  3  4  0
  2 18  4  0
  3 20  4  0
  3 22  4  0
  4 11  4  0
  4 21  4  0
  5  9  4  0
  5 16  4  0
  6 15  4  0
  6 16  4  0
  7 22  4  0
  7 26  4  0
  8 10  4  0
  8 25  4  0
  9 15  4  0
  9 17  1  0
 10 21  4  0
 11 25  4  0
 12 23  4  0
 13 20  4  0
 13 26  4  0
 14 19  4  0
 17 18  4  0
 17 24  4  0
 19 23  4  0
 20 24  4  0
 23 26  1  0
M  END
$$$$

 Created by Python create_sdf_string function

 26 30  0  0  0  0  0  0  0  0999 V2000
   10.0084   -1.8019   23.4945 C   0  0  0  0  0  0  0  0  0  0  0  0
   10.0005   -4.2520   16.5631 C   0  0  0  0  0  0  0  0  0  0  0  0
   10.2759   -4.0036   17.8845 C   0  0  0  0  0  0  0  0  0  0  0  0
    8.5652    1.5478   25.3778 N   0  0  0  0  0  0  0  0  0  0  0  0
    6.8048   -7.5457   17.8752 C   0  0  0  0  0  0  0  0  0  0  0  0
    6.1721   -8.2186   15.9886 N   0  0  0  0  0  0  0  0  0  0  0  0
   11.1764   -2.6600   19.5604 C   0  0  0  0  0  0  0  0  0  0  0  0
    9.5491   -0.6380   24.1912 C   0  0  0  0  0  0  0  0  0  0  0  0
    7.5337   -6.9256   16.9519 C   0  0  0  0  0  0  0  0  0  0  0  0
    9.6782    0.5671   23.5143 C   0  0  0  0  0  0  0  0  0  0  0  0
    8.4532    0.3482   26.0821 C   0  0  0  0  0  0  0  0  0  0  0  0
   10.4239   -1.7677   22.2230 N   0  0  0  0  0  0  0  0  0  0  0  0
    9.9468   -4.5953   20.1709 C   0  0  0  0  0  0  0  0  0  0  0  0
   10.0366   -3.0590   23.9864 N   0  0  0  0  0  0  0  0  0  0  0  0
    7.1191   -7.3636   15.7739 C   0  0  0  0  0  0  0  0  0  0  0  0
    5.9612   -8.3203   17.2732 N   0  0  0  0  0  0  0  0  0  0  0  0
    8.5296   -5.9814   17.1841 C   0  0  0  0  0  0  0  0  0  0  0  0
    9.1527   -5.2118   16.2116 C   0  0  0  0  0  0  0  0  0  0  0  0
   10.3364   -3.8368   22.9255 O   0  0  0  0  0  0  0  0  0  0  0  0
    9.6947   -4.8407   18.8534 C   0  0  0  0  0  0  0  0  0  0  0  0
    9.1596    1.7042   24.1381 C   0  0  0  0  0  0  0  0  0  0  0  0
   11.0456   -2.9774   18.2694 N   0  0  0  0  0  0  0  0  0  0  0  0
   10.4788   -3.0457   21.8593 C   0  0  0  0  0  0  0  0  0  0  0  0
    8.8693   -5.8099   18.4657 N   0  0  0  0  0  0  0  0  0  0  0  0
    8.9892   -0.7926   25.4573 C   0  0  0  0  0  0  0  0  0  0  0  0
   10.5677   -3.4462   20.5323 C   0  0  0  0  0  0  0  0  0  0  0  0
  1  8  1  0
  1 12  4  0
  1 14  4  0
  2  3  4  0
  2 18  4  0
  3 20  4  0
  3 22  4  0
  4 11  4  0
  4 21  4  0
  5  9  4  0
  5 16  4  0
  6 15  4  0
  6 16  4  0
  7 22  4  0
  7 26  4  0
  8 10  4  0
  8 25  4  0
  9 15  4  0
  9 17  1  0
 10 21  4  0
 11 25  4  0
 12 23  4  0
 13 20  4  0
 13 26  4  0
 14 19  4  0
 17 18  4  0
 17 24  4  0
 19 23  4  0
 20 24  4  0
 23 26  1  0
M  END
$$$$

 Created by Python create_sdf_string function

 26 30  0  0  0  0  0  0  0  0999 V2000
   10.0084   -1.8019   23.4945 C   0  0  0  0  0  0  0  0  0  0  0  0
   10.0005   -4.2520   16.5631 C   0  0  0  0  0  0  0  0  0  0  0  0
   10.2759   -4.0036   17.8845 C   0  0  0  0  0  0  0  0  0  0  0  0
    8.5652    1.5478   25.3778 N   0  0  0  0  0  0  0  0  0  0  0  0
    6.8048   -7.5457   17.8752 C   0  0  0  0  0  0  0  0  0  0  0  0
    6.1721   -8.2186   15.9886 N   0  0  0  0  0  0  0  0  0  0  0  0
   11.1764   -2.6600   19.5604 C   0  0  0  0  0  0  0  0  0  0  0  0
    9.5491   -0.6380   24.1912 C   0  0  0  0  0  0  0  0  0  0  0  0
    7.5337   -6.9256   16.9519 C   0  0  0  0  0  0  0  0  0  0  0  0
    9.6782    0.5671   23.5143 C   0  0  0  0  0  0  0  0  0  0  0  0
    8.4532    0.3482   26.0821 C   0  0  0  0  0  0  0  0  0  0  0  0
   10.4239   -1.7677   22.2230 N   0  0  0  0  0  0  0  0  0  0  0  0
    9.9468   -4.5953   20.1709 C   0  0  0  0  0  0  0  0  0  0  0  0
   10.0366   -3.0590   23.9864 N   0  0  0  0  0  0  0  0  0  0  0  0
    7.1191   -7.3636   15.7739 C   0  0  0  0  0  0  0  0  0  0  0  0
    5.9612   -8.3203   17.2732 N   0  0  0  0  0  0  0  0  0  0  0  0
    8.5296   -5.9814   17.1841 C   0  0  0  0  0  0  0  0  0  0  0  0
    9.1527   -5.2118   16.2116 C   0  0  0  0  0  0  0  0  0  0  0  0
   10.3364   -3.8368   22.9255 O   0  0  0  0  0  0  0  0  0  0  0  0
    9.6947   -4.8407   18.8534 C   0  0  0  0  0  0  0  0  0  0  0  0
    9.1596    1.7042   24.1381 C   0  0  0  0  0  0  0  0  0  0  0  0
   11.0456   -2.9774   18.2694 N   0  0  0  0  0  0  0  0  0  0  0  0
   10.4788   -3.0457   21.8593 C   0  0  0  0  0  0  0  0  0  0  0  0
    8.8693   -5.8099   18.4657 N   0  0  0  0  0  0  0  0  0  0  0  0
    8.9892   -0.7926   25.4573 C   0  0  0  0  0  0  0  0  0  0  0  0
   10.5677   -3.4462   20.5323 C   0  0  0  0  0  0  0  0  0  0  0  0
  1  8  1  0
  1 12  4  0
  1 14  4  0
  2  3  4  0
  2 18  4  0
  3 20  4  0
  3 22  4  0
  4 11  4  0
  4 21  4  0
  5  9  4  0
  5 16  4  0
  6 15  4  0
  6 16  4  0
  7 22  4  0
  7 26  4  0
  8 10  4  0
  8 25  4  0
  9 15  4  0
  9 17  1  0
 10 21  4  0
 11 25  4  0
 12 23  4  0
 13 20  4  0
 13 26  4  0
 14 19  4  0
 17 18  4  0
 17 24  4  0
 19 23  4  0
 20 24  4  0
 23 26  1  0
M  END
$$$$

 Created by Python create_sdf_string function

 26 30  0  0  0  0  0  0  0  0999 V2000
   10.0084   -1.8019   23.4945 C   0  0  0  0  0  0  0  0  0  0  0  0
   10.0005   -4.2520   16.5631 C   0  0  0  0  0  0  0  0  0  0  0  0
   10.2759   -4.0036   17.8845 C   0  0  0  0  0  0  0  0  0  0  0  0
    8.5652    1.5478   25.3778 N   0  0  0  0  0  0  0  0  0  0  0  0
    6.8048   -7.5457   17.8752 C   0  0  0  0  0  0  0  0  0  0  0  0
    6.1721   -8.2186   15.9886 N   0  0  0  0  0  0  0  0  0  0  0  0
   11.1764   -2.6600   19.5604 C   0  0  0  0  0  0  0  0  0  0  0  0
    9.5491   -0.6380   24.1912 C   0  0  0  0  0  0  0  0  0  0  0  0
    7.5337   -6.9256   16.9519 C   0  0  0  0  0  0  0  0  0  0  0  0
    9.6782    0.5671   23.5143 C   0  0  0  0  0  0  0  0  0  0  0  0
    8.4532    0.3482   26.0821 C   0  0  0  0  0  0  0  0  0  0  0  0
   10.4239   -1.7677   22.2230 N   0  0  0  0  0  0  0  0  0  0  0  0
    9.9468   -4.5953   20.1709 C   0  0  0  0  0  0  0  0  0  0  0  0
   10.0366   -3.0590   23.9864 N   0  0  0  0  0  0  0  0  0  0  0  0
    7.1191   -7.3636   15.7739 C   0  0  0  0  0  0  0  0  0  0  0  0
    5.9612   -8.3203   17.2732 N   0  0  0  0  0  0  0  0  0  0  0  0
    8.5296   -5.9814   17.1841 C   0  0  0  0  0  0  0  0  0  0  0  0
    9.1527   -5.2118   16.2116 C   0  0  0  0  0  0  0  0  0  0  0  0
   10.3364   -3.8368   22.9255 O   0  0  0  0  0  0  0  0  0  0  0  0
    9.6947   -4.8407   18.8534 C   0  0  0  0  0  0  0  0  0  0  0  0
    9.1596    1.7042   24.1381 C   0  0  0  0  0  0  0  0  0  0  0  0
   11.0456   -2.9774   18.2694 N   0  0  0  0  0  0  0  0  0  0  0  0
   10.4788   -3.0457   21.8593 C   0  0  0  0  0  0  0  0  0  0  0  0
    8.8693   -5.8099   18.4657 N   0  0  0  0  0  0  0  0  0  0  0  0
    8.9892   -0.7926   25.4573 C   0  0  0  0  0  0  0  0  0  0  0  0
   10.5677   -3.4462   20.5323 C   0  0  0  0  0  0  0  0  0  0  0  0
  1  8  1  0
  1 12  4  0
  1 14  4  0
  2  3  4  0
  2 18  4  0
  3 20  4  0
  3 22  4  0
  4 11  4  0
  4 21  4  0
  5  9  4  0
  5 16  4  0
  6 15  4  0
  6 16  4  0
  7 22  4  0
  7 26  4  0
  8 10  4  0
  8 25  4  0
  9 15  4  0
  9 17  1  0
 10 21  4  0
 11 25  4  0
 12 23  4  0
 13 20  4  0
 13 26  4  0
 14 19  4  0
 17 18  4  0
 17 24  4  0
 19 23  4  0
 20 24  4  0
 23 26  1  0
M  END
$$$$

 Created by Python create_sdf_string function

 26 30  0  0  0  0  0  0  0  0999 V2000
   10.0084   -1.8019   23.4945 C   0  0  0  0  0  0  0  0  0  0  0  0
   10.0005   -4.2520   16.5631 C   0  0  0  0  0  0  0  0  0  0  0  0
   10.2759   -4.0036   17.8845 C   0  0  0  0  0  0  0  0  0  0  0  0
    8.5652    1.5478   25.3778 N   0  0  0  0  0  0  0  0  0  0  0  0
    6.8048   -7.5457   17.8752 C   0  0  0  0  0  0  0  0  0  0  0  0
    6.1721   -8.2186   15.9886 N   0  0  0  0  0  0  0  0  0  0  0  0
   11.1764   -2.6600   19.5604 C   0  0  0  0  0  0  0  0  0  0  0  0
    9.5491   -0.6380   24.1912 C   0  0  0  0  0  0  0  0  0  0  0  0
    7.5337   -6.9256   16.9519 C   0  0  0  0  0  0  0  0  0  0  0  0
    9.6782    0.5671   23.5143 C   0  0  0  0  0  0  0  0  0  0  0  0
    8.4532    0.3482   26.0821 C   0  0  0  0  0  0  0  0  0  0  0  0
   10.4239   -1.7677   22.2230 N   0  0  0  0  0  0  0  0  0  0  0  0
    9.9468   -4.5953   20.1709 C   0  0  0  0  0  0  0  0  0  0  0  0
   10.0366   -3.0590   23.9864 N   0  0  0  0  0  0  0  0  0  0  0  0
    7.1191   -7.3636   15.7739 C   0  0  0  0  0  0  0  0  0  0  0  0
    5.9612   -8.3203   17.2732 N   0  0  0  0  0  0  0  0  0  0  0  0
    8.5296   -5.9814   17.1841 C   0  0  0  0  0  0  0  0  0  0  0  0
    9.1527   -5.2118   16.2116 C   0  0  0  0  0  0  0  0  0  0  0  0
   10.3364   -3.8368   22.9255 O   0  0  0  0  0  0  0  0  0  0  0  0
    9.6947   -4.8407   18.8534 C   0  0  0  0  0  0  0  0  0  0  0  0
    9.1596    1.7042   24.1381 C   0  0  0  0  0  0  0  0  0  0  0  0
   11.0456   -2.9774   18.2694 N   0  0  0  0  0  0  0  0  0  0  0  0
   10.4788   -3.0457   21.8593 C   0  0  0  0  0  0  0  0  0  0  0  0
    8.8693   -5.8099   18.4657 N   0  0  0  0  0  0  0  0  0  0  0  0
    8.9892   -0.7926   25.4573 C   0  0  0  0  0  0  0  0  0  0  0  0
   10.5677   -3.4462   20.5323 C   0  0  0  0  0  0  0  0  0  0  0  0
  1  8  1  0
  1 12  4  0
  1 14  4  0
  2  3  4  0
  2 18  4  0
  3 20  4  0
  3 22  4  0
  4 11  4  0
  4 21  4  0
  5  9  4  0
  5 16  4  0
  6 15  4  0
  6 16  4  0
  7 22  4  0
  7 26  4  0
  8 10  4  0
  8 25  4  0
  9 15  4  0
  9 17  1  0
 10 21  4  0
 11 25  4  0
 12 23  4  0
 13 20  4  0
 13 26  4  0
 14 19  4  0
 17 18  4  0
 17 24  4  0
 19 23  4  0
 20 24  4  0
 23 26  1  0
M  END
$$$$

 Created by Python create_sdf_string function

 26 30  0  0  0  0  0  0  0  0999 V2000
   10.0084   -1.8019   23.4945 C   0  0  0  0  0  0  0  0  0  0  0  0
   10.0005   -4.2520   16.5631 C   0  0  0  0  0  0  0  0  0  0  0  0
   10.2759   -4.0036   17.8845 C   0  0  0  0  0  0  0  0  0  0  0  0
    8.5652    1.5478   25.3778 N   0  0  0  0  0  0  0  0  0  0  0  0
    6.8048   -7.5457   17.8752 C   0  0  0  0  0  0  0  0  0  0  0  0
    6.1721   -8.2186   15.9886 N   0  0  0  0  0  0  0  0  0  0  0  0
   11.1764   -2.6600   19.5604 C   0  0  0  0  0  0  0  0  0  0  0  0
    9.5491   -0.6380   24.1912 C   0  0  0  0  0  0  0  0  0  0  0  0
    7.5337   -6.9256   16.9519 C   0  0  0  0  0  0  0  0  0  0  0  0
    9.6782    0.5671   23.5143 C   0  0  0  0  0  0  0  0  0  0  0  0
    8.4532    0.3482   26.0821 C   0  0  0  0  0  0  0  0  0  0  0  0
   10.4239   -1.7677   22.2230 N   0  0  0  0  0  0  0  0  0  0  0  0
    9.9468   -4.5953   20.1709 C   0  0  0  0  0  0  0  0  0  0  0  0
   10.0366   -3.0590   23.9864 N   0  0  0  0  0  0  0  0  0  0  0  0
    7.1191   -7.3636   15.7739 C   0  0  0  0  0  0  0  0  0  0  0  0
    5.9612   -8.3203   17.2732 N   0  0  0  0  0  0  0  0  0  0  0  0
    8.5296   -5.9814   17.1841 C   0  0  0  0  0  0  0  0  0  0  0  0
    9.1527   -5.2118   16.2116 C   0  0  0  0  0  0  0  0  0  0  0  0
   10.3364   -3.8368   22.9255 O   0  0  0  0  0  0  0  0  0  0  0  0
    9.6947   -4.8407   18.8534 C   0  0  0  0  0  0  0  0  0  0  0  0
    9.1596    1.7042   24.1381 C   0  0  0  0  0  0  0  0  0  0  0  0
   11.0456   -2.9774   18.2694 N   0  0  0  0  0  0  0  0  0  0  0  0
   10.4788   -3.0457   21.8593 C   0  0  0  0  0  0  0  0  0  0  0  0
    8.8693   -5.8099   18.4657 N   0  0  0  0  0  0  0  0  0  0  0  0
    8.9892   -0.7926   25.4573 C   0  0  0  0  0  0  0  0  0  0  0  0
   10.5677   -3.4462   20.5323 C   0  0  0  0  0  0  0  0  0  0  0  0
  1  8  1  0
  1 12  4  0
  1 14  4  0
  2  3  4  0
  2 18  4  0
  3 20  4  0
  3 22  4  0
  4 11  4  0
  4 21  4  0
  5  9  4  0
  5 16  4  0
  6 15  4  0
  6 16  4  0
  7 22  4  0
  7 26  4  0
  8 10  4  0
  8 25  4  0
  9 15  4  0
  9 17  1  0
 10 21  4  0
 11 25  4  0
 12 23  4  0
 13 20  4  0
 13 26  4  0
 14 19  4  0
 17 18  4  0
 17 24  4  0
 19 23  4  0
 20 24  4  0
 23 26  1  0
M  END
$$$$

 Created by Python create_sdf_string function

 26 30  0  0  0  0  0  0  0  0999 V2000
   10.0084   -1.8019   23.4945 C   0  0  0  0  0  0  0  0  0  0  0  0
   10.0005   -4.2520   16.5631 C   0  0  0  0  0  0  0  0  0  0  0  0
   10.2759   -4.0036   17.8845 C   0  0  0  0  0  0  0  0  0  0  0  0
    8.5652    1.5478   25.3778 N   0  0  0  0  0  0  0  0  0  0  0  0
    6.8048   -7.5457   17.8752 C   0  0  0  0  0  0  0  0  0  0  0  0
    6.1721   -8.2186   15.9886 N   0  0  0  0  0  0  0  0  0  0  0  0
   11.1764   -2.6600   19.5604 C   0  0  0  0  0  0  0  0  0  0  0  0
    9.5491   -0.6380   24.1912 C   0  0  0  0  0  0  0  0  0  0  0  0
    7.5337   -6.9256   16.9519 C   0  0  0  0  0  0  0  0  0  0  0  0
    9.6782    0.5671   23.5143 C   0  0  0  0  0  0  0  0  0  0  0  0
    8.4532    0.3482   26.0821 C   0  0  0  0  0  0  0  0  0  0  0  0
   10.4239   -1.7677   22.2230 N   0  0  0  0  0  0  0  0  0  0  0  0
    9.9468   -4.5953   20.1709 C   0  0  0  0  0  0  0  0  0  0  0  0
   10.0366   -3.0590   23.9864 N   0  0  0  0  0  0  0  0  0  0  0  0
    7.1191   -7.3636   15.7739 C   0  0  0  0  0  0  0  0  0  0  0  0
    5.9612   -8.3203   17.2732 N   0  0  0  0  0  0  0  0  0  0  0  0
    8.5296   -5.9814   17.1841 C   0  0  0  0  0  0  0  0  0  0  0  0
    9.1527   -5.2118   16.2116 C   0  0  0  0  0  0  0  0  0  0  0  0
   10.3364   -3.8368   22.9255 O   0  0  0  0  0  0  0  0  0  0  0  0
    9.6947   -4.8407   18.8534 C   0  0  0  0  0  0  0  0  0  0  0  0
    9.1596    1.7042   24.1381 C   0  0  0  0  0  0  0  0  0  0  0  0
   11.0456   -2.9774   18.2694 N   0  0  0  0  0  0  0  0  0  0  0  0
   10.4788   -3.0457   21.8593 C   0  0  0  0  0  0  0  0  0  0  0  0
    8.8693   -5.8099   18.4657 N   0  0  0  0  0  0  0  0  0  0  0  0
    8.9892   -0.7926   25.4573 C   0  0  0  0  0  0  0  0  0  0  0  0
   10.5677   -3.4462   20.5323 C   0  0  0  0  0  0  0  0  0  0  0  0
  1  8  1  0
  1 12  4  0
  1 14  4  0
  2  3  4  0
  2 18  4  0
  3 20  4  0
  3 22  4  0
  4 11  4  0
  4 21  4  0
  5  9  4  0
  5 16  4  0
  6 15  4  0
  6 16  4  0
  7 22  4  0
  7 26  4  0
  8 10  4  0
  8 25  4  0
  9 15  4  0
  9 17  1  0
 10 21  4  0
 11 25  4  0
 12 23  4  0
 13 20  4  0
 13 26  4  0
 14 19  4  0
 17 18  4  0
 17 24  4  0
 19 23  4  0
 20 24  4  0
 23 26  1  0
M  END
$$$$

 Created by Python create_sdf_string function

 26 30  0  0  0  0  0  0  0  0999 V2000
   10.0084   -1.8019   23.4945 C   0  0  0  0  0  0  0  0  0  0  0  0
   10.0005   -4.2520   16.5631 C   0  0  0  0  0  0  0  0  0  0  0  0
   10.2759   -4.0036   17.8845 C   0  0  0  0  0  0  0  0  0  0  0  0
    8.5652    1.5478   25.3778 N   0  0  0  0  0  0  0  0  0  0  0  0
    6.8048   -7.5457   17.8752 C   0  0  0  0  0  0  0  0  0  0  0  0
    6.1721   -8.2186   15.9886 N   0  0  0  0  0  0  0  0  0  0  0  0
   11.1764   -2.6600   19.5604 C   0  0  0  0  0  0  0  0  0  0  0  0
    9.5491   -0.6380   24.1912 C   0  0  0  0  0  0  0  0  0  0  0  0
    7.5337   -6.9256   16.9519 C   0  0  0  0  0  0  0  0  0  0  0  0
    9.6782    0.5671   23.5143 C   0  0  0  0  0  0  0  0  0  0  0  0
    8.4532    0.3482   26.0821 C   0  0  0  0  0  0  0  0  0  0  0  0
   10.4239   -1.7677   22.2230 N   0  0  0  0  0  0  0  0  0  0  0  0
    9.9468   -4.5953   20.1709 C   0  0  0  0  0  0  0  0  0  0  0  0
   10.0366   -3.0590   23.9864 N   0  0  0  0  0  0  0  0  0  0  0  0
    7.1191   -7.3636   15.7739 C   0  0  0  0  0  0  0  0  0  0  0  0
    5.9612   -8.3203   17.2732 N   0  0  0  0  0  0  0  0  0  0  0  0
    8.5296   -5.9814   17.1841 C   0  0  0  0  0  0  0  0  0  0  0  0
    9.1527   -5.2118   16.2116 C   0  0  0  0  0  0  0  0  0  0  0  0
   10.3364   -3.8368   22.9255 O   0  0  0  0  0  0  0  0  0  0  0  0
    9.6947   -4.8407   18.8534 C   0  0  0  0  0  0  0  0  0  0  0  0
    9.1596    1.7042   24.1381 C   0  0  0  0  0  0  0  0  0  0  0  0
   11.0456   -2.9774   18.2694 N   0  0  0  0  0  0  0  0  0  0  0  0
   10.4788   -3.0457   21.8593 C   0  0  0  0  0  0  0  0  0  0  0  0
    8.8693   -5.8099   18.4657 N   0  0  0  0  0  0  0  0  0  0  0  0
    8.9892   -0.7926   25.4573 C   0  0  0  0  0  0  0  0  0  0  0  0
   10.5677   -3.4462   20.5323 C   0  0  0  0  0  0  0  0  0  0  0  0
  1  8  1  0
  1 12  4  0
  1 14  4  0
  2  3  4  0
  2 18  4  0
  3 20  4  0
  3 22  4  0
  4 11  4  0
  4 21  4  0
  5  9  4  0
  5 16  4  0
  6 15  4  0
  6 16  4  0
  7 22  4  0
  7 26  4  0
  8 10  4  0
  8 25  4  0
  9 15  4  0
  9 17  1  0
 10 21  4  0
 11 25  4  0
 12 23  4  0
 13 20  4  0
 13 26  4  0
 14 19  4  0
 17 18  4  0
 17 24  4  0
 19 23  4  0
 20 24  4  0
 23 26  1  0
M  END
$$$$

 Created by Python create_sdf_string function

 26 30  0  0  0  0  0  0  0  0999 V2000
   10.0084   -1.8019   23.4945 C   0  0  0  0  0  0  0  0  0  0  0  0
   10.0005   -4.2520   16.5631 C   0  0  0  0  0  0  0  0  0  0  0  0
   10.2759   -4.0036   17.8845 C   0  0  0  0  0  0  0  0  0  0  0  0
    8.5652    1.5478   25.3778 N   0  0  0  0  0  0  0  0  0  0  0  0
    6.8048   -7.5457   17.8752 C   0  0  0  0  0  0  0  0  0  0  0  0
    6.1721   -8.2186   15.9886 N   0  0  0  0  0  0  0  0  0  0  0  0
   11.1764   -2.6600   19.5604 C   0  0  0  0  0  0  0  0  0  0  0  0
    9.5491   -0.6380   24.1912 C   0  0  0  0  0  0  0  0  0  0  0  0
    7.5337   -6.9256   16.9519 C   0  0  0  0  0  0  0  0  0  0  0  0
    9.6782    0.5671   23.5143 C   0  0  0  0  0  0  0  0  0  0  0  0
    8.4532    0.3482   26.0821 C   0  0  0  0  0  0  0  0  0  0  0  0
   10.4239   -1.7677   22.2230 N   0  0  0  0  0  0  0  0  0  0  0  0
    9.9468   -4.5953   20.1709 C   0  0  0  0  0  0  0  0  0  0  0  0
   10.0366   -3.0590   23.9864 N   0  0  0  0  0  0  0  0  0  0  0  0
    7.1191   -7.3636   15.7739 C   0  0  0  0  0  0  0  0  0  0  0  0
    5.9612   -8.3203   17.2732 N   0  0  0  0  0  0  0  0  0  0  0  0
    8.5296   -5.9814   17.1841 C   0  0  0  0  0  0  0  0  0  0  0  0
    9.1527   -5.2118   16.2116 C   0  0  0  0  0  0  0  0  0  0  0  0
   10.3364   -3.8368   22.9255 O   0  0  0  0  0  0  0  0  0  0  0  0
    9.6947   -4.8407   18.8534 C   0  0  0  0  0  0  0  0  0  0  0  0
    9.1596    1.7042   24.1381 C   0  0  0  0  0  0  0  0  0  0  0  0
   11.0456   -2.9774   18.2694 N   0  0  0  0  0  0  0  0  0  0  0  0
   10.4788   -3.0457   21.8593 C   0  0  0  0  0  0  0  0  0  0  0  0
    8.8693   -5.8099   18.4657 N   0  0  0  0  0  0  0  0  0  0  0  0
    8.9892   -0.7926   25.4573 C   0  0  0  0  0  0  0  0  0  0  0  0
   10.5677   -3.4462   20.5323 C   0  0  0  0  0  0  0  0  0  0  0  0
  1  8  1  0
  1 12  4  0
  1 14  4  0
  2  3  4  0
  2 18  4  0
  3 20  4  0
  3 22  4  0
  4 11  4  0
  4 21  4  0
  5  9  4  0
  5 16  4  0
  6 15  4  0
  6 16  4  0
  7 22  4  0
  7 26  4  0
  8 10  4  0
  8 25  4  0
  9 15  4  0
  9 17  1  0
 10 21  4  0
 11 25  4  0
 12 23  4  0
 13 20  4  0
 13 26  4  0
 14 19  4  0
 17 18  4  0
 17 24  4  0
 19 23  4  0
 20 24  4  0
 23 26  1  0
M  END
$$$$

 Created by Python create_sdf_string function

 26 30  0  0  0  0  0  0  0  0999 V2000
   10.0084   -1.8019   23.4945 C   0  0  0  0  0  0  0  0  0  0  0  0
   10.0005   -4.2520   16.5631 C   0  0  0  0  0  0  0  0  0  0  0  0
   10.2759   -4.0036   17.8845 C   0  0  0  0  0  0  0  0  0  0  0  0
    8.5652    1.5478   25.3778 N   0  0  0  0  0  0  0  0  0  0  0  0
    6.8048   -7.5457   17.8752 C   0  0  0  0  0  0  0  0  0  0  0  0
    6.1721   -8.2186   15.9886 N   0  0  0  0  0  0  0  0  0  0  0  0
   11.1764   -2.6600   19.5604 C   0  0  0  0  0  0  0  0  0  0  0  0
    9.5491   -0.6380   24.1912 C   0  0  0  0  0  0  0  0  0  0  0  0
    7.5337   -6.9256   16.9519 C   0  0  0  0  0  0  0  0  0  0  0  0
    9.6782    0.5671   23.5143 C   0  0  0  0  0  0  0  0  0  0  0  0
    8.4532    0.3482   26.0821 C   0  0  0  0  0  0  0  0  0  0  0  0
   10.4239   -1.7677   22.2230 N   0  0  0  0  0  0  0  0  0  0  0  0
    9.9468   -4.5953   20.1709 C   0  0  0  0  0  0  0  0  0  0  0  0
   10.0366   -3.0590   23.9864 N   0  0  0  0  0  0  0  0  0  0  0  0
    7.1191   -7.3636   15.7739 C   0  0  0  0  0  0  0  0  0  0  0  0
    5.9612   -8.3203   17.2732 N   0  0  0  0  0  0  0  0  0  0  0  0
    8.5296   -5.9814   17.1841 C   0  0  0  0  0  0  0  0  0  0  0  0
    9.1527   -5.2118   16.2116 C   0  0  0  0  0  0  0  0  0  0  0  0
   10.3364   -3.8368   22.9255 O   0  0  0  0  0  0  0  0  0  0  0  0
    9.6947   -4.8407   18.8534 C   0  0  0  0  0  0  0  0  0  0  0  0
    9.1596    1.7042   24.1381 C   0  0  0  0  0  0  0  0  0  0  0  0
   11.0456   -2.9774   18.2694 N   0  0  0  0  0  0  0  0  0  0  0  0
   10.4788   -3.0457   21.8593 C   0  0  0  0  0  0  0  0  0  0  0  0
    8.8693   -5.8099   18.4657 N   0  0  0  0  0  0  0  0  0  0  0  0
    8.9892   -0.7926   25.4573 C   0  0  0  0  0  0  0  0  0  0  0  0
   10.5677   -3.4462   20.5323 C   0  0  0  0  0  0  0  0  0  0  0  0
  1  8  1  0
  1 12  4  0
  1 14  4  0
  2  3  4  0
  2 18  4  0
  3 20  4  0
  3 22  4  0
  4 11  4  0
  4 21  4  0
  5  9  4  0
  5 16  4  0
  6 15  4  0
  6 16  4  0
  7 22  4  0
  7 26  4  0
  8 10  4  0
  8 25  4  0
  9 15  4  0
  9 17  1  0
 10 21  4  0
 11 25  4  0
 12 23  4  0
 13 20  4  0
 13 26  4  0
 14 19  4  0
 17 18  4  0
 17 24  4  0
 19 23  4  0
 20 24  4  0
 23 26  1  0
M  END
$$$$

 Created by Python create_sdf_string function

 26 30  0  0  0  0  0  0  0  0999 V2000
   10.0084   -1.8019   23.4945 C   0  0  0  0  0  0  0  0  0  0  0  0
   10.0005   -4.2520   16.5631 C   0  0  0  0  0  0  0  0  0  0  0  0
   10.2759   -4.0036   17.8845 C   0  0  0  0  0  0  0  0  0  0  0  0
    8.5652    1.5478   25.3778 N   0  0  0  0  0  0  0  0  0  0  0  0
    6.8048   -7.5457   17.8752 C   0  0  0  0  0  0  0  0  0  0  0  0
    6.1721   -8.2186   15.9886 N   0  0  0  0  0  0  0  0  0  0  0  0
   11.1764   -2.6600   19.5604 C   0  0  0  0  0  0  0  0  0  0  0  0
    9.5491   -0.6380   24.1912 C   0  0  0  0  0  0  0  0  0  0  0  0
    7.5337   -6.9256   16.9519 C   0  0  0  0  0  0  0  0  0  0  0  0
    9.6782    0.5671   23.5143 C   0  0  0  0  0  0  0  0  0  0  0  0
    8.4532    0.3482   26.0821 C   0  0  0  0  0  0  0  0  0  0  0  0
   10.4239   -1.7677   22.2230 N   0  0  0  0  0  0  0  0  0  0  0  0
    9.9468   -4.5953   20.1709 C   0  0  0  0  0  0  0  0  0  0  0  0
   10.0366   -3.0590   23.9864 N   0  0  0  0  0  0  0  0  0  0  0  0
    7.1191   -7.3636   15.7739 C   0  0  0  0  0  0  0  0  0  0  0  0
    5.9612   -8.3203   17.2732 N   0  0  0  0  0  0  0  0  0  0  0  0
    8.5296   -5.9814   17.1841 C   0  0  0  0  0  0  0  0  0  0  0  0
    9.1527   -5.2118   16.2116 C   0  0  0  0  0  0  0  0  0  0  0  0
   10.3364   -3.8368   22.9255 O   0  0  0  0  0  0  0  0  0  0  0  0
    9.6947   -4.8407   18.8534 C   0  0  0  0  0  0  0  0  0  0  0  0
    9.1596    1.7042   24.1381 C   0  0  0  0  0  0  0  0  0  0  0  0
   11.0456   -2.9774   18.2694 N   0  0  0  0  0  0  0  0  0  0  0  0
   10.4788   -3.0457   21.8593 C   0  0  0  0  0  0  0  0  0  0  0  0
    8.8693   -5.8099   18.4657 N   0  0  0  0  0  0  0  0  0  0  0  0
    8.9892   -0.7926   25.4573 C   0  0  0  0  0  0  0  0  0  0  0  0
   10.5677   -3.4462   20.5323 C   0  0  0  0  0  0  0  0  0  0  0  0
  1  8  1  0
  1 12  4  0
  1 14  4  0
  2  3  4  0
  2 18  4  0
  3 20  4  0
  3 22  4  0
  4 11  4  0
  4 21  4  0
  5  9  4  0
  5 16  4  0
  6 15  4  0
  6 16  4  0
  7 22  4  0
  7 26  4  0
  8 10  4  0
  8 25  4  0
  9 15  4  0
  9 17  1  0
 10 21  4  0
 11 25  4  0
 12 23  4  0
 13 20  4  0
 13 26  4  0
 14 19  4  0
 17 18  4  0
 17 24  4  0
 19 23  4  0
 20 24  4  0
 23 26  1  0
M  END
$$$$

 Created by Python create_sdf_string function

 26 30  0  0  0  0  0  0  0  0999 V2000
   10.0084   -1.8019   23.4945 C   0  0  0  0  0  0  0  0  0  0  0  0
   10.0005   -4.2520   16.5631 C   0  0  0  0  0  0  0  0  0  0  0  0
   10.2759   -4.0036   17.8845 C   0  0  0  0  0  0  0  0  0  0  0  0
    8.5652    1.5478   25.3778 N   0  0  0  0  0  0  0  0  0  0  0  0
    6.8048   -7.5457   17.8752 C   0  0  0  0  0  0  0  0  0  0  0  0
    6.1721   -8.2186   15.9886 N   0  0  0  0  0  0  0  0  0  0  0  0
   11.1764   -2.6600   19.5604 C   0  0  0  0  0  0  0  0  0  0  0  0
    9.5491   -0.6380   24.1912 C   0  0  0  0  0  0  0  0  0  0  0  0
    7.5337   -6.9256   16.9519 C   0  0  0  0  0  0  0  0  0  0  0  0
    9.6782    0.5671   23.5143 C   0  0  0  0  0  0  0  0  0  0  0  0
    8.4532    0.3482   26.0821 C   0  0  0  0  0  0  0  0  0  0  0  0
   10.4239   -1.7677   22.2230 N   0  0  0  0  0  0  0  0  0  0  0  0
    9.9468   -4.5953   20.1709 C   0  0  0  0  0  0  0  0  0  0  0  0
   10.0366   -3.0590   23.9864 N   0  0  0  0  0  0  0  0  0  0  0  0
    7.1191   -7.3636   15.7739 C   0  0  0  0  0  0  0  0  0  0  0  0
    5.9612   -8.3203   17.2732 N   0  0  0  0  0  0  0  0  0  0  0  0
    8.5296   -5.9814   17.1841 C   0  0  0  0  0  0  0  0  0  0  0  0
    9.1527   -5.2118   16.2116 C   0  0  0  0  0  0  0  0  0  0  0  0
   10.3364   -3.8368   22.9255 O   0  0  0  0  0  0  0  0  0  0  0  0
    9.6947   -4.8407   18.8534 C   0  0  0  0  0  0  0  0  0  0  0  0
    9.1596    1.7042   24.1381 C   0  0  0  0  0  0  0  0  0  0  0  0
   11.0456   -2.9774   18.2694 N   0  0  0  0  0  0  0  0  0  0  0  0
   10.4788   -3.0457   21.8593 C   0  0  0  0  0  0  0  0  0  0  0  0
    8.8693   -5.8099   18.4657 N   0  0  0  0  0  0  0  0  0  0  0  0
    8.9892   -0.7926   25.4573 C   0  0  0  0  0  0  0  0  0  0  0  0
   10.5677   -3.4462   20.5323 C   0  0  0  0  0  0  0  0  0  0  0  0
  1  8  1  0
  1 12  4  0
  1 14  4  0
  2  3  4  0
  2 18  4  0
  3 20  4  0
  3 22  4  0
  4 11  4  0
  4 21  4  0
  5  9  4  0
  5 16  4  0
  6 15  4  0
  6 16  4  0
  7 22  4  0
  7 26  4  0
  8 10  4  0
  8 25  4  0
  9 15  4  0
  9 17  1  0
 10 21  4  0
 11 25  4  0
 12 23  4  0
 13 20  4  0
 13 26  4  0
 14 19  4  0
 17 18  4  0
 17 24  4  0
 19 23  4  0
 20 24  4  0
 23 26  1  0
M  END
$$$$

 Created by Python create_sdf_string function

 26 30  0  0  0  0  0  0  0  0999 V2000
   10.0084   -1.8019   23.4945 C   0  0  0  0  0  0  0  0  0  0  0  0
   10.0005   -4.2520   16.5631 C   0  0  0  0  0  0  0  0  0  0  0  0
   10.2759   -4.0036   17.8845 C   0  0  0  0  0  0  0  0  0  0  0  0
    8.5652    1.5478   25.3778 N   0  0  0  0  0  0  0  0  0  0  0  0
    6.8048   -7.5457   17.8752 C   0  0  0  0  0  0  0  0  0  0  0  0
    6.1721   -8.2186   15.9886 N   0  0  0  0  0  0  0  0  0  0  0  0
   11.1764   -2.6600   19.5604 C   0  0  0  0  0  0  0  0  0  0  0  0
    9.5491   -0.6380   24.1912 C   0  0  0  0  0  0  0  0  0  0  0  0
    7.5337   -6.9256   16.9519 C   0  0  0  0  0  0  0  0  0  0  0  0
    9.6782    0.5671   23.5143 C   0  0  0  0  0  0  0  0  0  0  0  0
    8.4532    0.3482   26.0821 C   0  0  0  0  0  0  0  0  0  0  0  0
   10.4239   -1.7677   22.2230 N   0  0  0  0  0  0  0  0  0  0  0  0
    9.9468   -4.5953   20.1709 C   0  0  0  0  0  0  0  0  0  0  0  0
   10.0366   -3.0590   23.9864 N   0  0  0  0  0  0  0  0  0  0  0  0
    7.1191   -7.3636   15.7739 C   0  0  0  0  0  0  0  0  0  0  0  0
    5.9612   -8.3203   17.2732 N   0  0  0  0  0  0  0  0  0  0  0  0
    8.5296   -5.9814   17.1841 C   0  0  0  0  0  0  0  0  0  0  0  0
    9.1527   -5.2118   16.2116 C   0  0  0  0  0  0  0  0  0  0  0  0
   10.3364   -3.8368   22.9255 O   0  0  0  0  0  0  0  0  0  0  0  0
    9.6947   -4.8407   18.8534 C   0  0  0  0  0  0  0  0  0  0  0  0
    9.1596    1.7042   24.1381 C   0  0  0  0  0  0  0  0  0  0  0  0
   11.0456   -2.9774   18.2694 N   0  0  0  0  0  0  0  0  0  0  0  0
   10.4788   -3.0457   21.8593 C   0  0  0  0  0  0  0  0  0  0  0  0
    8.8693   -5.8099   18.4657 N   0  0  0  0  0  0  0  0  0  0  0  0
    8.9892   -0.7926   25.4573 C   0  0  0  0  0  0  0  0  0  0  0  0
   10.5677   -3.4462   20.5323 C   0  0  0  0  0  0  0  0  0  0  0  0
  1  8  1  0
  1 12  4  0
  1 14  4  0
  2  3  4  0
  2 18  4  0
  3 20  4  0
  3 22  4  0
  4 11  4  0
  4 21  4  0
  5  9  4  0
  5 16  4  0
  6 15  4  0
  6 16  4  0
  7 22  4  0
  7 26  4  0
  8 10  4  0
  8 25  4  0
  9 15  4  0
  9 17  1  0
 10 21  4  0
 11 25  4  0
 12 23  4  0
 13 20  4  0
 13 26  4  0
 14 19  4  0
 17 18  4  0
 17 24  4  0
 19 23  4  0
 20 24  4  0
 23 26  1  0
M  END
$$$$

 Created by Python create_sdf_string function

 26 30  0  0  0  0  0  0  0  0999 V2000
   10.0084   -1.8019   23.4945 C   0  0  0  0  0  0  0  0  0  0  0  0
   10.0005   -4.2520   16.5631 C   0  0  0  0  0  0  0  0  0  0  0  0
   10.2759   -4.0036   17.8845 C   0  0  0  0  0  0  0  0  0  0  0  0
    8.5652    1.5478   25.3778 N   0  0  0  0  0  0  0  0  0  0  0  0
    6.8048   -7.5457   17.8752 C   0  0  0  0  0  0  0  0  0  0  0  0
    6.1721   -8.2186   15.9886 N   0  0  0  0  0  0  0  0  0  0  0  0
   11.1764   -2.6600   19.5604 C   0  0  0  0  0  0  0  0  0  0  0  0
    9.5491   -0.6380   24.1912 C   0  0  0  0  0  0  0  0  0  0  0  0
    7.5337   -6.9256   16.9519 C   0  0  0  0  0  0  0  0  0  0  0  0
    9.6782    0.5671   23.5143 C   0  0  0  0  0  0  0  0  0  0  0  0
    8.4532    0.3482   26.0821 C   0  0  0  0  0  0  0  0  0  0  0  0
   10.4239   -1.7677   22.2230 N   0  0  0  0  0  0  0  0  0  0  0  0
    9.9468   -4.5953   20.1709 C   0  0  0  0  0  0  0  0  0  0  0  0
   10.0366   -3.0590   23.9864 N   0  0  0  0  0  0  0  0  0  0  0  0
    7.1191   -7.3636   15.7739 C   0  0  0  0  0  0  0  0  0  0  0  0
    5.9612   -8.3203   17.2732 N   0  0  0  0  0  0  0  0  0  0  0  0
    8.5296   -5.9814   17.1841 C   0  0  0  0  0  0  0  0  0  0  0  0
    9.1527   -5.2118   16.2116 C   0  0  0  0  0  0  0  0  0  0  0  0
   10.3364   -3.8368   22.9255 O   0  0  0  0  0  0  0  0  0  0  0  0
    9.6947   -4.8407   18.8534 C   0  0  0  0  0  0  0  0  0  0  0  0
    9.1596    1.7042   24.1381 C   0  0  0  0  0  0  0  0  0  0  0  0
   11.0456   -2.9774   18.2694 N   0  0  0  0  0  0  0  0  0  0  0  0
   10.4788   -3.0457   21.8593 C   0  0  0  0  0  0  0  0  0  0  0  0
    8.8693   -5.8099   18.4657 N   0  0  0  0  0  0  0  0  0  0  0  0
    8.9892   -0.7926   25.4573 C   0  0  0  0  0  0  0  0  0  0  0  0
   10.5677   -3.4462   20.5323 C   0  0  0  0  0  0  0  0  0  0  0  0
  1  8  1  0
  1 12  4  0
  1 14  4  0
  2  3  4  0
  2 18  4  0
  3 20  4  0
  3 22  4  0
  4 11  4  0
  4 21  4  0
  5  9  4  0
  5 16  4  0
  6 15  4  0
  6 16  4  0
  7 22  4  0
  7 26  4  0
  8 10  4  0
  8 25  4  0
  9 15  4  0
  9 17  1  0
 10 21  4  0
 11 25  4  0
 12 23  4  0
 13 20  4  0
 13 26  4  0
 14 19  4  0
 17 18  4  0
 17 24  4  0
 19 23  4  0
 20 24  4  0
 23 26  1  0
M  END
$$$$

 Created by Python create_sdf_string function

 26 30  0  0  0  0  0  0  0  0999 V2000
   10.0084   -1.8019   23.4945 C   0  0  0  0  0  0  0  0  0  0  0  0
   10.0005   -4.2520   16.5631 C   0  0  0  0  0  0  0  0  0  0  0  0
   10.2759   -4.0036   17.8845 C   0  0  0  0  0  0  0  0  0  0  0  0
    8.5652    1.5478   25.3778 N   0  0  0  0  0  0  0  0  0  0  0  0
    6.8048   -7.5457   17.8752 C   0  0  0  0  0  0  0  0  0  0  0  0
    6.1721   -8.2186   15.9886 N   0  0  0  0  0  0  0  0  0  0  0  0
   11.1764   -2.6600   19.5604 C   0  0  0  0  0  0  0  0  0  0  0  0
    9.5491   -0.6380   24.1912 C   0  0  0  0  0  0  0  0  0  0  0  0
    7.5337   -6.9256   16.9519 C   0  0  0  0  0  0  0  0  0  0  0  0
    9.6782    0.5671   23.5143 C   0  0  0  0  0  0  0  0  0  0  0  0
    8.4532    0.3482   26.0821 C   0  0  0  0  0  0  0  0  0  0  0  0
   10.4239   -1.7677   22.2230 N   0  0  0  0  0  0  0  0  0  0  0  0
    9.9468   -4.5953   20.1709 C   0  0  0  0  0  0  0  0  0  0  0  0
   10.0366   -3.0590   23.9864 N   0  0  0  0  0  0  0  0  0  0  0  0
    7.1191   -7.3636   15.7739 C   0  0  0  0  0  0  0  0  0  0  0  0
    5.9612   -8.3203   17.2732 N   0  0  0  0  0  0  0  0  0  0  0  0
    8.5296   -5.9814   17.1841 C   0  0  0  0  0  0  0  0  0  0  0  0
    9.1527   -5.2118   16.2116 C   0  0  0  0  0  0  0  0  0  0  0  0
   10.3364   -3.8368   22.9255 O   0  0  0  0  0  0  0  0  0  0  0  0
    9.6947   -4.8407   18.8534 C   0  0  0  0  0  0  0  0  0  0  0  0
    9.1596    1.7042   24.1381 C   0  0  0  0  0  0  0  0  0  0  0  0
   11.0456   -2.9774   18.2694 N   0  0  0  0  0  0  0  0  0  0  0  0
   10.4788   -3.0457   21.8593 C   0  0  0  0  0  0  0  0  0  0  0  0
    8.8693   -5.8099   18.4657 N   0  0  0  0  0  0  0  0  0  0  0  0
    8.9892   -0.7926   25.4573 C   0  0  0  0  0  0  0  0  0  0  0  0
   10.5677   -3.4462   20.5323 C   0  0  0  0  0  0  0  0  0  0  0  0
  1  8  1  0
  1 12  4  0
  1 14  4  0
  2  3  4  0
  2 18  4  0
  3 20  4  0
  3 22  4  0
  4 11  4  0
  4 21  4  0
  5  9  4  0
  5 16  4  0
  6 15  4  0
  6 16  4  0
  7 22  4  0
  7 26  4  0
  8 10  4  0
  8 25  4  0
  9 15  4  0
  9 17  1  0
 10 21  4  0
 11 25  4  0
 12 23  4  0
 13 20  4  0
 13 26  4  0
 14 19  4  0
 17 18  4  0
 17 24  4  0
 19 23  4  0
 20 24  4  0
 23 26  1  0
M  END
$$$$

 Created by Python create_sdf_string function

 26 30  0  0  0  0  0  0  0  0999 V2000
   10.0084   -1.8019   23.4945 C   0  0  0  0  0  0  0  0  0  0  0  0
   10.0005   -4.2520   16.5631 C   0  0  0  0  0  0  0  0  0  0  0  0
   10.2759   -4.0036   17.8845 C   0  0  0  0  0  0  0  0  0  0  0  0
    8.5652    1.5478   25.3778 N   0  0  0  0  0  0  0  0  0  0  0  0
    6.8048   -7.5457   17.8752 C   0  0  0  0  0  0  0  0  0  0  0  0
    6.1721   -8.2186   15.9886 N   0  0  0  0  0  0  0  0  0  0  0  0
   11.1764   -2.6600   19.5604 C   0  0  0  0  0  0  0  0  0  0  0  0
    9.5491   -0.6380   24.1912 C   0  0  0  0  0  0  0  0  0  0  0  0
    7.5337   -6.9256   16.9519 C   0  0  0  0  0  0  0  0  0  0  0  0
    9.6782    0.5671   23.5143 C   0  0  0  0  0  0  0  0  0  0  0  0
    8.4532    0.3482   26.0821 C   0  0  0  0  0  0  0  0  0  0  0  0
   10.4239   -1.7677   22.2230 N   0  0  0  0  0  0  0  0  0  0  0  0
    9.9468   -4.5953   20.1709 C   0  0  0  0  0  0  0  0  0  0  0  0
   10.0366   -3.0590   23.9864 N   0  0  0  0  0  0  0  0  0  0  0  0
    7.1191   -7.3636   15.7739 C   0  0  0  0  0  0  0  0  0  0  0  0
    5.9612   -8.3203   17.2732 N   0  0  0  0  0  0  0  0  0  0  0  0
    8.5296   -5.9814   17.1841 C   0  0  0  0  0  0  0  0  0  0  0  0
    9.1527   -5.2118   16.2116 C   0  0  0  0  0  0  0  0  0  0  0  0
   10.3364   -3.8368   22.9255 O   0  0  0  0  0  0  0  0  0  0  0  0
    9.6947   -4.8407   18.8534 C   0  0  0  0  0  0  0  0  0  0  0  0
    9.1596    1.7042   24.1381 C   0  0  0  0  0  0  0  0  0  0  0  0
   11.0456   -2.9774   18.2694 N   0  0  0  0  0  0  0  0  0  0  0  0
   10.4788   -3.0457   21.8593 C   0  0  0  0  0  0  0  0  0  0  0  0
    8.8693   -5.8099   18.4657 N   0  0  0  0  0  0  0  0  0  0  0  0
    8.9892   -0.7926   25.4573 C   0  0  0  0  0  0  0  0  0  0  0  0
   10.5677   -3.4462   20.5323 C   0  0  0  0  0  0  0  0  0  0  0  0
  1  8  1  0
  1 12  4  0
  1 14  4  0
  2  3  4  0
  2 18  4  0
  3 20  4  0
  3 22  4  0
  4 11  4  0
  4 21  4  0
  5  9  4  0
  5 16  4  0
  6 15  4  0
  6 16  4  0
  7 22  4  0
  7 26  4  0
  8 10  4  0
  8 25  4  0
  9 15  4  0
  9 17  1  0
 10 21  4  0
 11 25  4  0
 12 23  4  0
 13 20  4  0
 13 26  4  0
 14 19  4  0
 17 18  4  0
 17 24  4  0
 19 23  4  0
 20 24  4  0
 23 26  1  0
M  END
$$$$

 Created by Python create_sdf_string function

 26 30  0  0  0  0  0  0  0  0999 V2000
   10.0084   -1.8019   23.4945 C   0  0  0  0  0  0  0  0  0  0  0  0
   10.0005   -4.2520   16.5631 C   0  0  0  0  0  0  0  0  0  0  0  0
   10.2759   -4.0036   17.8845 C   0  0  0  0  0  0  0  0  0  0  0  0
    8.5652    1.5478   25.3778 N   0  0  0  0  0  0  0  0  0  0  0  0
    6.8048   -7.5457   17.8752 C   0  0  0  0  0  0  0  0  0  0  0  0
    6.1721   -8.2186   15.9886 N   0  0  0  0  0  0  0  0  0  0  0  0
   11.1764   -2.6600   19.5604 C   0  0  0  0  0  0  0  0  0  0  0  0
    9.5491   -0.6380   24.1912 C   0  0  0  0  0  0  0  0  0  0  0  0
    7.5337   -6.9256   16.9519 C   0  0  0  0  0  0  0  0  0  0  0  0
    9.6782    0.5671   23.5143 C   0  0  0  0  0  0  0  0  0  0  0  0
    8.4532    0.3482   26.0821 C   0  0  0  0  0  0  0  0  0  0  0  0
   10.4239   -1.7677   22.2230 N   0  0  0  0  0  0  0  0  0  0  0  0
    9.9468   -4.5953   20.1709 C   0  0  0  0  0  0  0  0  0  0  0  0
   10.0366   -3.0590   23.9864 N   0  0  0  0  0  0  0  0  0  0  0  0
    7.1191   -7.3636   15.7739 C   0  0  0  0  0  0  0  0  0  0  0  0
    5.9612   -8.3203   17.2732 N   0  0  0  0  0  0  0  0  0  0  0  0
    8.5296   -5.9814   17.1841 C   0  0  0  0  0  0  0  0  0  0  0  0
    9.1527   -5.2118   16.2116 C   0  0  0  0  0  0  0  0  0  0  0  0
   10.3364   -3.8368   22.9255 O   0  0  0  0  0  0  0  0  0  0  0  0
    9.6947   -4.8407   18.8534 C   0  0  0  0  0  0  0  0  0  0  0  0
    9.1596    1.7042   24.1381 C   0  0  0  0  0  0  0  0  0  0  0  0
   11.0456   -2.9774   18.2694 N   0  0  0  0  0  0  0  0  0  0  0  0
   10.4788   -3.0457   21.8593 C   0  0  0  0  0  0  0  0  0  0  0  0
    8.8693   -5.8099   18.4657 N   0  0  0  0  0  0  0  0  0  0  0  0
    8.9892   -0.7926   25.4573 C   0  0  0  0  0  0  0  0  0  0  0  0
   10.5677   -3.4462   20.5323 C   0  0  0  0  0  0  0  0  0  0  0  0
  1  8  1  0
  1 12  4  0
  1 14  4  0
  2  3  4  0
  2 18  4  0
  3 20  4  0
  3 22  4  0
  4 11  4  0
  4 21  4  0
  5  9  4  0
  5 16  4  0
  6 15  4  0
  6 16  4  0
  7 22  4  0
  7 26  4  0
  8 10  4  0
  8 25  4  0
  9 15  4  0
  9 17  1  0
 10 21  4  0
 11 25  4  0
 12 23  4  0
 13 20  4  0
 13 26  4  0
 14 19  4  0
 17 18  4  0
 17 24  4  0
 19 23  4  0
 20 24  4  0
 23 26  1  0
M  END
$$$$

 Created by Python create_sdf_string function

 26 30  0  0  0  0  0  0  0  0999 V2000
   10.0084   -1.8019   23.4945 C   0  0  0  0  0  0  0  0  0  0  0  0
   10.0005   -4.2520   16.5631 C   0  0  0  0  0  0  0  0  0  0  0  0
   10.2759   -4.0036   17.8845 C   0  0  0  0  0  0  0  0  0  0  0  0
    8.5652    1.5478   25.3778 N   0  0  0  0  0  0  0  0  0  0  0  0
    6.8048   -7.5457   17.8752 C   0  0  0  0  0  0  0  0  0  0  0  0
    6.1721   -8.2186   15.9886 N   0  0  0  0  0  0  0  0  0  0  0  0
   11.1764   -2.6600   19.5604 C   0  0  0  0  0  0  0  0  0  0  0  0
    9.5491   -0.6380   24.1912 C   0  0  0  0  0  0  0  0  0  0  0  0
    7.5337   -6.9256   16.9519 C   0  0  0  0  0  0  0  0  0  0  0  0
    9.6782    0.5671   23.5143 C   0  0  0  0  0  0  0  0  0  0  0  0
    8.4532    0.3482   26.0821 C   0  0  0  0  0  0  0  0  0  0  0  0
   10.4239   -1.7677   22.2230 N   0  0  0  0  0  0  0  0  0  0  0  0
    9.9468   -4.5953   20.1709 C   0  0  0  0  0  0  0  0  0  0  0  0
   10.0366   -3.0590   23.9864 N   0  0  0  0  0  0  0  0  0  0  0  0
    7.1191   -7.3636   15.7739 C   0  0  0  0  0  0  0  0  0  0  0  0
    5.9612   -8.3203   17.2732 N   0  0  0  0  0  0  0  0  0  0  0  0
    8.5296   -5.9814   17.1841 C   0  0  0  0  0  0  0  0  0  0  0  0
    9.1527   -5.2118   16.2116 C   0  0  0  0  0  0  0  0  0  0  0  0
   10.3364   -3.8368   22.9255 O   0  0  0  0  0  0  0  0  0  0  0  0
    9.6947   -4.8407   18.8534 C   0  0  0  0  0  0  0  0  0  0  0  0
    9.1596    1.7042   24.1381 C   0  0  0  0  0  0  0  0  0  0  0  0
   11.0456   -2.9774   18.2694 N   0  0  0  0  0  0  0  0  0  0  0  0
   10.4788   -3.0457   21.8593 C   0  0  0  0  0  0  0  0  0  0  0  0
    8.8693   -5.8099   18.4657 N   0  0  0  0  0  0  0  0  0  0  0  0
    8.9892   -0.7926   25.4573 C   0  0  0  0  0  0  0  0  0  0  0  0
   10.5677   -3.4462   20.5323 C   0  0  0  0  0  0  0  0  0  0  0  0
  1  8  1  0
  1 12  4  0
  1 14  4  0
  2  3  4  0
  2 18  4  0
  3 20  4  0
  3 22  4  0
  4 11  4  0
  4 21  4  0
  5  9  4  0
  5 16  4  0
  6 15  4  0
  6 16  4  0
  7 22  4  0
  7 26  4  0
  8 10  4  0
  8 25  4  0
  9 15  4  0
  9 17  1  0
 10 21  4  0
 11 25  4  0
 12 23  4  0
 13 20  4  0
 13 26  4  0
 14 19  4  0
 17 18  4  0
 17 24  4  0
 19 23  4  0
 20 24  4  0
 23 26  1  0
M  END
$$$$

 Created by Python create_sdf_string function

 26 30  0  0  0  0  0  0  0  0999 V2000
   10.0084   -1.8019   23.4945 C   0  0  0  0  0  0  0  0  0  0  0  0
   10.0005   -4.2520   16.5631 C   0  0  0  0  0  0  0  0  0  0  0  0
   10.2759   -4.0036   17.8845 C   0  0  0  0  0  0  0  0  0  0  0  0
    8.5652    1.5478   25.3778 N   0  0  0  0  0  0  0  0  0  0  0  0
    6.8048   -7.5457   17.8752 C   0  0  0  0  0  0  0  0  0  0  0  0
    6.1721   -8.2186   15.9886 N   0  0  0  0  0  0  0  0  0  0  0  0
   11.1764   -2.6600   19.5604 C   0  0  0  0  0  0  0  0  0  0  0  0
    9.5491   -0.6380   24.1912 C   0  0  0  0  0  0  0  0  0  0  0  0
    7.5337   -6.9256   16.9519 C   0  0  0  0  0  0  0  0  0  0  0  0
    9.6782    0.5671   23.5143 C   0  0  0  0  0  0  0  0  0  0  0  0
    8.4532    0.3482   26.0821 C   0  0  0  0  0  0  0  0  0  0  0  0
   10.4239   -1.7677   22.2230 N   0  0  0  0  0  0  0  0  0  0  0  0
    9.9468   -4.5953   20.1709 C   0  0  0  0  0  0  0  0  0  0  0  0
   10.0366   -3.0590   23.9864 N   0  0  0  0  0  0  0  0  0  0  0  0
    7.1191   -7.3636   15.7739 C   0  0  0  0  0  0  0  0  0  0  0  0
    5.9612   -8.3203   17.2732 N   0  0  0  0  0  0  0  0  0  0  0  0
    8.5296   -5.9814   17.1841 C   0  0  0  0  0  0  0  0  0  0  0  0
    9.1527   -5.2118   16.2116 C   0  0  0  0  0  0  0  0  0  0  0  0
   10.3364   -3.8368   22.9255 O   0  0  0  0  0  0  0  0  0  0  0  0
    9.6947   -4.8407   18.8534 C   0  0  0  0  0  0  0  0  0  0  0  0
    9.1596    1.7042   24.1381 C   0  0  0  0  0  0  0  0  0  0  0  0
   11.0456   -2.9774   18.2694 N   0  0  0  0  0  0  0  0  0  0  0  0
   10.4788   -3.0457   21.8593 C   0  0  0  0  0  0  0  0  0  0  0  0
    8.8693   -5.8099   18.4657 N   0  0  0  0  0  0  0  0  0  0  0  0
    8.9892   -0.7926   25.4573 C   0  0  0  0  0  0  0  0  0  0  0  0
   10.5677   -3.4462   20.5323 C   0  0  0  0  0  0  0  0  0  0  0  0
  1  8  1  0
  1 12  4  0
  1 14  4  0
  2  3  4  0
  2 18  4  0
  3 20  4  0
  3 22  4  0
  4 11  4  0
  4 21  4  0
  5  9  4  0
  5 16  4  0
  6 15  4  0
  6 16  4  0
  7 22  4  0
  7 26  4  0
  8 10  4  0
  8 25  4  0
  9 15  4  0
  9 17  1  0
 10 21  4  0
 11 25  4  0
 12 23  4  0
 13 20  4  0
 13 26  4  0
 14 19  4  0
 17 18  4  0
 17 24  4  0
 19 23  4  0
 20 24  4  0
 23 26  1  0
M  END
$$$$

 Created by Python create_sdf_string function

 26 30  0  0  0  0  0  0  0  0999 V2000
   10.0084   -1.8019   23.4945 C   0  0  0  0  0  0  0  0  0  0  0  0
   10.0005   -4.2520   16.5631 C   0  0  0  0  0  0  0  0  0  0  0  0
   10.2759   -4.0036   17.8845 C   0  0  0  0  0  0  0  0  0  0  0  0
    8.5652    1.5478   25.3778 N   0  0  0  0  0  0  0  0  0  0  0  0
    6.8048   -7.5457   17.8752 C   0  0  0  0  0  0  0  0  0  0  0  0
    6.1721   -8.2186   15.9886 N   0  0  0  0  0  0  0  0  0  0  0  0
   11.1764   -2.6600   19.5604 C   0  0  0  0  0  0  0  0  0  0  0  0
    9.5491   -0.6380   24.1912 C   0  0  0  0  0  0  0  0  0  0  0  0
    7.5337   -6.9256   16.9519 C   0  0  0  0  0  0  0  0  0  0  0  0
    9.6782    0.5671   23.5143 C   0  0  0  0  0  0  0  0  0  0  0  0
    8.4532    0.3482   26.0821 C   0  0  0  0  0  0  0  0  0  0  0  0
   10.4239   -1.7677   22.2230 N   0  0  0  0  0  0  0  0  0  0  0  0
    9.9468   -4.5953   20.1709 C   0  0  0  0  0  0  0  0  0  0  0  0
   10.0366   -3.0590   23.9864 N   0  0  0  0  0  0  0  0  0  0  0  0
    7.1191   -7.3636   15.7739 C   0  0  0  0  0  0  0  0  0  0  0  0
    5.9612   -8.3203   17.2732 N   0  0  0  0  0  0  0  0  0  0  0  0
    8.5296   -5.9814   17.1841 C   0  0  0  0  0  0  0  0  0  0  0  0
    9.1527   -5.2118   16.2116 C   0  0  0  0  0  0  0  0  0  0  0  0
   10.3364   -3.8368   22.9255 O   0  0  0  0  0  0  0  0  0  0  0  0
    9.6947   -4.8407   18.8534 C   0  0  0  0  0  0  0  0  0  0  0  0
    9.1596    1.7042   24.1381 C   0  0  0  0  0  0  0  0  0  0  0  0
   11.0456   -2.9774   18.2694 N   0  0  0  0  0  0  0  0  0  0  0  0
   10.4788   -3.0457   21.8593 C   0  0  0  0  0  0  0  0  0  0  0  0
    8.8693   -5.8099   18.4657 N   0  0  0  0  0  0  0  0  0  0  0  0
    8.9892   -0.7926   25.4573 C   0  0  0  0  0  0  0  0  0  0  0  0
   10.5677   -3.4462   20.5323 C   0  0  0  0  0  0  0  0  0  0  0  0
  1  8  1  0
  1 12  4  0
  1 14  4  0
  2  3  4  0
  2 18  4  0
  3 20  4  0
  3 22  4  0
  4 11  4  0
  4 21  4  0
  5  9  4  0
  5 16  4  0
  6 15  4  0
  6 16  4  0
  7 22  4  0
  7 26  4  0
  8 10  4  0
  8 25  4  0
  9 15  4  0
  9 17  1  0
 10 21  4  0
 11 25  4  0
 12 23  4  0
 13 20  4  0
 13 26  4  0
 14 19  4  0
 17 18  4  0
 17 24  4  0
 19 23  4  0
 20 24  4  0
 23 26  1  0
M  END
$$$$

 Created by Python create_sdf_string function

 26 30  0  0  0  0  0  0  0  0999 V2000
   10.0084   -1.8019   23.4945 C   0  0  0  0  0  0  0  0  0  0  0  0
   10.0005   -4.2520   16.5631 C   0  0  0  0  0  0  0  0  0  0  0  0
   10.2759   -4.0036   17.8845 C   0  0  0  0  0  0  0  0  0  0  0  0
    8.5652    1.5478   25.3778 N   0  0  0  0  0  0  0  0  0  0  0  0
    6.8048   -7.5457   17.8752 C   0  0  0  0  0  0  0  0  0  0  0  0
    6.1721   -8.2186   15.9886 N   0  0  0  0  0  0  0  0  0  0  0  0
   11.1764   -2.6600   19.5604 C   0  0  0  0  0  0  0  0  0  0  0  0
    9.5491   -0.6380   24.1912 C   0  0  0  0  0  0  0  0  0  0  0  0
    7.5337   -6.9256   16.9519 C   0  0  0  0  0  0  0  0  0  0  0  0
    9.6782    0.5671   23.5143 C   0  0  0  0  0  0  0  0  0  0  0  0
    8.4532    0.3482   26.0821 C   0  0  0  0  0  0  0  0  0  0  0  0
   10.4239   -1.7677   22.2230 N   0  0  0  0  0  0  0  0  0  0  0  0
    9.9468   -4.5953   20.1709 C   0  0  0  0  0  0  0  0  0  0  0  0
   10.0366   -3.0590   23.9864 N   0  0  0  0  0  0  0  0  0  0  0  0
    7.1191   -7.3636   15.7739 C   0  0  0  0  0  0  0  0  0  0  0  0
    5.9612   -8.3203   17.2732 N   0  0  0  0  0  0  0  0  0  0  0  0
    8.5296   -5.9814   17.1841 C   0  0  0  0  0  0  0  0  0  0  0  0
    9.1527   -5.2118   16.2116 C   0  0  0  0  0  0  0  0  0  0  0  0
   10.3364   -3.8368   22.9255 O   0  0  0  0  0  0  0  0  0  0  0  0
    9.6947   -4.8407   18.8534 C   0  0  0  0  0  0  0  0  0  0  0  0
    9.1596    1.7042   24.1381 C   0  0  0  0  0  0  0  0  0  0  0  0
   11.0456   -2.9774   18.2694 N   0  0  0  0  0  0  0  0  0  0  0  0
   10.4788   -3.0457   21.8593 C   0  0  0  0  0  0  0  0  0  0  0  0
    8.8693   -5.8099   18.4657 N   0  0  0  0  0  0  0  0  0  0  0  0
    8.9892   -0.7926   25.4573 C   0  0  0  0  0  0  0  0  0  0  0  0
   10.5677   -3.4462   20.5323 C   0  0  0  0  0  0  0  0  0  0  0  0
  1  8  1  0
  1 12  4  0
  1 14  4  0
  2  3  4  0
  2 18  4  0
  3 20  4  0
  3 22  4  0
  4 11  4  0
  4 21  4  0
  5  9  4  0
  5 16  4  0
  6 15  4  0
  6 16  4  0
  7 22  4  0
  7 26  4  0
  8 10  4  0
  8 25  4  0
  9 15  4  0
  9 17  1  0
 10 21  4  0
 11 25  4  0
 12 23  4  0
 13 20  4  0
 13 26  4  0
 14 19  4  0
 17 18  4  0
 17 24  4  0
 19 23  4  0
 20 24  4  0
 23 26  1  0
M  END
$$$$

 Created by Python create_sdf_string function

 26 30  0  0  0  0  0  0  0  0999 V2000
   10.0084   -1.8019   23.4945 C   0  0  0  0  0  0  0  0  0  0  0  0
   10.0005   -4.2520   16.5631 C   0  0  0  0  0  0  0  0  0  0  0  0
   10.2759   -4.0036   17.8845 C   0  0  0  0  0  0  0  0  0  0  0  0
    8.5652    1.5478   25.3778 N   0  0  0  0  0  0  0  0  0  0  0  0
    6.8048   -7.5457   17.8752 C   0  0  0  0  0  0  0  0  0  0  0  0
    6.1721   -8.2186   15.9886 N   0  0  0  0  0  0  0  0  0  0  0  0
   11.1764   -2.6600   19.5604 C   0  0  0  0  0  0  0  0  0  0  0  0
    9.5491   -0.6380   24.1912 C   0  0  0  0  0  0  0  0  0  0  0  0
    7.5337   -6.9256   16.9519 C   0  0  0  0  0  0  0  0  0  0  0  0
    9.6782    0.5671   23.5143 C   0  0  0  0  0  0  0  0  0  0  0  0
    8.4532    0.3482   26.0821 C   0  0  0  0  0  0  0  0  0  0  0  0
   10.4239   -1.7677   22.2230 N   0  0  0  0  0  0  0  0  0  0  0  0
    9.9468   -4.5953   20.1709 C   0  0  0  0  0  0  0  0  0  0  0  0
   10.0366   -3.0590   23.9864 N   0  0  0  0  0  0  0  0  0  0  0  0
    7.1191   -7.3636   15.7739 C   0  0  0  0  0  0  0  0  0  0  0  0
    5.9612   -8.3203   17.2732 N   0  0  0  0  0  0  0  0  0  0  0  0
    8.5296   -5.9814   17.1841 C   0  0  0  0  0  0  0  0  0  0  0  0
    9.1527   -5.2118   16.2116 C   0  0  0  0  0  0  0  0  0  0  0  0
   10.3364   -3.8368   22.9255 O   0  0  0  0  0  0  0  0  0  0  0  0
    9.6947   -4.8407   18.8534 C   0  0  0  0  0  0  0  0  0  0  0  0
    9.1596    1.7042   24.1381 C   0  0  0  0  0  0  0  0  0  0  0  0
   11.0456   -2.9774   18.2694 N   0  0  0  0  0  0  0  0  0  0  0  0
   10.4788   -3.0457   21.8593 C   0  0  0  0  0  0  0  0  0  0  0  0
    8.8693   -5.8099   18.4657 N   0  0  0  0  0  0  0  0  0  0  0  0
    8.9892   -0.7926   25.4573 C   0  0  0  0  0  0  0  0  0  0  0  0
   10.5677   -3.4462   20.5323 C   0  0  0  0  0  0  0  0  0  0  0  0
  1  8  1  0
  1 12  4  0
  1 14  4  0
  2  3  4  0
  2 18  4  0
  3 20  4  0
  3 22  4  0
  4 11  4  0
  4 21  4  0
  5  9  4  0
  5 16  4  0
  6 15  4  0
  6 16  4  0
  7 22  4  0
  7 26  4  0
  8 10  4  0
  8 25  4  0
  9 15  4  0
  9 17  1  0
 10 21  4  0
 11 25  4  0
 12 23  4  0
 13 20  4  0
 13 26  4  0
 14 19  4  0
 17 18  4  0
 17 24  4  0
 19 23  4  0
 20 24  4  0
 23 26  1  0
M  END
$$$$

 Created by Python create_sdf_string function

 26 30  0  0  0  0  0  0  0  0999 V2000
   10.0084   -1.8019   23.4945 C   0  0  0  0  0  0  0  0  0  0  0  0
   10.0005   -4.2520   16.5631 C   0  0  0  0  0  0  0  0  0  0  0  0
   10.2759   -4.0036   17.8845 C   0  0  0  0  0  0  0  0  0  0  0  0
    8.5652    1.5478   25.3778 N   0  0  0  0  0  0  0  0  0  0  0  0
    6.8048   -7.5457   17.8752 C   0  0  0  0  0  0  0  0  0  0  0  0
    6.1721   -8.2186   15.9886 N   0  0  0  0  0  0  0  0  0  0  0  0
   11.1764   -2.6600   19.5604 C   0  0  0  0  0  0  0  0  0  0  0  0
    9.5491   -0.6380   24.1912 C   0  0  0  0  0  0  0  0  0  0  0  0
    7.5337   -6.9256   16.9519 C   0  0  0  0  0  0  0  0  0  0  0  0
    9.6782    0.5671   23.5143 C   0  0  0  0  0  0  0  0  0  0  0  0
    8.4532    0.3482   26.0821 C   0  0  0  0  0  0  0  0  0  0  0  0
   10.4239   -1.7677   22.2230 N   0  0  0  0  0  0  0  0  0  0  0  0
    9.9468   -4.5953   20.1709 C   0  0  0  0  0  0  0  0  0  0  0  0
   10.0366   -3.0590   23.9864 N   0  0  0  0  0  0  0  0  0  0  0  0
    7.1191   -7.3636   15.7739 C   0  0  0  0  0  0  0  0  0  0  0  0
    5.9612   -8.3203   17.2732 N   0  0  0  0  0  0  0  0  0  0  0  0
    8.5296   -5.9814   17.1841 C   0  0  0  0  0  0  0  0  0  0  0  0
    9.1527   -5.2118   16.2116 C   0  0  0  0  0  0  0  0  0  0  0  0
   10.3364   -3.8368   22.9255 O   0  0  0  0  0  0  0  0  0  0  0  0
    9.6947   -4.8407   18.8534 C   0  0  0  0  0  0  0  0  0  0  0  0
    9.1596    1.7042   24.1381 C   0  0  0  0  0  0  0  0  0  0  0  0
   11.0456   -2.9774   18.2694 N   0  0  0  0  0  0  0  0  0  0  0  0
   10.4788   -3.0457   21.8593 C   0  0  0  0  0  0  0  0  0  0  0  0
    8.8693   -5.8099   18.4657 N   0  0  0  0  0  0  0  0  0  0  0  0
    8.9892   -0.7926   25.4573 C   0  0  0  0  0  0  0  0  0  0  0  0
   10.5677   -3.4462   20.5323 C   0  0  0  0  0  0  0  0  0  0  0  0
  1  8  1  0
  1 12  4  0
  1 14  4  0
  2  3  4  0
  2 18  4  0
  3 20  4  0
  3 22  4  0
  4 11  4  0
  4 21  4  0
  5  9  4  0
  5 16  4  0
  6 15  4  0
  6 16  4  0
  7 22  4  0
  7 26  4  0
  8 10  4  0
  8 25  4  0
  9 15  4  0
  9 17  1  0
 10 21  4  0
 11 25  4  0
 12 23  4  0
 13 20  4  0
 13 26  4  0
 14 19  4  0
 17 18  4  0
 17 24  4  0
 19 23  4  0
 20 24  4  0
 23 26  1  0
M  END
$$$$

 Created by Python create_sdf_string function

 26 30  0  0  0  0  0  0  0  0999 V2000
   10.0084   -1.8019   23.4945 C   0  0  0  0  0  0  0  0  0  0  0  0
   10.0005   -4.2520   16.5631 C   0  0  0  0  0  0  0  0  0  0  0  0
   10.2759   -4.0036   17.8845 C   0  0  0  0  0  0  0  0  0  0  0  0
    8.5652    1.5478   25.3778 N   0  0  0  0  0  0  0  0  0  0  0  0
    6.8048   -7.5457   17.8752 C   0  0  0  0  0  0  0  0  0  0  0  0
    6.1721   -8.2186   15.9886 N   0  0  0  0  0  0  0  0  0  0  0  0
   11.1764   -2.6600   19.5604 C   0  0  0  0  0  0  0  0  0  0  0  0
    9.5491   -0.6380   24.1912 C   0  0  0  0  0  0  0  0  0  0  0  0
    7.5337   -6.9256   16.9519 C   0  0  0  0  0  0  0  0  0  0  0  0
    9.6782    0.5671   23.5143 C   0  0  0  0  0  0  0  0  0  0  0  0
    8.4532    0.3482   26.0821 C   0  0  0  0  0  0  0  0  0  0  0  0
   10.4239   -1.7677   22.2230 N   0  0  0  0  0  0  0  0  0  0  0  0
    9.9468   -4.5953   20.1709 C   0  0  0  0  0  0  0  0  0  0  0  0
   10.0366   -3.0590   23.9864 N   0  0  0  0  0  0  0  0  0  0  0  0
    7.1191   -7.3636   15.7739 C   0  0  0  0  0  0  0  0  0  0  0  0
    5.9612   -8.3203   17.2732 N   0  0  0  0  0  0  0  0  0  0  0  0
    8.5296   -5.9814   17.1841 C   0  0  0  0  0  0  0  0  0  0  0  0
    9.1527   -5.2118   16.2116 C   0  0  0  0  0  0  0  0  0  0  0  0
   10.3364   -3.8368   22.9255 O   0  0  0  0  0  0  0  0  0  0  0  0
    9.6947   -4.8407   18.8534 C   0  0  0  0  0  0  0  0  0  0  0  0
    9.1596    1.7042   24.1381 C   0  0  0  0  0  0  0  0  0  0  0  0
   11.0456   -2.9774   18.2694 N   0  0  0  0  0  0  0  0  0  0  0  0
   10.4788   -3.0457   21.8593 C   0  0  0  0  0  0  0  0  0  0  0  0
    8.8693   -5.8099   18.4657 N   0  0  0  0  0  0  0  0  0  0  0  0
    8.9892   -0.7926   25.4573 C   0  0  0  0  0  0  0  0  0  0  0  0
   10.5677   -3.4462   20.5323 C   0  0  0  0  0  0  0  0  0  0  0  0
  1  8  1  0
  1 12  4  0
  1 14  4  0
  2  3  4  0
  2 18  4  0
  3 20  4  0
  3 22  4  0
  4 11  4  0
  4 21  4  0
  5  9  4  0
  5 16  4  0
  6 15  4  0
  6 16  4  0
  7 22  4  0
  7 26  4  0
  8 10  4  0
  8 25  4  0
  9 15  4  0
  9 17  1  0
 10 21  4  0
 11 25  4  0
 12 23  4  0
 13 20  4  0
 13 26  4  0
 14 19  4  0
 17 18  4  0
 17 24  4  0
 19 23  4  0
 20 24  4  0
 23 26  1  0
M  END
$$$$

 Created by Python create_sdf_string function

 26 30  0  0  0  0  0  0  0  0999 V2000
   10.0084   -1.8019   23.4945 C   0  0  0  0  0  0  0  0  0  0  0  0
   10.0005   -4.2520   16.5631 C   0  0  0  0  0  0  0  0  0  0  0  0
   10.2759   -4.0036   17.8845 C   0  0  0  0  0  0  0  0  0  0  0  0
    8.5652    1.5478   25.3778 N   0  0  0  0  0  0  0  0  0  0  0  0
    6.8048   -7.5457   17.8752 C   0  0  0  0  0  0  0  0  0  0  0  0
    6.1721   -8.2186   15.9886 N   0  0  0  0  0  0  0  0  0  0  0  0
   11.1764   -2.6600   19.5604 C   0  0  0  0  0  0  0  0  0  0  0  0
    9.5491   -0.6380   24.1912 C   0  0  0  0  0  0  0  0  0  0  0  0
    7.5337   -6.9256   16.9519 C   0  0  0  0  0  0  0  0  0  0  0  0
    9.6782    0.5671   23.5143 C   0  0  0  0  0  0  0  0  0  0  0  0
    8.4532    0.3482   26.0821 C   0  0  0  0  0  0  0  0  0  0  0  0
   10.4239   -1.7677   22.2230 N   0  0  0  0  0  0  0  0  0  0  0  0
    9.9468   -4.5953   20.1709 C   0  0  0  0  0  0  0  0  0  0  0  0
   10.0366   -3.0590   23.9864 N   0  0  0  0  0  0  0  0  0  0  0  0
    7.1191   -7.3636   15.7739 C   0  0  0  0  0  0  0  0  0  0  0  0
    5.9612   -8.3203   17.2732 N   0  0  0  0  0  0  0  0  0  0  0  0
    8.5296   -5.9814   17.1841 C   0  0  0  0  0  0  0  0  0  0  0  0
    9.1527   -5.2118   16.2116 C   0  0  0  0  0  0  0  0  0  0  0  0
   10.3364   -3.8368   22.9255 O   0  0  0  0  0  0  0  0  0  0  0  0
    9.6947   -4.8407   18.8534 C   0  0  0  0  0  0  0  0  0  0  0  0
    9.1596    1.7042   24.1381 C   0  0  0  0  0  0  0  0  0  0  0  0
   11.0456   -2.9774   18.2694 N   0  0  0  0  0  0  0  0  0  0  0  0
   10.4788   -3.0457   21.8593 C   0  0  0  0  0  0  0  0  0  0  0  0
    8.8693   -5.8099   18.4657 N   0  0  0  0  0  0  0  0  0  0  0  0
    8.9892   -0.7926   25.4573 C   0  0  0  0  0  0  0  0  0  0  0  0
   10.5677   -3.4462   20.5323 C   0  0  0  0  0  0  0  0  0  0  0  0
  1  8  1  0
  1 12  4  0
  1 14  4  0
  2  3  4  0
  2 18  4  0
  3 20  4  0
  3 22  4  0
  4 11  4  0
  4 21  4  0
  5  9  4  0
  5 16  4  0
  6 15  4  0
  6 16  4  0
  7 22  4  0
  7 26  4  0
  8 10  4  0
  8 25  4  0
  9 15  4  0
  9 17  1  0
 10 21  4  0
 11 25  4  0
 12 23  4  0
 13 20  4  0
 13 26  4  0
 14 19  4  0
 17 18  4  0
 17 24  4  0
 19 23  4  0
 20 24  4  0
 23 26  1  0
M  END
$$$$

 Created by Python create_sdf_string function

 26 30  0  0  0  0  0  0  0  0999 V2000
   10.0084   -1.8019   23.4945 C   0  0  0  0  0  0  0  0  0  0  0  0
   10.0005   -4.2520   16.5631 C   0  0  0  0  0  0  0  0  0  0  0  0
   10.2759   -4.0036   17.8845 C   0  0  0  0  0  0  0  0  0  0  0  0
    8.5652    1.5478   25.3778 N   0  0  0  0  0  0  0  0  0  0  0  0
    6.8048   -7.5457   17.8752 C   0  0  0  0  0  0  0  0  0  0  0  0
    6.1721   -8.2186   15.9886 N   0  0  0  0  0  0  0  0  0  0  0  0
   11.1764   -2.6600   19.5604 C   0  0  0  0  0  0  0  0  0  0  0  0
    9.5491   -0.6380   24.1912 C   0  0  0  0  0  0  0  0  0  0  0  0
    7.5337   -6.9256   16.9519 C   0  0  0  0  0  0  0  0  0  0  0  0
    9.6782    0.5671   23.5143 C   0  0  0  0  0  0  0  0  0  0  0  0
    8.4532    0.3482   26.0821 C   0  0  0  0  0  0  0  0  0  0  0  0
   10.4239   -1.7677   22.2230 N   0  0  0  0  0  0  0  0  0  0  0  0
    9.9468   -4.5953   20.1709 C   0  0  0  0  0  0  0  0  0  0  0  0
   10.0366   -3.0590   23.9864 N   0  0  0  0  0  0  0  0  0  0  0  0
    7.1191   -7.3636   15.7739 C   0  0  0  0  0  0  0  0  0  0  0  0
    5.9612   -8.3203   17.2732 N   0  0  0  0  0  0  0  0  0  0  0  0
    8.5296   -5.9814   17.1841 C   0  0  0  0  0  0  0  0  0  0  0  0
    9.1527   -5.2118   16.2116 C   0  0  0  0  0  0  0  0  0  0  0  0
   10.3364   -3.8368   22.9255 O   0  0  0  0  0  0  0  0  0  0  0  0
    9.6947   -4.8407   18.8534 C   0  0  0  0  0  0  0  0  0  0  0  0
    9.1596    1.7042   24.1381 C   0  0  0  0  0  0  0  0  0  0  0  0
   11.0456   -2.9774   18.2694 N   0  0  0  0  0  0  0  0  0  0  0  0
   10.4788   -3.0457   21.8593 C   0  0  0  0  0  0  0  0  0  0  0  0
    8.8693   -5.8099   18.4657 N   0  0  0  0  0  0  0  0  0  0  0  0
    8.9892   -0.7926   25.4573 C   0  0  0  0  0  0  0  0  0  0  0  0
   10.5677   -3.4462   20.5323 C   0  0  0  0  0  0  0  0  0  0  0  0
  1  8  1  0
  1 12  4  0
  1 14  4  0
  2  3  4  0
  2 18  4  0
  3 20  4  0
  3 22  4  0
  4 11  4  0
  4 21  4  0
  5  9  4  0
  5 16  4  0
  6 15  4  0
  6 16  4  0
  7 22  4  0
  7 26  4  0
  8 10  4  0
  8 25  4  0
  9 15  4  0
  9 17  1  0
 10 21  4  0
 11 25  4  0
 12 23  4  0
 13 20  4  0
 13 26  4  0
 14 19  4  0
 17 18  4  0
 17 24  4  0
 19 23  4  0
 20 24  4  0
 23 26  1  0
M  END
$$$$

 Created by Python create_sdf_string function

 26 30  0  0  0  0  0  0  0  0999 V2000
   10.0084   -1.8019   23.4945 C   0  0  0  0  0  0  0  0  0  0  0  0
   10.0005   -4.2520   16.5631 C   0  0  0  0  0  0  0  0  0  0  0  0
   10.2759   -4.0036   17.8845 C   0  0  0  0  0  0  0  0  0  0  0  0
    8.5652    1.5478   25.3778 N   0  0  0  0  0  0  0  0  0  0  0  0
    6.8048   -7.5457   17.8752 C   0  0  0  0  0  0  0  0  0  0  0  0
    6.1721   -8.2186   15.9886 N   0  0  0  0  0  0  0  0  0  0  0  0
   11.1764   -2.6600   19.5604 C   0  0  0  0  0  0  0  0  0  0  0  0
    9.5491   -0.6380   24.1912 C   0  0  0  0  0  0  0  0  0  0  0  0
    7.5337   -6.9256   16.9519 C   0  0  0  0  0  0  0  0  0  0  0  0
    9.6782    0.5671   23.5143 C   0  0  0  0  0  0  0  0  0  0  0  0
    8.4532    0.3482   26.0821 C   0  0  0  0  0  0  0  0  0  0  0  0
   10.4239   -1.7677   22.2230 N   0  0  0  0  0  0  0  0  0  0  0  0
    9.9468   -4.5953   20.1709 C   0  0  0  0  0  0  0  0  0  0  0  0
   10.0366   -3.0590   23.9864 N   0  0  0  0  0  0  0  0  0  0  0  0
    7.1191   -7.3636   15.7739 C   0  0  0  0  0  0  0  0  0  0  0  0
    5.9612   -8.3203   17.2732 N   0  0  0  0  0  0  0  0  0  0  0  0
    8.5296   -5.9814   17.1841 C   0  0  0  0  0  0  0  0  0  0  0  0
    9.1527   -5.2118   16.2116 C   0  0  0  0  0  0  0  0  0  0  0  0
   10.3364   -3.8368   22.9255 O   0  0  0  0  0  0  0  0  0  0  0  0
    9.6947   -4.8407   18.8534 C   0  0  0  0  0  0  0  0  0  0  0  0
    9.1596    1.7042   24.1381 C   0  0  0  0  0  0  0  0  0  0  0  0
   11.0456   -2.9774   18.2694 N   0  0  0  0  0  0  0  0  0  0  0  0
   10.4788   -3.0457   21.8593 C   0  0  0  0  0  0  0  0  0  0  0  0
    8.8693   -5.8099   18.4657 N   0  0  0  0  0  0  0  0  0  0  0  0
    8.9892   -0.7926   25.4573 C   0  0  0  0  0  0  0  0  0  0  0  0
   10.5677   -3.4462   20.5323 C   0  0  0  0  0  0  0  0  0  0  0  0
  1  8  1  0
  1 12  4  0
  1 14  4  0
  2  3  4  0
  2 18  4  0
  3 20  4  0
  3 22  4  0
  4 11  4  0
  4 21  4  0
  5  9  4  0
  5 16  4  0
  6 15  4  0
  6 16  4  0
  7 22  4  0
  7 26  4  0
  8 10  4  0
  8 25  4  0
  9 15  4  0
  9 17  1  0
 10 21  4  0
 11 25  4  0
 12 23  4  0
 13 20  4  0
 13 26  4  0
 14 19  4  0
 17 18  4  0
 17 24  4  0
 19 23  4  0
 20 24  4  0
 23 26  1  0
M  END
$$$$

 Created by Python create_sdf_string function

 26 30  0  0  0  0  0  0  0  0999 V2000
   10.0084   -1.8019   23.4945 C   0  0  0  0  0  0  0  0  0  0  0  0
   10.0005   -4.2520   16.5631 C   0  0  0  0  0  0  0  0  0  0  0  0
   10.2759   -4.0036   17.8845 C   0  0  0  0  0  0  0  0  0  0  0  0
    8.5652    1.5478   25.3778 N   0  0  0  0  0  0  0  0  0  0  0  0
    6.8048   -7.5457   17.8752 C   0  0  0  0  0  0  0  0  0  0  0  0
    6.1721   -8.2186   15.9886 N   0  0  0  0  0  0  0  0  0  0  0  0
   11.1764   -2.6600   19.5604 C   0  0  0  0  0  0  0  0  0  0  0  0
    9.5491   -0.6380   24.1912 C   0  0  0  0  0  0  0  0  0  0  0  0
    7.5337   -6.9256   16.9519 C   0  0  0  0  0  0  0  0  0  0  0  0
    9.6782    0.5671   23.5143 C   0  0  0  0  0  0  0  0  0  0  0  0
    8.4532    0.3482   26.0821 C   0  0  0  0  0  0  0  0  0  0  0  0
   10.4239   -1.7677   22.2230 N   0  0  0  0  0  0  0  0  0  0  0  0
    9.9468   -4.5953   20.1709 C   0  0  0  0  0  0  0  0  0  0  0  0
   10.0366   -3.0590   23.9864 N   0  0  0  0  0  0  0  0  0  0  0  0
    7.1191   -7.3636   15.7739 C   0  0  0  0  0  0  0  0  0  0  0  0
    5.9612   -8.3203   17.2732 N   0  0  0  0  0  0  0  0  0  0  0  0
    8.5296   -5.9814   17.1841 C   0  0  0  0  0  0  0  0  0  0  0  0
    9.1527   -5.2118   16.2116 C   0  0  0  0  0  0  0  0  0  0  0  0
   10.3364   -3.8368   22.9255 O   0  0  0  0  0  0  0  0  0  0  0  0
    9.6947   -4.8407   18.8534 C   0  0  0  0  0  0  0  0  0  0  0  0
    9.1596    1.7042   24.1381 C   0  0  0  0  0  0  0  0  0  0  0  0
   11.0456   -2.9774   18.2694 N   0  0  0  0  0  0  0  0  0  0  0  0
   10.4788   -3.0457   21.8593 C   0  0  0  0  0  0  0  0  0  0  0  0
    8.8693   -5.8099   18.4657 N   0  0  0  0  0  0  0  0  0  0  0  0
    8.9892   -0.7926   25.4573 C   0  0  0  0  0  0  0  0  0  0  0  0
   10.5677   -3.4462   20.5323 C   0  0  0  0  0  0  0  0  0  0  0  0
  1  8  1  0
  1 12  4  0
  1 14  4  0
  2  3  4  0
  2 18  4  0
  3 20  4  0
  3 22  4  0
  4 11  4  0
  4 21  4  0
  5  9  4  0
  5 16  4  0
  6 15  4  0
  6 16  4  0
  7 22  4  0
  7 26  4  0
  8 10  4  0
  8 25  4  0
  9 15  4  0
  9 17  1  0
 10 21  4  0
 11 25  4  0
 12 23  4  0
 13 20  4  0
 13 26  4  0
 14 19  4  0
 17 18  4  0
 17 24  4  0
 19 23  4  0
 20 24  4  0
 23 26  1  0
M  END
$$$$

 Created by Python create_sdf_string function

 26 30  0  0  0  0  0  0  0  0999 V2000
   10.0084   -1.8019   23.4945 C   0  0  0  0  0  0  0  0  0  0  0  0
   10.0005   -4.2520   16.5631 C   0  0  0  0  0  0  0  0  0  0  0  0
   10.2759   -4.0036   17.8845 C   0  0  0  0  0  0  0  0  0  0  0  0
    8.5652    1.5478   25.3778 N   0  0  0  0  0  0  0  0  0  0  0  0
    6.8048   -7.5457   17.8752 C   0  0  0  0  0  0  0  0  0  0  0  0
    6.1721   -8.2186   15.9886 N   0  0  0  0  0  0  0  0  0  0  0  0
   11.1764   -2.6600   19.5604 C   0  0  0  0  0  0  0  0  0  0  0  0
    9.5491   -0.6380   24.1912 C   0  0  0  0  0  0  0  0  0  0  0  0
    7.5337   -6.9256   16.9519 C   0  0  0  0  0  0  0  0  0  0  0  0
    9.6782    0.5671   23.5143 C   0  0  0  0  0  0  0  0  0  0  0  0
    8.4532    0.3482   26.0821 C   0  0  0  0  0  0  0  0  0  0  0  0
   10.4239   -1.7677   22.2230 N   0  0  0  0  0  0  0  0  0  0  0  0
    9.9468   -4.5953   20.1709 C   0  0  0  0  0  0  0  0  0  0  0  0
   10.0366   -3.0590   23.9864 N   0  0  0  0  0  0  0  0  0  0  0  0
    7.1191   -7.3636   15.7739 C   0  0  0  0  0  0  0  0  0  0  0  0
    5.9612   -8.3203   17.2732 N   0  0  0  0  0  0  0  0  0  0  0  0
    8.5296   -5.9814   17.1841 C   0  0  0  0  0  0  0  0  0  0  0  0
    9.1527   -5.2118   16.2116 C   0  0  0  0  0  0  0  0  0  0  0  0
   10.3364   -3.8368   22.9255 O   0  0  0  0  0  0  0  0  0  0  0  0
    9.6947   -4.8407   18.8534 C   0  0  0  0  0  0  0  0  0  0  0  0
    9.1596    1.7042   24.1381 C   0  0  0  0  0  0  0  0  0  0  0  0
   11.0456   -2.9774   18.2694 N   0  0  0  0  0  0  0  0  0  0  0  0
   10.4788   -3.0457   21.8593 C   0  0  0  0  0  0  0  0  0  0  0  0
    8.8693   -5.8099   18.4657 N   0  0  0  0  0  0  0  0  0  0  0  0
    8.9892   -0.7926   25.4573 C   0  0  0  0  0  0  0  0  0  0  0  0
   10.5677   -3.4462   20.5323 C   0  0  0  0  0  0  0  0  0  0  0  0
  1  8  1  0
  1 12  4  0
  1 14  4  0
  2  3  4  0
  2 18  4  0
  3 20  4  0
  3 22  4  0
  4 11  4  0
  4 21  4  0
  5  9  4  0
  5 16  4  0
  6 15  4  0
  6 16  4  0
  7 22  4  0
  7 26  4  0
  8 10  4  0
  8 25  4  0
  9 15  4  0
  9 17  1  0
 10 21  4  0
 11 25  4  0
 12 23  4  0
 13 20  4  0
 13 26  4  0
 14 19  4  0
 17 18  4  0
 17 24  4  0
 19 23  4  0
 20 24  4  0
 23 26  1  0
M  END
$$$$

 Created by Python create_sdf_string function

 26 30  0  0  0  0  0  0  0  0999 V2000
   10.0084   -1.8019   23.4945 C   0  0  0  0  0  0  0  0  0  0  0  0
   10.0005   -4.2520   16.5631 C   0  0  0  0  0  0  0  0  0  0  0  0
   10.2759   -4.0036   17.8845 C   0  0  0  0  0  0  0  0  0  0  0  0
    8.5652    1.5478   25.3778 N   0  0  0  0  0  0  0  0  0  0  0  0
    6.8048   -7.5457   17.8752 C   0  0  0  0  0  0  0  0  0  0  0  0
    6.1721   -8.2186   15.9886 N   0  0  0  0  0  0  0  0  0  0  0  0
   11.1764   -2.6600   19.5604 C   0  0  0  0  0  0  0  0  0  0  0  0
    9.5491   -0.6380   24.1912 C   0  0  0  0  0  0  0  0  0  0  0  0
    7.5337   -6.9256   16.9519 C   0  0  0  0  0  0  0  0  0  0  0  0
    9.6782    0.5671   23.5143 C   0  0  0  0  0  0  0  0  0  0  0  0
    8.4532    0.3482   26.0821 C   0  0  0  0  0  0  0  0  0  0  0  0
   10.4239   -1.7677   22.2230 N   0  0  0  0  0  0  0  0  0  0  0  0
    9.9468   -4.5953   20.1709 C   0  0  0  0  0  0  0  0  0  0  0  0
   10.0366   -3.0590   23.9864 N   0  0  0  0  0  0  0  0  0  0  0  0
    7.1191   -7.3636   15.7739 C   0  0  0  0  0  0  0  0  0  0  0  0
    5.9612   -8.3203   17.2732 N   0  0  0  0  0  0  0  0  0  0  0  0
    8.5296   -5.9814   17.1841 C   0  0  0  0  0  0  0  0  0  0  0  0
    9.1527   -5.2118   16.2116 C   0  0  0  0  0  0  0  0  0  0  0  0
   10.3364   -3.8368   22.9255 O   0  0  0  0  0  0  0  0  0  0  0  0
    9.6947   -4.8407   18.8534 C   0  0  0  0  0  0  0  0  0  0  0  0
    9.1596    1.7042   24.1381 C   0  0  0  0  0  0  0  0  0  0  0  0
   11.0456   -2.9774   18.2694 N   0  0  0  0  0  0  0  0  0  0  0  0
   10.4788   -3.0457   21.8593 C   0  0  0  0  0  0  0  0  0  0  0  0
    8.8693   -5.8099   18.4657 N   0  0  0  0  0  0  0  0  0  0  0  0
    8.9892   -0.7926   25.4573 C   0  0  0  0  0  0  0  0  0  0  0  0
   10.5677   -3.4462   20.5323 C   0  0  0  0  0  0  0  0  0  0  0  0
  1  8  1  0
  1 12  4  0
  1 14  4  0
  2  3  4  0
  2 18  4  0
  3 20  4  0
  3 22  4  0
  4 11  4  0
  4 21  4  0
  5  9  4  0
  5 16  4  0
  6 15  4  0
  6 16  4  0
  7 22  4  0
  7 26  4  0
  8 10  4  0
  8 25  4  0
  9 15  4  0
  9 17  1  0
 10 21  4  0
 11 25  4  0
 12 23  4  0
 13 20  4  0
 13 26  4  0
 14 19  4  0
 17 18  4  0
 17 24  4  0
 19 23  4  0
 20 24  4  0
 23 26  1  0
M  END
$$$$

 Created by Python create_sdf_string function

 26 30  0  0  0  0  0  0  0  0999 V2000
   10.0084   -1.8019   23.4945 C   0  0  0  0  0  0  0  0  0  0  0  0
   10.0005   -4.2520   16.5631 C   0  0  0  0  0  0  0  0  0  0  0  0
   10.2759   -4.0036   17.8845 C   0  0  0  0  0  0  0  0  0  0  0  0
    8.5652    1.5478   25.3778 N   0  0  0  0  0  0  0  0  0  0  0  0
    6.8048   -7.5457   17.8752 C   0  0  0  0  0  0  0  0  0  0  0  0
    6.1721   -8.2186   15.9886 N   0  0  0  0  0  0  0  0  0  0  0  0
   11.1764   -2.6600   19.5604 C   0  0  0  0  0  0  0  0  0  0  0  0
    9.5491   -0.6380   24.1912 C   0  0  0  0  0  0  0  0  0  0  0  0
    7.5337   -6.9256   16.9519 C   0  0  0  0  0  0  0  0  0  0  0  0
    9.6782    0.5671   23.5143 C   0  0  0  0  0  0  0  0  0  0  0  0
    8.4532    0.3482   26.0821 C   0  0  0  0  0  0  0  0  0  0  0  0
   10.4239   -1.7677   22.2230 N   0  0  0  0  0  0  0  0  0  0  0  0
    9.9468   -4.5953   20.1709 C   0  0  0  0  0  0  0  0  0  0  0  0
   10.0366   -3.0590   23.9864 N   0  0  0  0  0  0  0  0  0  0  0  0
    7.1191   -7.3636   15.7739 C   0  0  0  0  0  0  0  0  0  0  0  0
    5.9612   -8.3203   17.2732 N   0  0  0  0  0  0  0  0  0  0  0  0
    8.5296   -5.9814   17.1841 C   0  0  0  0  0  0  0  0  0  0  0  0
    9.1527   -5.2118   16.2116 C   0  0  0  0  0  0  0  0  0  0  0  0
   10.3364   -3.8368   22.9255 O   0  0  0  0  0  0  0  0  0  0  0  0
    9.6947   -4.8407   18.8534 C   0  0  0  0  0  0  0  0  0  0  0  0
    9.1596    1.7042   24.1381 C   0  0  0  0  0  0  0  0  0  0  0  0
   11.0456   -2.9774   18.2694 N   0  0  0  0  0  0  0  0  0  0  0  0
   10.4788   -3.0457   21.8593 C   0  0  0  0  0  0  0  0  0  0  0  0
    8.8693   -5.8099   18.4657 N   0  0  0  0  0  0  0  0  0  0  0  0
    8.9892   -0.7926   25.4573 C   0  0  0  0  0  0  0  0  0  0  0  0
   10.5677   -3.4462   20.5323 C   0  0  0  0  0  0  0  0  0  0  0  0
  1  8  1  0
  1 12  4  0
  1 14  4  0
  2  3  4  0
  2 18  4  0
  3 20  4  0
  3 22  4  0
  4 11  4  0
  4 21  4  0
  5  9  4  0
  5 16  4  0
  6 15  4  0
  6 16  4  0
  7 22  4  0
  7 26  4  0
  8 10  4  0
  8 25  4  0
  9 15  4  0
  9 17  1  0
 10 21  4  0
 11 25  4  0
 12 23  4  0
 13 20  4  0
 13 26  4  0
 14 19  4  0
 17 18  4  0
 17 24  4  0
 19 23  4  0
 20 24  4  0
 23 26  1  0
M  END
$$$$

 Created by Python create_sdf_string function

 26 30  0  0  0  0  0  0  0  0999 V2000
   10.0084   -1.8019   23.4945 C   0  0  0  0  0  0  0  0  0  0  0  0
   10.0005   -4.2520   16.5631 C   0  0  0  0  0  0  0  0  0  0  0  0
   10.2759   -4.0036   17.8845 C   0  0  0  0  0  0  0  0  0  0  0  0
    8.5652    1.5478   25.3778 N   0  0  0  0  0  0  0  0  0  0  0  0
    6.8048   -7.5457   17.8752 C   0  0  0  0  0  0  0  0  0  0  0  0
    6.1721   -8.2186   15.9886 N   0  0  0  0  0  0  0  0  0  0  0  0
   11.1764   -2.6600   19.5604 C   0  0  0  0  0  0  0  0  0  0  0  0
    9.5491   -0.6380   24.1912 C   0  0  0  0  0  0  0  0  0  0  0  0
    7.5337   -6.9256   16.9519 C   0  0  0  0  0  0  0  0  0  0  0  0
    9.6782    0.5671   23.5143 C   0  0  0  0  0  0  0  0  0  0  0  0
    8.4532    0.3482   26.0821 C   0  0  0  0  0  0  0  0  0  0  0  0
   10.4239   -1.7677   22.2230 N   0  0  0  0  0  0  0  0  0  0  0  0
    9.9468   -4.5953   20.1709 C   0  0  0  0  0  0  0  0  0  0  0  0
   10.0366   -3.0590   23.9864 N   0  0  0  0  0  0  0  0  0  0  0  0
    7.1191   -7.3636   15.7739 C   0  0  0  0  0  0  0  0  0  0  0  0
    5.9612   -8.3203   17.2732 N   0  0  0  0  0  0  0  0  0  0  0  0
    8.5296   -5.9814   17.1841 C   0  0  0  0  0  0  0  0  0  0  0  0
    9.1527   -5.2118   16.2116 C   0  0  0  0  0  0  0  0  0  0  0  0
   10.3364   -3.8368   22.9255 O   0  0  0  0  0  0  0  0  0  0  0  0
    9.6947   -4.8407   18.8534 C   0  0  0  0  0  0  0  0  0  0  0  0
    9.1596    1.7042   24.1381 C   0  0  0  0  0  0  0  0  0  0  0  0
   11.0456   -2.9774   18.2694 N   0  0  0  0  0  0  0  0  0  0  0  0
   10.4788   -3.0457   21.8593 C   0  0  0  0  0  0  0  0  0  0  0  0
    8.8693   -5.8099   18.4657 N   0  0  0  0  0  0  0  0  0  0  0  0
    8.9892   -0.7926   25.4573 C   0  0  0  0  0  0  0  0  0  0  0  0
   10.5677   -3.4462   20.5323 C   0  0  0  0  0  0  0  0  0  0  0  0
  1  8  1  0
  1 12  4  0
  1 14  4  0
  2  3  4  0
  2 18  4  0
  3 20  4  0
  3 22  4  0
  4 11  4  0
  4 21  4  0
  5  9  4  0
  5 16  4  0
  6 15  4  0
  6 16  4  0
  7 22  4  0
  7 26  4  0
  8 10  4  0
  8 25  4  0
  9 15  4  0
  9 17  1  0
 10 21  4  0
 11 25  4  0
 12 23  4  0
 13 20  4  0
 13 26  4  0
 14 19  4  0
 17 18  4  0
 17 24  4  0
 19 23  4  0
 20 24  4  0
 23 26  1  0
M  END
$$$$

 Created by Python create_sdf_string function

 26 30  0  0  0  0  0  0  0  0999 V2000
   10.0084   -1.8019   23.4945 C   0  0  0  0  0  0  0  0  0  0  0  0
   10.0005   -4.2520   16.5631 C   0  0  0  0  0  0  0  0  0  0  0  0
   10.2759   -4.0036   17.8845 C   0  0  0  0  0  0  0  0  0  0  0  0
    8.5652    1.5478   25.3778 N   0  0  0  0  0  0  0  0  0  0  0  0
    6.8048   -7.5457   17.8752 C   0  0  0  0  0  0  0  0  0  0  0  0
    6.1721   -8.2186   15.9886 N   0  0  0  0  0  0  0  0  0  0  0  0
   11.1764   -2.6600   19.5604 C   0  0  0  0  0  0  0  0  0  0  0  0
    9.5491   -0.6380   24.1912 C   0  0  0  0  0  0  0  0  0  0  0  0
    7.5337   -6.9256   16.9519 C   0  0  0  0  0  0  0  0  0  0  0  0
    9.6782    0.5671   23.5143 C   0  0  0  0  0  0  0  0  0  0  0  0
    8.4532    0.3482   26.0821 C   0  0  0  0  0  0  0  0  0  0  0  0
   10.4239   -1.7677   22.2230 N   0  0  0  0  0  0  0  0  0  0  0  0
    9.9468   -4.5953   20.1709 C   0  0  0  0  0  0  0  0  0  0  0  0
   10.0366   -3.0590   23.9864 N   0  0  0  0  0  0  0  0  0  0  0  0
    7.1191   -7.3636   15.7739 C   0  0  0  0  0  0  0  0  0  0  0  0
    5.9612   -8.3203   17.2732 N   0  0  0  0  0  0  0  0  0  0  0  0
    8.5296   -5.9814   17.1841 C   0  0  0  0  0  0  0  0  0  0  0  0
    9.1527   -5.2118   16.2116 C   0  0  0  0  0  0  0  0  0  0  0  0
   10.3364   -3.8368   22.9255 O   0  0  0  0  0  0  0  0  0  0  0  0
    9.6947   -4.8407   18.8534 C   0  0  0  0  0  0  0  0  0  0  0  0
    9.1596    1.7042   24.1381 C   0  0  0  0  0  0  0  0  0  0  0  0
   11.0456   -2.9774   18.2694 N   0  0  0  0  0  0  0  0  0  0  0  0
   10.4788   -3.0457   21.8593 C   0  0  0  0  0  0  0  0  0  0  0  0
    8.8693   -5.8099   18.4657 N   0  0  0  0  0  0  0  0  0  0  0  0
    8.9892   -0.7926   25.4573 C   0  0  0  0  0  0  0  0  0  0  0  0
   10.5677   -3.4462   20.5323 C   0  0  0  0  0  0  0  0  0  0  0  0
  1  8  1  0
  1 12  4  0
  1 14  4  0
  2  3  4  0
  2 18  4  0
  3 20  4  0
  3 22  4  0
  4 11  4  0
  4 21  4  0
  5  9  4  0
  5 16  4  0
  6 15  4  0
  6 16  4  0
  7 22  4  0
  7 26  4  0
  8 10  4  0
  8 25  4  0
  9 15  4  0
  9 17  1  0
 10 21  4  0
 11 25  4  0
 12 23  4  0
 13 20  4  0
 13 26  4  0
 14 19  4  0
 17 18  4  0
 17 24  4  0
 19 23  4  0
 20 24  4  0
 23 26  1  0
M  END
$$$$

 Created by Python create_sdf_string function

 26 30  0  0  0  0  0  0  0  0999 V2000
   10.0084   -1.8019   23.4945 C   0  0  0  0  0  0  0  0  0  0  0  0
   10.0005   -4.2520   16.5631 C   0  0  0  0  0  0  0  0  0  0  0  0
   10.2759   -4.0036   17.8845 C   0  0  0  0  0  0  0  0  0  0  0  0
    8.5652    1.5478   25.3778 N   0  0  0  0  0  0  0  0  0  0  0  0
    6.8048   -7.5457   17.8752 C   0  0  0  0  0  0  0  0  0  0  0  0
    6.1721   -8.2186   15.9886 N   0  0  0  0  0  0  0  0  0  0  0  0
   11.1764   -2.6600   19.5604 C   0  0  0  0  0  0  0  0  0  0  0  0
    9.5491   -0.6380   24.1912 C   0  0  0  0  0  0  0  0  0  0  0  0
    7.5337   -6.9256   16.9519 C   0  0  0  0  0  0  0  0  0  0  0  0
    9.6782    0.5671   23.5143 C   0  0  0  0  0  0  0  0  0  0  0  0
    8.4532    0.3482   26.0821 C   0  0  0  0  0  0  0  0  0  0  0  0
   10.4239   -1.7677   22.2230 N   0  0  0  0  0  0  0  0  0  0  0  0
    9.9468   -4.5953   20.1709 C   0  0  0  0  0  0  0  0  0  0  0  0
   10.0366   -3.0590   23.9864 N   0  0  0  0  0  0  0  0  0  0  0  0
    7.1191   -7.3636   15.7739 C   0  0  0  0  0  0  0  0  0  0  0  0
    5.9612   -8.3203   17.2732 N   0  0  0  0  0  0  0  0  0  0  0  0
    8.5296   -5.9814   17.1841 C   0  0  0  0  0  0  0  0  0  0  0  0
    9.1527   -5.2118   16.2116 C   0  0  0  0  0  0  0  0  0  0  0  0
   10.3364   -3.8368   22.9255 O   0  0  0  0  0  0  0  0  0  0  0  0
    9.6947   -4.8407   18.8534 C   0  0  0  0  0  0  0  0  0  0  0  0
    9.1596    1.7042   24.1381 C   0  0  0  0  0  0  0  0  0  0  0  0
   11.0456   -2.9774   18.2694 N   0  0  0  0  0  0  0  0  0  0  0  0
   10.4788   -3.0457   21.8593 C   0  0  0  0  0  0  0  0  0  0  0  0
    8.8693   -5.8099   18.4657 N   0  0  0  0  0  0  0  0  0  0  0  0
    8.9892   -0.7926   25.4573 C   0  0  0  0  0  0  0  0  0  0  0  0
   10.5677   -3.4462   20.5323 C   0  0  0  0  0  0  0  0  0  0  0  0
  1  8  1  0
  1 12  4  0
  1 14  4  0
  2  3  4  0
  2 18  4  0
  3 20  4  0
  3 22  4  0
  4 11  4  0
  4 21  4  0
  5  9  4  0
  5 16  4  0
  6 15  4  0
  6 16  4  0
  7 22  4  0
  7 26  4  0
  8 10  4  0
  8 25  4  0
  9 15  4  0
  9 17  1  0
 10 21  4  0
 11 25  4  0
 12 23  4  0
 13 20  4  0
 13 26  4  0
 14 19  4  0
 17 18  4  0
 17 24  4  0
 19 23  4  0
 20 24  4  0
 23 26  1  0
M  END
$$$$

 Created by Python create_sdf_string function

 26 30  0  0  0  0  0  0  0  0999 V2000
   10.0084   -1.8019   23.4945 C   0  0  0  0  0  0  0  0  0  0  0  0
   10.0005   -4.2520   16.5631 C   0  0  0  0  0  0  0  0  0  0  0  0
   10.2759   -4.0036   17.8845 C   0  0  0  0  0  0  0  0  0  0  0  0
    8.5652    1.5478   25.3778 N   0  0  0  0  0  0  0  0  0  0  0  0
    6.8048   -7.5457   17.8752 C   0  0  0  0  0  0  0  0  0  0  0  0
    6.1721   -8.2186   15.9886 N   0  0  0  0  0  0  0  0  0  0  0  0
   11.1764   -2.6600   19.5604 C   0  0  0  0  0  0  0  0  0  0  0  0
    9.5491   -0.6380   24.1912 C   0  0  0  0  0  0  0  0  0  0  0  0
    7.5337   -6.9256   16.9519 C   0  0  0  0  0  0  0  0  0  0  0  0
    9.6782    0.5671   23.5143 C   0  0  0  0  0  0  0  0  0  0  0  0
    8.4532    0.3482   26.0821 C   0  0  0  0  0  0  0  0  0  0  0  0
   10.4239   -1.7677   22.2230 N   0  0  0  0  0  0  0  0  0  0  0  0
    9.9468   -4.5953   20.1709 C   0  0  0  0  0  0  0  0  0  0  0  0
   10.0366   -3.0590   23.9864 N   0  0  0  0  0  0  0  0  0  0  0  0
    7.1191   -7.3636   15.7739 C   0  0  0  0  0  0  0  0  0  0  0  0
    5.9612   -8.3203   17.2732 N   0  0  0  0  0  0  0  0  0  0  0  0
    8.5296   -5.9814   17.1841 C   0  0  0  0  0  0  0  0  0  0  0  0
    9.1527   -5.2118   16.2116 C   0  0  0  0  0  0  0  0  0  0  0  0
   10.3364   -3.8368   22.9255 O   0  0  0  0  0  0  0  0  0  0  0  0
    9.6947   -4.8407   18.8534 C   0  0  0  0  0  0  0  0  0  0  0  0
    9.1596    1.7042   24.1381 C   0  0  0  0  0  0  0  0  0  0  0  0
   11.0456   -2.9774   18.2694 N   0  0  0  0  0  0  0  0  0  0  0  0
   10.4788   -3.0457   21.8593 C   0  0  0  0  0  0  0  0  0  0  0  0
    8.8693   -5.8099   18.4657 N   0  0  0  0  0  0  0  0  0  0  0  0
    8.9892   -0.7926   25.4573 C   0  0  0  0  0  0  0  0  0  0  0  0
   10.5677   -3.4462   20.5323 C   0  0  0  0  0  0  0  0  0  0  0  0
  1  8  1  0
  1 12  4  0
  1 14  4  0
  2  3  4  0
  2 18  4  0
  3 20  4  0
  3 22  4  0
  4 11  4  0
  4 21  4  0
  5  9  4  0
  5 16  4  0
  6 15  4  0
  6 16  4  0
  7 22  4  0
  7 26  4  0
  8 10  4  0
  8 25  4  0
  9 15  4  0
  9 17  1  0
 10 21  4  0
 11 25  4  0
 12 23  4  0
 13 20  4  0
 13 26  4  0
 14 19  4  0
 17 18  4  0
 17 24  4  0
 19 23  4  0
 20 24  4  0
 23 26  1  0
M  END
$$$$

 Created by Python create_sdf_string function

 26 30  0  0  0  0  0  0  0  0999 V2000
   10.0084   -1.8019   23.4945 C   0  0  0  0  0  0  0  0  0  0  0  0
   10.0005   -4.2520   16.5631 C   0  0  0  0  0  0  0  0  0  0  0  0
   10.2759   -4.0036   17.8845 C   0  0  0  0  0  0  0  0  0  0  0  0
    8.5652    1.5478   25.3778 N   0  0  0  0  0  0  0  0  0  0  0  0
    6.8048   -7.5457   17.8752 C   0  0  0  0  0  0  0  0  0  0  0  0
    6.1721   -8.2186   15.9886 N   0  0  0  0  0  0  0  0  0  0  0  0
   11.1764   -2.6600   19.5604 C   0  0  0  0  0  0  0  0  0  0  0  0
    9.5491   -0.6380   24.1912 C   0  0  0  0  0  0  0  0  0  0  0  0
    7.5337   -6.9256   16.9519 C   0  0  0  0  0  0  0  0  0  0  0  0
    9.6782    0.5671   23.5143 C   0  0  0  0  0  0  0  0  0  0  0  0
    8.4532    0.3482   26.0821 C   0  0  0  0  0  0  0  0  0  0  0  0
   10.4239   -1.7677   22.2230 N   0  0  0  0  0  0  0  0  0  0  0  0
    9.9468   -4.5953   20.1709 C   0  0  0  0  0  0  0  0  0  0  0  0
   10.0366   -3.0590   23.9864 N   0  0  0  0  0  0  0  0  0  0  0  0
    7.1191   -7.3636   15.7739 C   0  0  0  0  0  0  0  0  0  0  0  0
    5.9612   -8.3203   17.2732 N   0  0  0  0  0  0  0  0  0  0  0  0
    8.5296   -5.9814   17.1841 C   0  0  0  0  0  0  0  0  0  0  0  0
    9.1527   -5.2118   16.2116 C   0  0  0  0  0  0  0  0  0  0  0  0
   10.3364   -3.8368   22.9255 O   0  0  0  0  0  0  0  0  0  0  0  0
    9.6947   -4.8407   18.8534 C   0  0  0  0  0  0  0  0  0  0  0  0
    9.1596    1.7042   24.1381 C   0  0  0  0  0  0  0  0  0  0  0  0
   11.0456   -2.9774   18.2694 N   0  0  0  0  0  0  0  0  0  0  0  0
   10.4788   -3.0457   21.8593 C   0  0  0  0  0  0  0  0  0  0  0  0
    8.8693   -5.8099   18.4657 N   0  0  0  0  0  0  0  0  0  0  0  0
    8.9892   -0.7926   25.4573 C   0  0  0  0  0  0  0  0  0  0  0  0
   10.5677   -3.4462   20.5323 C   0  0  0  0  0  0  0  0  0  0  0  0
  1  8  1  0
  1 12  4  0
  1 14  4  0
  2  3  4  0
  2 18  4  0
  3 20  4  0
  3 22  4  0
  4 11  4  0
  4 21  4  0
  5  9  4  0
  5 16  4  0
  6 15  4  0
  6 16  4  0
  7 22  4  0
  7 26  4  0
  8 10  4  0
  8 25  4  0
  9 15  4  0
  9 17  1  0
 10 21  4  0
 11 25  4  0
 12 23  4  0
 13 20  4  0
 13 26  4  0
 14 19  4  0
 17 18  4  0
 17 24  4  0
 19 23  4  0
 20 24  4  0
 23 26  1  0
M  END
$$$$

 Created by Python create_sdf_string function

 26 30  0  0  0  0  0  0  0  0999 V2000
   10.0084   -1.8019   23.4945 C   0  0  0  0  0  0  0  0  0  0  0  0
   10.0005   -4.2520   16.5631 C   0  0  0  0  0  0  0  0  0  0  0  0
   10.2759   -4.0036   17.8845 C   0  0  0  0  0  0  0  0  0  0  0  0
    8.5652    1.5478   25.3778 N   0  0  0  0  0  0  0  0  0  0  0  0
    6.8048   -7.5457   17.8752 C   0  0  0  0  0  0  0  0  0  0  0  0
    6.1721   -8.2186   15.9886 N   0  0  0  0  0  0  0  0  0  0  0  0
   11.1764   -2.6600   19.5604 C   0  0  0  0  0  0  0  0  0  0  0  0
    9.5491   -0.6380   24.1912 C   0  0  0  0  0  0  0  0  0  0  0  0
    7.5337   -6.9256   16.9519 C   0  0  0  0  0  0  0  0  0  0  0  0
    9.6782    0.5671   23.5143 C   0  0  0  0  0  0  0  0  0  0  0  0
    8.4532    0.3482   26.0821 C   0  0  0  0  0  0  0  0  0  0  0  0
   10.4239   -1.7677   22.2230 N   0  0  0  0  0  0  0  0  0  0  0  0
    9.9468   -4.5953   20.1709 C   0  0  0  0  0  0  0  0  0  0  0  0
   10.0366   -3.0590   23.9864 N   0  0  0  0  0  0  0  0  0  0  0  0
    7.1191   -7.3636   15.7739 C   0  0  0  0  0  0  0  0  0  0  0  0
    5.9612   -8.3203   17.2732 N   0  0  0  0  0  0  0  0  0  0  0  0
    8.5296   -5.9814   17.1841 C   0  0  0  0  0  0  0  0  0  0  0  0
    9.1527   -5.2118   16.2116 C   0  0  0  0  0  0  0  0  0  0  0  0
   10.3364   -3.8368   22.9255 O   0  0  0  0  0  0  0  0  0  0  0  0
    9.6947   -4.8407   18.8534 C   0  0  0  0  0  0  0  0  0  0  0  0
    9.1596    1.7042   24.1381 C   0  0  0  0  0  0  0  0  0  0  0  0
   11.0456   -2.9774   18.2694 N   0  0  0  0  0  0  0  0  0  0  0  0
   10.4788   -3.0457   21.8593 C   0  0  0  0  0  0  0  0  0  0  0  0
    8.8693   -5.8099   18.4657 N   0  0  0  0  0  0  0  0  0  0  0  0
    8.9892   -0.7926   25.4573 C   0  0  0  0  0  0  0  0  0  0  0  0
   10.5677   -3.4462   20.5323 C   0  0  0  0  0  0  0  0  0  0  0  0
  1  8  1  0
  1 12  4  0
  1 14  4  0
  2  3  4  0
  2 18  4  0
  3 20  4  0
  3 22  4  0
  4 11  4  0
  4 21  4  0
  5  9  4  0
  5 16  4  0
  6 15  4  0
  6 16  4  0
  7 22  4  0
  7 26  4  0
  8 10  4  0
  8 25  4  0
  9 15  4  0
  9 17  1  0
 10 21  4  0
 11 25  4  0
 12 23  4  0
 13 20  4  0
 13 26  4  0
 14 19  4  0
 17 18  4  0
 17 24  4  0
 19 23  4  0
 20 24  4  0
 23 26  1  0
M  END
$$$$

 Created by Python create_sdf_string function

 26 30  0  0  0  0  0  0  0  0999 V2000
   10.0084   -1.8019   23.4945 C   0  0  0  0  0  0  0  0  0  0  0  0
   10.0005   -4.2520   16.5631 C   0  0  0  0  0  0  0  0  0  0  0  0
   10.2759   -4.0036   17.8845 C   0  0  0  0  0  0  0  0  0  0  0  0
    8.5652    1.5478   25.3778 N   0  0  0  0  0  0  0  0  0  0  0  0
    6.8048   -7.5457   17.8752 C   0  0  0  0  0  0  0  0  0  0  0  0
    6.1721   -8.2186   15.9886 N   0  0  0  0  0  0  0  0  0  0  0  0
   11.1764   -2.6600   19.5604 C   0  0  0  0  0  0  0  0  0  0  0  0
    9.5491   -0.6380   24.1912 C   0  0  0  0  0  0  0  0  0  0  0  0
    7.5337   -6.9256   16.9519 C   0  0  0  0  0  0  0  0  0  0  0  0
    9.6782    0.5671   23.5143 C   0  0  0  0  0  0  0  0  0  0  0  0
    8.4532    0.3482   26.0821 C   0  0  0  0  0  0  0  0  0  0  0  0
   10.4239   -1.7677   22.2230 N   0  0  0  0  0  0  0  0  0  0  0  0
    9.9468   -4.5953   20.1709 C   0  0  0  0  0  0  0  0  0  0  0  0
   10.0366   -3.0590   23.9864 N   0  0  0  0  0  0  0  0  0  0  0  0
    7.1191   -7.3636   15.7739 C   0  0  0  0  0  0  0  0  0  0  0  0
    5.9612   -8.3203   17.2732 N   0  0  0  0  0  0  0  0  0  0  0  0
    8.5296   -5.9814   17.1841 C   0  0  0  0  0  0  0  0  0  0  0  0
    9.1527   -5.2118   16.2116 C   0  0  0  0  0  0  0  0  0  0  0  0
   10.3364   -3.8368   22.9255 O   0  0  0  0  0  0  0  0  0  0  0  0
    9.6947   -4.8407   18.8534 C   0  0  0  0  0  0  0  0  0  0  0  0
    9.1596    1.7042   24.1381 C   0  0  0  0  0  0  0  0  0  0  0  0
   11.0456   -2.9774   18.2694 N   0  0  0  0  0  0  0  0  0  0  0  0
   10.4788   -3.0457   21.8593 C   0  0  0  0  0  0  0  0  0  0  0  0
    8.8693   -5.8099   18.4657 N   0  0  0  0  0  0  0  0  0  0  0  0
    8.9892   -0.7926   25.4573 C   0  0  0  0  0  0  0  0  0  0  0  0
   10.5677   -3.4462   20.5323 C   0  0  0  0  0  0  0  0  0  0  0  0
  1  8  1  0
  1 12  4  0
  1 14  4  0
  2  3  4  0
  2 18  4  0
  3 20  4  0
  3 22  4  0
  4 11  4  0
  4 21  4  0
  5  9  4  0
  5 16  4  0
  6 15  4  0
  6 16  4  0
  7 22  4  0
  7 26  4  0
  8 10  4  0
  8 25  4  0
  9 15  4  0
  9 17  1  0
 10 21  4  0
 11 25  4  0
 12 23  4  0
 13 20  4  0
 13 26  4  0
 14 19  4  0
 17 18  4  0
 17 24  4  0
 19 23  4  0
 20 24  4  0
 23 26  1  0
M  END
$$$$

 Created by Python create_sdf_string function

 26 30  0  0  0  0  0  0  0  0999 V2000
   10.0084   -1.8019   23.4945 C   0  0  0  0  0  0  0  0  0  0  0  0
   10.0005   -4.2520   16.5631 C   0  0  0  0  0  0  0  0  0  0  0  0
   10.2759   -4.0036   17.8845 C   0  0  0  0  0  0  0  0  0  0  0  0
    8.5652    1.5478   25.3778 N   0  0  0  0  0  0  0  0  0  0  0  0
    6.8048   -7.5457   17.8752 C   0  0  0  0  0  0  0  0  0  0  0  0
    6.1721   -8.2186   15.9886 N   0  0  0  0  0  0  0  0  0  0  0  0
   11.1764   -2.6600   19.5604 C   0  0  0  0  0  0  0  0  0  0  0  0
    9.5491   -0.6380   24.1912 C   0  0  0  0  0  0  0  0  0  0  0  0
    7.5337   -6.9256   16.9519 C   0  0  0  0  0  0  0  0  0  0  0  0
    9.6782    0.5671   23.5143 C   0  0  0  0  0  0  0  0  0  0  0  0
    8.4532    0.3482   26.0821 C   0  0  0  0  0  0  0  0  0  0  0  0
   10.4239   -1.7677   22.2230 N   0  0  0  0  0  0  0  0  0  0  0  0
    9.9468   -4.5953   20.1709 C   0  0  0  0  0  0  0  0  0  0  0  0
   10.0366   -3.0590   23.9864 N   0  0  0  0  0  0  0  0  0  0  0  0
    7.1191   -7.3636   15.7739 C   0  0  0  0  0  0  0  0  0  0  0  0
    5.9612   -8.3203   17.2732 N   0  0  0  0  0  0  0  0  0  0  0  0
    8.5296   -5.9814   17.1841 C   0  0  0  0  0  0  0  0  0  0  0  0
    9.1527   -5.2118   16.2116 C   0  0  0  0  0  0  0  0  0  0  0  0
   10.3364   -3.8368   22.9255 O   0  0  0  0  0  0  0  0  0  0  0  0
    9.6947   -4.8407   18.8534 C   0  0  0  0  0  0  0  0  0  0  0  0
    9.1596    1.7042   24.1381 C   0  0  0  0  0  0  0  0  0  0  0  0
   11.0456   -2.9774   18.2694 N   0  0  0  0  0  0  0  0  0  0  0  0
   10.4788   -3.0457   21.8593 C   0  0  0  0  0  0  0  0  0  0  0  0
    8.8693   -5.8099   18.4657 N   0  0  0  0  0  0  0  0  0  0  0  0
    8.9892   -0.7926   25.4573 C   0  0  0  0  0  0  0  0  0  0  0  0
   10.5677   -3.4462   20.5323 C   0  0  0  0  0  0  0  0  0  0  0  0
  1  8  1  0
  1 12  4  0
  1 14  4  0
  2  3  4  0
  2 18  4  0
  3 20  4  0
  3 22  4  0
  4 11  4  0
  4 21  4  0
  5  9  4  0
  5 16  4  0
  6 15  4  0
  6 16  4  0
  7 22  4  0
  7 26  4  0
  8 10  4  0
  8 25  4  0
  9 15  4  0
  9 17  1  0
 10 21  4  0
 11 25  4  0
 12 23  4  0
 13 20  4  0
 13 26  4  0
 14 19  4  0
 17 18  4  0
 17 24  4  0
 19 23  4  0
 20 24  4  0
 23 26  1  0
M  END
$$$$

 Created by Python create_sdf_string function

 26 30  0  0  0  0  0  0  0  0999 V2000
   10.0084   -1.8019   23.4945 C   0  0  0  0  0  0  0  0  0  0  0  0
   10.0005   -4.2520   16.5631 C   0  0  0  0  0  0  0  0  0  0  0  0
   10.2759   -4.0036   17.8845 C   0  0  0  0  0  0  0  0  0  0  0  0
    8.5652    1.5478   25.3778 N   0  0  0  0  0  0  0  0  0  0  0  0
    6.8048   -7.5457   17.8752 C   0  0  0  0  0  0  0  0  0  0  0  0
    6.1721   -8.2186   15.9886 N   0  0  0  0  0  0  0  0  0  0  0  0
   11.1764   -2.6600   19.5604 C   0  0  0  0  0  0  0  0  0  0  0  0
    9.5491   -0.6380   24.1912 C   0  0  0  0  0  0  0  0  0  0  0  0
    7.5337   -6.9256   16.9519 C   0  0  0  0  0  0  0  0  0  0  0  0
    9.6782    0.5671   23.5143 C   0  0  0  0  0  0  0  0  0  0  0  0
    8.4532    0.3482   26.0821 C   0  0  0  0  0  0  0  0  0  0  0  0
   10.4239   -1.7677   22.2230 N   0  0  0  0  0  0  0  0  0  0  0  0
    9.9468   -4.5953   20.1709 C   0  0  0  0  0  0  0  0  0  0  0  0
   10.0366   -3.0590   23.9864 N   0  0  0  0  0  0  0  0  0  0  0  0
    7.1191   -7.3636   15.7739 C   0  0  0  0  0  0  0  0  0  0  0  0
    5.9612   -8.3203   17.2732 N   0  0  0  0  0  0  0  0  0  0  0  0
    8.5296   -5.9814   17.1841 C   0  0  0  0  0  0  0  0  0  0  0  0
    9.1527   -5.2118   16.2116 C   0  0  0  0  0  0  0  0  0  0  0  0
   10.3364   -3.8368   22.9255 O   0  0  0  0  0  0  0  0  0  0  0  0
    9.6947   -4.8407   18.8534 C   0  0  0  0  0  0  0  0  0  0  0  0
    9.1596    1.7042   24.1381 C   0  0  0  0  0  0  0  0  0  0  0  0
   11.0456   -2.9774   18.2694 N   0  0  0  0  0  0  0  0  0  0  0  0
   10.4788   -3.0457   21.8593 C   0  0  0  0  0  0  0  0  0  0  0  0
    8.8693   -5.8099   18.4657 N   0  0  0  0  0  0  0  0  0  0  0  0
    8.9892   -0.7926   25.4573 C   0  0  0  0  0  0  0  0  0  0  0  0
   10.5677   -3.4462   20.5323 C   0  0  0  0  0  0  0  0  0  0  0  0
  1  8  1  0
  1 12  4  0
  1 14  4  0
  2  3  4  0
  2 18  4  0
  3 20  4  0
  3 22  4  0
  4 11  4  0
  4 21  4  0
  5  9  4  0
  5 16  4  0
  6 15  4  0
  6 16  4  0
  7 22  4  0
  7 26  4  0
  8 10  4  0
  8 25  4  0
  9 15  4  0
  9 17  1  0
 10 21  4  0
 11 25  4  0
 12 23  4  0
 13 20  4  0
 13 26  4  0
 14 19  4  0
 17 18  4  0
 17 24  4  0
 19 23  4  0
 20 24  4  0
 23 26  1  0
M  END
$$$$

 Created by Python create_sdf_string function

 26 30  0  0  0  0  0  0  0  0999 V2000
   10.0084   -1.8019   23.4945 C   0  0  0  0  0  0  0  0  0  0  0  0
   10.0005   -4.2520   16.5631 C   0  0  0  0  0  0  0  0  0  0  0  0
   10.2759   -4.0036   17.8845 C   0  0  0  0  0  0  0  0  0  0  0  0
    8.5652    1.5478   25.3778 N   0  0  0  0  0  0  0  0  0  0  0  0
    6.8048   -7.5457   17.8752 C   0  0  0  0  0  0  0  0  0  0  0  0
    6.1721   -8.2186   15.9886 N   0  0  0  0  0  0  0  0  0  0  0  0
   11.1764   -2.6600   19.5604 C   0  0  0  0  0  0  0  0  0  0  0  0
    9.5491   -0.6380   24.1912 C   0  0  0  0  0  0  0  0  0  0  0  0
    7.5337   -6.9256   16.9519 C   0  0  0  0  0  0  0  0  0  0  0  0
    9.6782    0.5671   23.5143 C   0  0  0  0  0  0  0  0  0  0  0  0
    8.4532    0.3482   26.0821 C   0  0  0  0  0  0  0  0  0  0  0  0
   10.4239   -1.7677   22.2230 N   0  0  0  0  0  0  0  0  0  0  0  0
    9.9468   -4.5953   20.1709 C   0  0  0  0  0  0  0  0  0  0  0  0
   10.0366   -3.0590   23.9864 N   0  0  0  0  0  0  0  0  0  0  0  0
    7.1191   -7.3636   15.7739 C   0  0  0  0  0  0  0  0  0  0  0  0
    5.9612   -8.3203   17.2732 N   0  0  0  0  0  0  0  0  0  0  0  0
    8.5296   -5.9814   17.1841 C   0  0  0  0  0  0  0  0  0  0  0  0
    9.1527   -5.2118   16.2116 C   0  0  0  0  0  0  0  0  0  0  0  0
   10.3364   -3.8368   22.9255 O   0  0  0  0  0  0  0  0  0  0  0  0
    9.6947   -4.8407   18.8534 C   0  0  0  0  0  0  0  0  0  0  0  0
    9.1596    1.7042   24.1381 C   0  0  0  0  0  0  0  0  0  0  0  0
   11.0456   -2.9774   18.2694 N   0  0  0  0  0  0  0  0  0  0  0  0
   10.4788   -3.0457   21.8593 C   0  0  0  0  0  0  0  0  0  0  0  0
    8.8693   -5.8099   18.4657 N   0  0  0  0  0  0  0  0  0  0  0  0
    8.9892   -0.7926   25.4573 C   0  0  0  0  0  0  0  0  0  0  0  0
   10.5677   -3.4462   20.5323 C   0  0  0  0  0  0  0  0  0  0  0  0
  1  8  1  0
  1 12  4  0
  1 14  4  0
  2  3  4  0
  2 18  4  0
  3 20  4  0
  3 22  4  0
  4 11  4  0
  4 21  4  0
  5  9  4  0
  5 16  4  0
  6 15  4  0
  6 16  4  0
  7 22  4  0
  7 26  4  0
  8 10  4  0
  8 25  4  0
  9 15  4  0
  9 17  1  0
 10 21  4  0
 11 25  4  0
 12 23  4  0
 13 20  4  0
 13 26  4  0
 14 19  4  0
 17 18  4  0
 17 24  4  0
 19 23  4  0
 20 24  4  0
 23 26  1  0
M  END
$$$$

 Created by Python create_sdf_string function

 26 30  0  0  0  0  0  0  0  0999 V2000
   10.0084   -1.8019   23.4945 C   0  0  0  0  0  0  0  0  0  0  0  0
   10.0005   -4.2520   16.5631 C   0  0  0  0  0  0  0  0  0  0  0  0
   10.2759   -4.0036   17.8845 C   0  0  0  0  0  0  0  0  0  0  0  0
    8.5652    1.5478   25.3778 N   0  0  0  0  0  0  0  0  0  0  0  0
    6.8048   -7.5457   17.8752 C   0  0  0  0  0  0  0  0  0  0  0  0
    6.1721   -8.2186   15.9886 N   0  0  0  0  0  0  0  0  0  0  0  0
   11.1764   -2.6600   19.5604 C   0  0  0  0  0  0  0  0  0  0  0  0
    9.5491   -0.6380   24.1912 C   0  0  0  0  0  0  0  0  0  0  0  0
    7.5337   -6.9256   16.9519 C   0  0  0  0  0  0  0  0  0  0  0  0
    9.6782    0.5671   23.5143 C   0  0  0  0  0  0  0  0  0  0  0  0
    8.4532    0.3482   26.0821 C   0  0  0  0  0  0  0  0  0  0  0  0
   10.4239   -1.7677   22.2230 N   0  0  0  0  0  0  0  0  0  0  0  0
    9.9468   -4.5953   20.1709 C   0  0  0  0  0  0  0  0  0  0  0  0
   10.0366   -3.0590   23.9864 N   0  0  0  0  0  0  0  0  0  0  0  0
    7.1191   -7.3636   15.7739 C   0  0  0  0  0  0  0  0  0  0  0  0
    5.9612   -8.3203   17.2732 N   0  0  0  0  0  0  0  0  0  0  0  0
    8.5296   -5.9814   17.1841 C   0  0  0  0  0  0  0  0  0  0  0  0
    9.1527   -5.2118   16.2116 C   0  0  0  0  0  0  0  0  0  0  0  0
   10.3364   -3.8368   22.9255 O   0  0  0  0  0  0  0  0  0  0  0  0
    9.6947   -4.8407   18.8534 C   0  0  0  0  0  0  0  0  0  0  0  0
    9.1596    1.7042   24.1381 C   0  0  0  0  0  0  0  0  0  0  0  0
   11.0456   -2.9774   18.2694 N   0  0  0  0  0  0  0  0  0  0  0  0
   10.4788   -3.0457   21.8593 C   0  0  0  0  0  0  0  0  0  0  0  0
    8.8693   -5.8099   18.4657 N   0  0  0  0  0  0  0  0  0  0  0  0
    8.9892   -0.7926   25.4573 C   0  0  0  0  0  0  0  0  0  0  0  0
   10.5677   -3.4462   20.5323 C   0  0  0  0  0  0  0  0  0  0  0  0
  1  8  1  0
  1 12  4  0
  1 14  4  0
  2  3  4  0
  2 18  4  0
  3 20  4  0
  3 22  4  0
  4 11  4  0
  4 21  4  0
  5  9  4  0
  5 16  4  0
  6 15  4  0
  6 16  4  0
  7 22  4  0
  7 26  4  0
  8 10  4  0
  8 25  4  0
  9 15  4  0
  9 17  1  0
 10 21  4  0
 11 25  4  0
 12 23  4  0
 13 20  4  0
 13 26  4  0
 14 19  4  0
 17 18  4  0
 17 24  4  0
 19 23  4  0
 20 24  4  0
 23 26  1  0
M  END
$$$$

 Created by Python create_sdf_string function

 26 30  0  0  0  0  0  0  0  0999 V2000
   10.0084   -1.8019   23.4945 C   0  0  0  0  0  0  0  0  0  0  0  0
   10.0005   -4.2520   16.5631 C   0  0  0  0  0  0  0  0  0  0  0  0
   10.2759   -4.0036   17.8845 C   0  0  0  0  0  0  0  0  0  0  0  0
    8.5652    1.5478   25.3778 N   0  0  0  0  0  0  0  0  0  0  0  0
    6.8048   -7.5457   17.8752 C   0  0  0  0  0  0  0  0  0  0  0  0
    6.1721   -8.2186   15.9886 N   0  0  0  0  0  0  0  0  0  0  0  0
   11.1764   -2.6600   19.5604 C   0  0  0  0  0  0  0  0  0  0  0  0
    9.5491   -0.6380   24.1912 C   0  0  0  0  0  0  0  0  0  0  0  0
    7.5337   -6.9256   16.9519 C   0  0  0  0  0  0  0  0  0  0  0  0
    9.6782    0.5671   23.5143 C   0  0  0  0  0  0  0  0  0  0  0  0
    8.4532    0.3482   26.0821 C   0  0  0  0  0  0  0  0  0  0  0  0
   10.4239   -1.7677   22.2230 N   0  0  0  0  0  0  0  0  0  0  0  0
    9.9468   -4.5953   20.1709 C   0  0  0  0  0  0  0  0  0  0  0  0
   10.0366   -3.0590   23.9864 N   0  0  0  0  0  0  0  0  0  0  0  0
    7.1191   -7.3636   15.7739 C   0  0  0  0  0  0  0  0  0  0  0  0
    5.9612   -8.3203   17.2732 N   0  0  0  0  0  0  0  0  0  0  0  0
    8.5296   -5.9814   17.1841 C   0  0  0  0  0  0  0  0  0  0  0  0
    9.1527   -5.2118   16.2116 C   0  0  0  0  0  0  0  0  0  0  0  0
   10.3364   -3.8368   22.9255 O   0  0  0  0  0  0  0  0  0  0  0  0
    9.6947   -4.8407   18.8534 C   0  0  0  0  0  0  0  0  0  0  0  0
    9.1596    1.7042   24.1381 C   0  0  0  0  0  0  0  0  0  0  0  0
   11.0456   -2.9774   18.2694 N   0  0  0  0  0  0  0  0  0  0  0  0
   10.4788   -3.0457   21.8593 C   0  0  0  0  0  0  0  0  0  0  0  0
    8.8693   -5.8099   18.4657 N   0  0  0  0  0  0  0  0  0  0  0  0
    8.9892   -0.7926   25.4573 C   0  0  0  0  0  0  0  0  0  0  0  0
   10.5677   -3.4462   20.5323 C   0  0  0  0  0  0  0  0  0  0  0  0
  1  8  1  0
  1 12  4  0
  1 14  4  0
  2  3  4  0
  2 18  4  0
  3 20  4  0
  3 22  4  0
  4 11  4  0
  4 21  4  0
  5  9  4  0
  5 16  4  0
  6 15  4  0
  6 16  4  0
  7 22  4  0
  7 26  4  0
  8 10  4  0
  8 25  4  0
  9 15  4  0
  9 17  1  0
 10 21  4  0
 11 25  4  0
 12 23  4  0
 13 20  4  0
 13 26  4  0
 14 19  4  0
 17 18  4  0
 17 24  4  0
 19 23  4  0
 20 24  4  0
 23 26  1  0
M  END
$$$$

 Created by Python create_sdf_string function

 26 30  0  0  0  0  0  0  0  0999 V2000
   10.0084   -1.8019   23.4945 C   0  0  0  0  0  0  0  0  0  0  0  0
   10.0005   -4.2520   16.5631 C   0  0  0  0  0  0  0  0  0  0  0  0
   10.2759   -4.0036   17.8845 C   0  0  0  0  0  0  0  0  0  0  0  0
    8.5652    1.5478   25.3778 N   0  0  0  0  0  0  0  0  0  0  0  0
    6.8048   -7.5457   17.8752 C   0  0  0  0  0  0  0  0  0  0  0  0
    6.1721   -8.2186   15.9886 N   0  0  0  0  0  0  0  0  0  0  0  0
   11.1764   -2.6600   19.5604 C   0  0  0  0  0  0  0  0  0  0  0  0
    9.5491   -0.6380   24.1912 C   0  0  0  0  0  0  0  0  0  0  0  0
    7.5337   -6.9256   16.9519 C   0  0  0  0  0  0  0  0  0  0  0  0
    9.6782    0.5671   23.5143 C   0  0  0  0  0  0  0  0  0  0  0  0
    8.4532    0.3482   26.0821 C   0  0  0  0  0  0  0  0  0  0  0  0
   10.4239   -1.7677   22.2230 N   0  0  0  0  0  0  0  0  0  0  0  0
    9.9468   -4.5953   20.1709 C   0  0  0  0  0  0  0  0  0  0  0  0
   10.0366   -3.0590   23.9864 N   0  0  0  0  0  0  0  0  0  0  0  0
    7.1191   -7.3636   15.7739 C   0  0  0  0  0  0  0  0  0  0  0  0
    5.9612   -8.3203   17.2732 N   0  0  0  0  0  0  0  0  0  0  0  0
    8.5296   -5.9814   17.1841 C   0  0  0  0  0  0  0  0  0  0  0  0
    9.1527   -5.2118   16.2116 C   0  0  0  0  0  0  0  0  0  0  0  0
   10.3364   -3.8368   22.9255 O   0  0  0  0  0  0  0  0  0  0  0  0
    9.6947   -4.8407   18.8534 C   0  0  0  0  0  0  0  0  0  0  0  0
    9.1596    1.7042   24.1381 C   0  0  0  0  0  0  0  0  0  0  0  0
   11.0456   -2.9774   18.2694 N   0  0  0  0  0  0  0  0  0  0  0  0
   10.4788   -3.0457   21.8593 C   0  0  0  0  0  0  0  0  0  0  0  0
    8.8693   -5.8099   18.4657 N   0  0  0  0  0  0  0  0  0  0  0  0
    8.9892   -0.7926   25.4573 C   0  0  0  0  0  0  0  0  0  0  0  0
   10.5677   -3.4462   20.5323 C   0  0  0  0  0  0  0  0  0  0  0  0
  1  8  1  0
  1 12  4  0
  1 14  4  0
  2  3  4  0
  2 18  4  0
  3 20  4  0
  3 22  4  0
  4 11  4  0
  4 21  4  0
  5  9  4  0
  5 16  4  0
  6 15  4  0
  6 16  4  0
  7 22  4  0
  7 26  4  0
  8 10  4  0
  8 25  4  0
  9 15  4  0
  9 17  1  0
 10 21  4  0
 11 25  4  0
 12 23  4  0
 13 20  4  0
 13 26  4  0
 14 19  4  0
 17 18  4  0
 17 24  4  0
 19 23  4  0
 20 24  4  0
 23 26  1  0
M  END
$$$$

 Created by Python create_sdf_string function

 26 30  0  0  0  0  0  0  0  0999 V2000
   10.0084   -1.8019   23.4945 C   0  0  0  0  0  0  0  0  0  0  0  0
   10.0005   -4.2520   16.5631 C   0  0  0  0  0  0  0  0  0  0  0  0
   10.2759   -4.0036   17.8845 C   0  0  0  0  0  0  0  0  0  0  0  0
    8.5652    1.5478   25.3778 N   0  0  0  0  0  0  0  0  0  0  0  0
    6.8048   -7.5457   17.8752 C   0  0  0  0  0  0  0  0  0  0  0  0
    6.1721   -8.2186   15.9886 N   0  0  0  0  0  0  0  0  0  0  0  0
   11.1764   -2.6600   19.5604 C   0  0  0  0  0  0  0  0  0  0  0  0
    9.5491   -0.6380   24.1912 C   0  0  0  0  0  0  0  0  0  0  0  0
    7.5337   -6.9256   16.9519 C   0  0  0  0  0  0  0  0  0  0  0  0
    9.6782    0.5671   23.5143 C   0  0  0  0  0  0  0  0  0  0  0  0
    8.4532    0.3482   26.0821 C   0  0  0  0  0  0  0  0  0  0  0  0
   10.4239   -1.7677   22.2230 N   0  0  0  0  0  0  0  0  0  0  0  0
    9.9468   -4.5953   20.1709 C   0  0  0  0  0  0  0  0  0  0  0  0
   10.0366   -3.0590   23.9864 N   0  0  0  0  0  0  0  0  0  0  0  0
    7.1191   -7.3636   15.7739 C   0  0  0  0  0  0  0  0  0  0  0  0
    5.9612   -8.3203   17.2732 N   0  0  0  0  0  0  0  0  0  0  0  0
    8.5296   -5.9814   17.1841 C   0  0  0  0  0  0  0  0  0  0  0  0
    9.1527   -5.2118   16.2116 C   0  0  0  0  0  0  0  0  0  0  0  0
   10.3364   -3.8368   22.9255 O   0  0  0  0  0  0  0  0  0  0  0  0
    9.6947   -4.8407   18.8534 C   0  0  0  0  0  0  0  0  0  0  0  0
    9.1596    1.7042   24.1381 C   0  0  0  0  0  0  0  0  0  0  0  0
   11.0456   -2.9774   18.2694 N   0  0  0  0  0  0  0  0  0  0  0  0
   10.4788   -3.0457   21.8593 C   0  0  0  0  0  0  0  0  0  0  0  0
    8.8693   -5.8099   18.4657 N   0  0  0  0  0  0  0  0  0  0  0  0
    8.9892   -0.7926   25.4573 C   0  0  0  0  0  0  0  0  0  0  0  0
   10.5677   -3.4462   20.5323 C   0  0  0  0  0  0  0  0  0  0  0  0
  1  8  1  0
  1 12  4  0
  1 14  4  0
  2  3  4  0
  2 18  4  0
  3 20  4  0
  3 22  4  0
  4 11  4  0
  4 21  4  0
  5  9  4  0
  5 16  4  0
  6 15  4  0
  6 16  4  0
  7 22  4  0
  7 26  4  0
  8 10  4  0
  8 25  4  0
  9 15  4  0
  9 17  1  0
 10 21  4  0
 11 25  4  0
 12 23  4  0
 13 20  4  0
 13 26  4  0
 14 19  4  0
 17 18  4  0
 17 24  4  0
 19 23  4  0
 20 24  4  0
 23 26  1  0
M  END
$$$$

 Created by Python create_sdf_string function

 26 30  0  0  0  0  0  0  0  0999 V2000
   10.0084   -1.8019   23.4945 C   0  0  0  0  0  0  0  0  0  0  0  0
   10.0005   -4.2520   16.5631 C   0  0  0  0  0  0  0  0  0  0  0  0
   10.2759   -4.0036   17.8845 C   0  0  0  0  0  0  0  0  0  0  0  0
    8.5652    1.5478   25.3778 N   0  0  0  0  0  0  0  0  0  0  0  0
    6.8048   -7.5457   17.8752 C   0  0  0  0  0  0  0  0  0  0  0  0
    6.1721   -8.2186   15.9886 N   0  0  0  0  0  0  0  0  0  0  0  0
   11.1764   -2.6600   19.5604 C   0  0  0  0  0  0  0  0  0  0  0  0
    9.5491   -0.6380   24.1912 C   0  0  0  0  0  0  0  0  0  0  0  0
    7.5337   -6.9256   16.9519 C   0  0  0  0  0  0  0  0  0  0  0  0
    9.6782    0.5671   23.5143 C   0  0  0  0  0  0  0  0  0  0  0  0
    8.4532    0.3482   26.0821 C   0  0  0  0  0  0  0  0  0  0  0  0
   10.4239   -1.7677   22.2230 N   0  0  0  0  0  0  0  0  0  0  0  0
    9.9468   -4.5953   20.1709 C   0  0  0  0  0  0  0  0  0  0  0  0
   10.0366   -3.0590   23.9864 N   0  0  0  0  0  0  0  0  0  0  0  0
    7.1191   -7.3636   15.7739 C   0  0  0  0  0  0  0  0  0  0  0  0
    5.9612   -8.3203   17.2732 N   0  0  0  0  0  0  0  0  0  0  0  0
    8.5296   -5.9814   17.1841 C   0  0  0  0  0  0  0  0  0  0  0  0
    9.1527   -5.2118   16.2116 C   0  0  0  0  0  0  0  0  0  0  0  0
   10.3364   -3.8368   22.9255 O   0  0  0  0  0  0  0  0  0  0  0  0
    9.6947   -4.8407   18.8534 C   0  0  0  0  0  0  0  0  0  0  0  0
    9.1596    1.7042   24.1381 C   0  0  0  0  0  0  0  0  0  0  0  0
   11.0456   -2.9774   18.2694 N   0  0  0  0  0  0  0  0  0  0  0  0
   10.4788   -3.0457   21.8593 C   0  0  0  0  0  0  0  0  0  0  0  0
    8.8693   -5.8099   18.4657 N   0  0  0  0  0  0  0  0  0  0  0  0
    8.9892   -0.7926   25.4573 C   0  0  0  0  0  0  0  0  0  0  0  0
   10.5677   -3.4462   20.5323 C   0  0  0  0  0  0  0  0  0  0  0  0
  1  8  1  0
  1 12  4  0
  1 14  4  0
  2  3  4  0
  2 18  4  0
  3 20  4  0
  3 22  4  0
  4 11  4  0
  4 21  4  0
  5  9  4  0
  5 16  4  0
  6 15  4  0
  6 16  4  0
  7 22  4  0
  7 26  4  0
  8 10  4  0
  8 25  4  0
  9 15  4  0
  9 17  1  0
 10 21  4  0
 11 25  4  0
 12 23  4  0
 13 20  4  0
 13 26  4  0
 14 19  4  0
 17 18  4  0
 17 24  4  0
 19 23  4  0
 20 24  4  0
 23 26  1  0
M  END
$$$$

 Created by Python create_sdf_string function

 26 30  0  0  0  0  0  0  0  0999 V2000
   10.0084   -1.8019   23.4945 C   0  0  0  0  0  0  0  0  0  0  0  0
   10.0005   -4.2520   16.5631 C   0  0  0  0  0  0  0  0  0  0  0  0
   10.2759   -4.0036   17.8845 C   0  0  0  0  0  0  0  0  0  0  0  0
    8.5652    1.5478   25.3778 N   0  0  0  0  0  0  0  0  0  0  0  0
    6.8048   -7.5457   17.8752 C   0  0  0  0  0  0  0  0  0  0  0  0
    6.1721   -8.2186   15.9886 N   0  0  0  0  0  0  0  0  0  0  0  0
   11.1764   -2.6600   19.5604 C   0  0  0  0  0  0  0  0  0  0  0  0
    9.5491   -0.6380   24.1912 C   0  0  0  0  0  0  0  0  0  0  0  0
    7.5337   -6.9256   16.9519 C   0  0  0  0  0  0  0  0  0  0  0  0
    9.6782    0.5671   23.5143 C   0  0  0  0  0  0  0  0  0  0  0  0
    8.4532    0.3482   26.0821 C   0  0  0  0  0  0  0  0  0  0  0  0
   10.4239   -1.7677   22.2230 N   0  0  0  0  0  0  0  0  0  0  0  0
    9.9468   -4.5953   20.1709 C   0  0  0  0  0  0  0  0  0  0  0  0
   10.0366   -3.0590   23.9864 N   0  0  0  0  0  0  0  0  0  0  0  0
    7.1191   -7.3636   15.7739 C   0  0  0  0  0  0  0  0  0  0  0  0
    5.9612   -8.3203   17.2732 N   0  0  0  0  0  0  0  0  0  0  0  0
    8.5296   -5.9814   17.1841 C   0  0  0  0  0  0  0  0  0  0  0  0
    9.1527   -5.2118   16.2116 C   0  0  0  0  0  0  0  0  0  0  0  0
   10.3364   -3.8368   22.9255 O   0  0  0  0  0  0  0  0  0  0  0  0
    9.6947   -4.8407   18.8534 C   0  0  0  0  0  0  0  0  0  0  0  0
    9.1596    1.7042   24.1381 C   0  0  0  0  0  0  0  0  0  0  0  0
   11.0456   -2.9774   18.2694 N   0  0  0  0  0  0  0  0  0  0  0  0
   10.4788   -3.0457   21.8593 C   0  0  0  0  0  0  0  0  0  0  0  0
    8.8693   -5.8099   18.4657 N   0  0  0  0  0  0  0  0  0  0  0  0
    8.9892   -0.7926   25.4573 C   0  0  0  0  0  0  0  0  0  0  0  0
   10.5677   -3.4462   20.5323 C   0  0  0  0  0  0  0  0  0  0  0  0
  1  8  1  0
  1 12  4  0
  1 14  4  0
  2  3  4  0
  2 18  4  0
  3 20  4  0
  3 22  4  0
  4 11  4  0
  4 21  4  0
  5  9  4  0
  5 16  4  0
  6 15  4  0
  6 16  4  0
  7 22  4  0
  7 26  4  0
  8 10  4  0
  8 25  4  0
  9 15  4  0
  9 17  1  0
 10 21  4  0
 11 25  4  0
 12 23  4  0
 13 20  4  0
 13 26  4  0
 14 19  4  0
 17 18  4  0
 17 24  4  0
 19 23  4  0
 20 24  4  0
 23 26  1  0
M  END
$$$$

 Created by Python create_sdf_string function

 26 30  0  0  0  0  0  0  0  0999 V2000
   10.0084   -1.8019   23.4945 C   0  0  0  0  0  0  0  0  0  0  0  0
   10.0005   -4.2520   16.5631 C   0  0  0  0  0  0  0  0  0  0  0  0
   10.2759   -4.0036   17.8845 C   0  0  0  0  0  0  0  0  0  0  0  0
    8.5652    1.5478   25.3778 N   0  0  0  0  0  0  0  0  0  0  0  0
    6.8048   -7.5457   17.8752 C   0  0  0  0  0  0  0  0  0  0  0  0
    6.1721   -8.2186   15.9886 N   0  0  0  0  0  0  0  0  0  0  0  0
   11.1764   -2.6600   19.5604 C   0  0  0  0  0  0  0  0  0  0  0  0
    9.5491   -0.6380   24.1912 C   0  0  0  0  0  0  0  0  0  0  0  0
    7.5337   -6.9256   16.9519 C   0  0  0  0  0  0  0  0  0  0  0  0
    9.6782    0.5671   23.5143 C   0  0  0  0  0  0  0  0  0  0  0  0
    8.4532    0.3482   26.0821 C   0  0  0  0  0  0  0  0  0  0  0  0
   10.4239   -1.7677   22.2230 N   0  0  0  0  0  0  0  0  0  0  0  0
    9.9468   -4.5953   20.1709 C   0  0  0  0  0  0  0  0  0  0  0  0
   10.0366   -3.0590   23.9864 N   0  0  0  0  0  0  0  0  0  0  0  0
    7.1191   -7.3636   15.7739 C   0  0  0  0  0  0  0  0  0  0  0  0
    5.9612   -8.3203   17.2732 N   0  0  0  0  0  0  0  0  0  0  0  0
    8.5296   -5.9814   17.1841 C   0  0  0  0  0  0  0  0  0  0  0  0
    9.1527   -5.2118   16.2116 C   0  0  0  0  0  0  0  0  0  0  0  0
   10.3364   -3.8368   22.9255 O   0  0  0  0  0  0  0  0  0  0  0  0
    9.6947   -4.8407   18.8534 C   0  0  0  0  0  0  0  0  0  0  0  0
    9.1596    1.7042   24.1381 C   0  0  0  0  0  0  0  0  0  0  0  0
   11.0456   -2.9774   18.2694 N   0  0  0  0  0  0  0  0  0  0  0  0
   10.4788   -3.0457   21.8593 C   0  0  0  0  0  0  0  0  0  0  0  0
    8.8693   -5.8099   18.4657 N   0  0  0  0  0  0  0  0  0  0  0  0
    8.9892   -0.7926   25.4573 C   0  0  0  0  0  0  0  0  0  0  0  0
   10.5677   -3.4462   20.5323 C   0  0  0  0  0  0  0  0  0  0  0  0
  1  8  1  0
  1 12  4  0
  1 14  4  0
  2  3  4  0
  2 18  4  0
  3 20  4  0
  3 22  4  0
  4 11  4  0
  4 21  4  0
  5  9  4  0
  5 16  4  0
  6 15  4  0
  6 16  4  0
  7 22  4  0
  7 26  4  0
  8 10  4  0
  8 25  4  0
  9 15  4  0
  9 17  1  0
 10 21  4  0
 11 25  4  0
 12 23  4  0
 13 20  4  0
 13 26  4  0
 14 19  4  0
 17 18  4  0
 17 24  4  0
 19 23  4  0
 20 24  4  0
 23 26  1  0
M  END
$$$$

 Created by Python create_sdf_string function

 26 30  0  0  0  0  0  0  0  0999 V2000
   10.0084   -1.8019   23.4945 C   0  0  0  0  0  0  0  0  0  0  0  0
   10.0005   -4.2520   16.5631 C   0  0  0  0  0  0  0  0  0  0  0  0
   10.2759   -4.0036   17.8845 C   0  0  0  0  0  0  0  0  0  0  0  0
    8.5652    1.5478   25.3778 N   0  0  0  0  0  0  0  0  0  0  0  0
    6.8048   -7.5457   17.8752 C   0  0  0  0  0  0  0  0  0  0  0  0
    6.1721   -8.2186   15.9886 N   0  0  0  0  0  0  0  0  0  0  0  0
   11.1764   -2.6600   19.5604 C   0  0  0  0  0  0  0  0  0  0  0  0
    9.5491   -0.6380   24.1912 C   0  0  0  0  0  0  0  0  0  0  0  0
    7.5337   -6.9256   16.9519 C   0  0  0  0  0  0  0  0  0  0  0  0
    9.6782    0.5671   23.5143 C   0  0  0  0  0  0  0  0  0  0  0  0
    8.4532    0.3482   26.0821 C   0  0  0  0  0  0  0  0  0  0  0  0
   10.4239   -1.7677   22.2230 N   0  0  0  0  0  0  0  0  0  0  0  0
    9.9468   -4.5953   20.1709 C   0  0  0  0  0  0  0  0  0  0  0  0
   10.0366   -3.0590   23.9864 N   0  0  0  0  0  0  0  0  0  0  0  0
    7.1191   -7.3636   15.7739 C   0  0  0  0  0  0  0  0  0  0  0  0
    5.9612   -8.3203   17.2732 N   0  0  0  0  0  0  0  0  0  0  0  0
    8.5296   -5.9814   17.1841 C   0  0  0  0  0  0  0  0  0  0  0  0
    9.1527   -5.2118   16.2116 C   0  0  0  0  0  0  0  0  0  0  0  0
   10.3364   -3.8368   22.9255 O   0  0  0  0  0  0  0  0  0  0  0  0
    9.6947   -4.8407   18.8534 C   0  0  0  0  0  0  0  0  0  0  0  0
    9.1596    1.7042   24.1381 C   0  0  0  0  0  0  0  0  0  0  0  0
   11.0456   -2.9774   18.2694 N   0  0  0  0  0  0  0  0  0  0  0  0
   10.4788   -3.0457   21.8593 C   0  0  0  0  0  0  0  0  0  0  0  0
    8.8693   -5.8099   18.4657 N   0  0  0  0  0  0  0  0  0  0  0  0
    8.9892   -0.7926   25.4573 C   0  0  0  0  0  0  0  0  0  0  0  0
   10.5677   -3.4462   20.5323 C   0  0  0  0  0  0  0  0  0  0  0  0
  1  8  1  0
  1 12  4  0
  1 14  4  0
  2  3  4  0
  2 18  4  0
  3 20  4  0
  3 22  4  0
  4 11  4  0
  4 21  4  0
  5  9  4  0
  5 16  4  0
  6 15  4  0
  6 16  4  0
  7 22  4  0
  7 26  4  0
  8 10  4  0
  8 25  4  0
  9 15  4  0
  9 17  1  0
 10 21  4  0
 11 25  4  0
 12 23  4  0
 13 20  4  0
 13 26  4  0
 14 19  4  0
 17 18  4  0
 17 24  4  0
 19 23  4  0
 20 24  4  0
 23 26  1  0
M  END
$$$$

 Created by Python create_sdf_string function

 26 30  0  0  0  0  0  0  0  0999 V2000
   10.0084   -1.8019   23.4945 C   0  0  0  0  0  0  0  0  0  0  0  0
   10.0005   -4.2520   16.5631 C   0  0  0  0  0  0  0  0  0  0  0  0
   10.2759   -4.0036   17.8845 C   0  0  0  0  0  0  0  0  0  0  0  0
    8.5652    1.5478   25.3778 N   0  0  0  0  0  0  0  0  0  0  0  0
    6.8048   -7.5457   17.8752 C   0  0  0  0  0  0  0  0  0  0  0  0
    6.1721   -8.2186   15.9886 N   0  0  0  0  0  0  0  0  0  0  0  0
   11.1764   -2.6600   19.5604 C   0  0  0  0  0  0  0  0  0  0  0  0
    9.5491   -0.6380   24.1912 C   0  0  0  0  0  0  0  0  0  0  0  0
    7.5337   -6.9256   16.9519 C   0  0  0  0  0  0  0  0  0  0  0  0
    9.6782    0.5671   23.5143 C   0  0  0  0  0  0  0  0  0  0  0  0
    8.4532    0.3482   26.0821 C   0  0  0  0  0  0  0  0  0  0  0  0
   10.4239   -1.7677   22.2230 N   0  0  0  0  0  0  0  0  0  0  0  0
    9.9468   -4.5953   20.1709 C   0  0  0  0  0  0  0  0  0  0  0  0
   10.0366   -3.0590   23.9864 N   0  0  0  0  0  0  0  0  0  0  0  0
    7.1191   -7.3636   15.7739 C   0  0  0  0  0  0  0  0  0  0  0  0
    5.9612   -8.3203   17.2732 N   0  0  0  0  0  0  0  0  0  0  0  0
    8.5296   -5.9814   17.1841 C   0  0  0  0  0  0  0  0  0  0  0  0
    9.1527   -5.2118   16.2116 C   0  0  0  0  0  0  0  0  0  0  0  0
   10.3364   -3.8368   22.9255 O   0  0  0  0  0  0  0  0  0  0  0  0
    9.6947   -4.8407   18.8534 C   0  0  0  0  0  0  0  0  0  0  0  0
    9.1596    1.7042   24.1381 C   0  0  0  0  0  0  0  0  0  0  0  0
   11.0456   -2.9774   18.2694 N   0  0  0  0  0  0  0  0  0  0  0  0
   10.4788   -3.0457   21.8593 C   0  0  0  0  0  0  0  0  0  0  0  0
    8.8693   -5.8099   18.4657 N   0  0  0  0  0  0  0  0  0  0  0  0
    8.9892   -0.7926   25.4573 C   0  0  0  0  0  0  0  0  0  0  0  0
   10.5677   -3.4462   20.5323 C   0  0  0  0  0  0  0  0  0  0  0  0
  1  8  1  0
  1 12  4  0
  1 14  4  0
  2  3  4  0
  2 18  4  0
  3 20  4  0
  3 22  4  0
  4 11  4  0
  4 21  4  0
  5  9  4  0
  5 16  4  0
  6 15  4  0
  6 16  4  0
  7 22  4  0
  7 26  4  0
  8 10  4  0
  8 25  4  0
  9 15  4  0
  9 17  1  0
 10 21  4  0
 11 25  4  0
 12 23  4  0
 13 20  4  0
 13 26  4  0
 14 19  4  0
 17 18  4  0
 17 24  4  0
 19 23  4  0
 20 24  4  0
 23 26  1  0
M  END
$$$$

 Created by Python create_sdf_string function

 26 30  0  0  0  0  0  0  0  0999 V2000
   10.0084   -1.8019   23.4945 C   0  0  0  0  0  0  0  0  0  0  0  0
   10.0005   -4.2520   16.5631 C   0  0  0  0  0  0  0  0  0  0  0  0
   10.2759   -4.0036   17.8845 C   0  0  0  0  0  0  0  0  0  0  0  0
    8.5652    1.5478   25.3778 N   0  0  0  0  0  0  0  0  0  0  0  0
    6.8048   -7.5457   17.8752 C   0  0  0  0  0  0  0  0  0  0  0  0
    6.1721   -8.2186   15.9886 N   0  0  0  0  0  0  0  0  0  0  0  0
   11.1764   -2.6600   19.5604 C   0  0  0  0  0  0  0  0  0  0  0  0
    9.5491   -0.6380   24.1912 C   0  0  0  0  0  0  0  0  0  0  0  0
    7.5337   -6.9256   16.9519 C   0  0  0  0  0  0  0  0  0  0  0  0
    9.6782    0.5671   23.5143 C   0  0  0  0  0  0  0  0  0  0  0  0
    8.4532    0.3482   26.0821 C   0  0  0  0  0  0  0  0  0  0  0  0
   10.4239   -1.7677   22.2230 N   0  0  0  0  0  0  0  0  0  0  0  0
    9.9468   -4.5953   20.1709 C   0  0  0  0  0  0  0  0  0  0  0  0
   10.0366   -3.0590   23.9864 N   0  0  0  0  0  0  0  0  0  0  0  0
    7.1191   -7.3636   15.7739 C   0  0  0  0  0  0  0  0  0  0  0  0
    5.9612   -8.3203   17.2732 N   0  0  0  0  0  0  0  0  0  0  0  0
    8.5296   -5.9814   17.1841 C   0  0  0  0  0  0  0  0  0  0  0  0
    9.1527   -5.2118   16.2116 C   0  0  0  0  0  0  0  0  0  0  0  0
   10.3364   -3.8368   22.9255 O   0  0  0  0  0  0  0  0  0  0  0  0
    9.6947   -4.8407   18.8534 C   0  0  0  0  0  0  0  0  0  0  0  0
    9.1596    1.7042   24.1381 C   0  0  0  0  0  0  0  0  0  0  0  0
   11.0456   -2.9774   18.2694 N   0  0  0  0  0  0  0  0  0  0  0  0
   10.4788   -3.0457   21.8593 C   0  0  0  0  0  0  0  0  0  0  0  0
    8.8693   -5.8099   18.4657 N   0  0  0  0  0  0  0  0  0  0  0  0
    8.9892   -0.7926   25.4573 C   0  0  0  0  0  0  0  0  0  0  0  0
   10.5677   -3.4462   20.5323 C   0  0  0  0  0  0  0  0  0  0  0  0
  1  8  1  0
  1 12  4  0
  1 14  4  0
  2  3  4  0
  2 18  4  0
  3 20  4  0
  3 22  4  0
  4 11  4  0
  4 21  4  0
  5  9  4  0
  5 16  4  0
  6 15  4  0
  6 16  4  0
  7 22  4  0
  7 26  4  0
  8 10  4  0
  8 25  4  0
  9 15  4  0
  9 17  1  0
 10 21  4  0
 11 25  4  0
 12 23  4  0
 13 20  4  0
 13 26  4  0
 14 19  4  0
 17 18  4  0
 17 24  4  0
 19 23  4  0
 20 24  4  0
 23 26  1  0
M  END
$$$$

 Created by Python create_sdf_string function

 26 30  0  0  0  0  0  0  0  0999 V2000
   10.0084   -1.8019   23.4945 C   0  0  0  0  0  0  0  0  0  0  0  0
   10.0005   -4.2520   16.5631 C   0  0  0  0  0  0  0  0  0  0  0  0
   10.2759   -4.0036   17.8845 C   0  0  0  0  0  0  0  0  0  0  0  0
    8.5652    1.5478   25.3778 N   0  0  0  0  0  0  0  0  0  0  0  0
    6.8048   -7.5457   17.8752 C   0  0  0  0  0  0  0  0  0  0  0  0
    6.1721   -8.2186   15.9886 N   0  0  0  0  0  0  0  0  0  0  0  0
   11.1764   -2.6600   19.5604 C   0  0  0  0  0  0  0  0  0  0  0  0
    9.5491   -0.6380   24.1912 C   0  0  0  0  0  0  0  0  0  0  0  0
    7.5337   -6.9256   16.9519 C   0  0  0  0  0  0  0  0  0  0  0  0
    9.6782    0.5671   23.5143 C   0  0  0  0  0  0  0  0  0  0  0  0
    8.4532    0.3482   26.0821 C   0  0  0  0  0  0  0  0  0  0  0  0
   10.4239   -1.7677   22.2230 N   0  0  0  0  0  0  0  0  0  0  0  0
    9.9468   -4.5953   20.1709 C   0  0  0  0  0  0  0  0  0  0  0  0
   10.0366   -3.0590   23.9864 N   0  0  0  0  0  0  0  0  0  0  0  0
    7.1191   -7.3636   15.7739 C   0  0  0  0  0  0  0  0  0  0  0  0
    5.9612   -8.3203   17.2732 N   0  0  0  0  0  0  0  0  0  0  0  0
    8.5296   -5.9814   17.1841 C   0  0  0  0  0  0  0  0  0  0  0  0
    9.1527   -5.2118   16.2116 C   0  0  0  0  0  0  0  0  0  0  0  0
   10.3364   -3.8368   22.9255 O   0  0  0  0  0  0  0  0  0  0  0  0
    9.6947   -4.8407   18.8534 C   0  0  0  0  0  0  0  0  0  0  0  0
    9.1596    1.7042   24.1381 C   0  0  0  0  0  0  0  0  0  0  0  0
   11.0456   -2.9774   18.2694 N   0  0  0  0  0  0  0  0  0  0  0  0
   10.4788   -3.0457   21.8593 C   0  0  0  0  0  0  0  0  0  0  0  0
    8.8693   -5.8099   18.4657 N   0  0  0  0  0  0  0  0  0  0  0  0
    8.9892   -0.7926   25.4573 C   0  0  0  0  0  0  0  0  0  0  0  0
   10.5677   -3.4462   20.5323 C   0  0  0  0  0  0  0  0  0  0  0  0
  1  8  1  0
  1 12  4  0
  1 14  4  0
  2  3  4  0
  2 18  4  0
  3 20  4  0
  3 22  4  0
  4 11  4  0
  4 21  4  0
  5  9  4  0
  5 16  4  0
  6 15  4  0
  6 16  4  0
  7 22  4  0
  7 26  4  0
  8 10  4  0
  8 25  4  0
  9 15  4  0
  9 17  1  0
 10 21  4  0
 11 25  4  0
 12 23  4  0
 13 20  4  0
 13 26  4  0
 14 19  4  0
 17 18  4  0
 17 24  4  0
 19 23  4  0
 20 24  4  0
 23 26  1  0
M  END
$$$$

 Created by Python create_sdf_string function

 26 30  0  0  0  0  0  0  0  0999 V2000
   10.0084   -1.8019   23.4945 C   0  0  0  0  0  0  0  0  0  0  0  0
   10.0005   -4.2520   16.5631 C   0  0  0  0  0  0  0  0  0  0  0  0
   10.2759   -4.0036   17.8845 C   0  0  0  0  0  0  0  0  0  0  0  0
    8.5652    1.5478   25.3778 N   0  0  0  0  0  0  0  0  0  0  0  0
    6.8048   -7.5457   17.8752 C   0  0  0  0  0  0  0  0  0  0  0  0
    6.1721   -8.2186   15.9886 N   0  0  0  0  0  0  0  0  0  0  0  0
   11.1764   -2.6600   19.5604 C   0  0  0  0  0  0  0  0  0  0  0  0
    9.5491   -0.6380   24.1912 C   0  0  0  0  0  0  0  0  0  0  0  0
    7.5337   -6.9256   16.9519 C   0  0  0  0  0  0  0  0  0  0  0  0
    9.6782    0.5671   23.5143 C   0  0  0  0  0  0  0  0  0  0  0  0
    8.4532    0.3482   26.0821 C   0  0  0  0  0  0  0  0  0  0  0  0
   10.4239   -1.7677   22.2230 N   0  0  0  0  0  0  0  0  0  0  0  0
    9.9468   -4.5953   20.1709 C   0  0  0  0  0  0  0  0  0  0  0  0
   10.0366   -3.0590   23.9864 N   0  0  0  0  0  0  0  0  0  0  0  0
    7.1191   -7.3636   15.7739 C   0  0  0  0  0  0  0  0  0  0  0  0
    5.9612   -8.3203   17.2732 N   0  0  0  0  0  0  0  0  0  0  0  0
    8.5296   -5.9814   17.1841 C   0  0  0  0  0  0  0  0  0  0  0  0
    9.1527   -5.2118   16.2116 C   0  0  0  0  0  0  0  0  0  0  0  0
   10.3364   -3.8368   22.9255 O   0  0  0  0  0  0  0  0  0  0  0  0
    9.6947   -4.8407   18.8534 C   0  0  0  0  0  0  0  0  0  0  0  0
    9.1596    1.7042   24.1381 C   0  0  0  0  0  0  0  0  0  0  0  0
   11.0456   -2.9774   18.2694 N   0  0  0  0  0  0  0  0  0  0  0  0
   10.4788   -3.0457   21.8593 C   0  0  0  0  0  0  0  0  0  0  0  0
    8.8693   -5.8099   18.4657 N   0  0  0  0  0  0  0  0  0  0  0  0
    8.9892   -0.7926   25.4573 C   0  0  0  0  0  0  0  0  0  0  0  0
   10.5677   -3.4462   20.5323 C   0  0  0  0  0  0  0  0  0  0  0  0
  1  8  1  0
  1 12  4  0
  1 14  4  0
  2  3  4  0
  2 18  4  0
  3 20  4  0
  3 22  4  0
  4 11  4  0
  4 21  4  0
  5  9  4  0
  5 16  4  0
  6 15  4  0
  6 16  4  0
  7 22  4  0
  7 26  4  0
  8 10  4  0
  8 25  4  0
  9 15  4  0
  9 17  1  0
 10 21  4  0
 11 25  4  0
 12 23  4  0
 13 20  4  0
 13 26  4  0
 14 19  4  0
 17 18  4  0
 17 24  4  0
 19 23  4  0
 20 24  4  0
 23 26  1  0
M  END
$$$$

 Created by Python create_sdf_string function

 26 30  0  0  0  0  0  0  0  0999 V2000
   10.0084   -1.8019   23.4945 C   0  0  0  0  0  0  0  0  0  0  0  0
   10.0005   -4.2520   16.5631 C   0  0  0  0  0  0  0  0  0  0  0  0
   10.2759   -4.0036   17.8845 C   0  0  0  0  0  0  0  0  0  0  0  0
    8.5652    1.5478   25.3778 N   0  0  0  0  0  0  0  0  0  0  0  0
    6.8048   -7.5457   17.8752 C   0  0  0  0  0  0  0  0  0  0  0  0
    6.1721   -8.2186   15.9886 N   0  0  0  0  0  0  0  0  0  0  0  0
   11.1764   -2.6600   19.5604 C   0  0  0  0  0  0  0  0  0  0  0  0
    9.5491   -0.6380   24.1912 C   0  0  0  0  0  0  0  0  0  0  0  0
    7.5337   -6.9256   16.9519 C   0  0  0  0  0  0  0  0  0  0  0  0
    9.6782    0.5671   23.5143 C   0  0  0  0  0  0  0  0  0  0  0  0
    8.4532    0.3482   26.0821 C   0  0  0  0  0  0  0  0  0  0  0  0
   10.4239   -1.7677   22.2230 N   0  0  0  0  0  0  0  0  0  0  0  0
    9.9468   -4.5953   20.1709 C   0  0  0  0  0  0  0  0  0  0  0  0
   10.0366   -3.0590   23.9864 N   0  0  0  0  0  0  0  0  0  0  0  0
    7.1191   -7.3636   15.7739 C   0  0  0  0  0  0  0  0  0  0  0  0
    5.9612   -8.3203   17.2732 N   0  0  0  0  0  0  0  0  0  0  0  0
    8.5296   -5.9814   17.1841 C   0  0  0  0  0  0  0  0  0  0  0  0
    9.1527   -5.2118   16.2116 C   0  0  0  0  0  0  0  0  0  0  0  0
   10.3364   -3.8368   22.9255 O   0  0  0  0  0  0  0  0  0  0  0  0
    9.6947   -4.8407   18.8534 C   0  0  0  0  0  0  0  0  0  0  0  0
    9.1596    1.7042   24.1381 C   0  0  0  0  0  0  0  0  0  0  0  0
   11.0456   -2.9774   18.2694 N   0  0  0  0  0  0  0  0  0  0  0  0
   10.4788   -3.0457   21.8593 C   0  0  0  0  0  0  0  0  0  0  0  0
    8.8693   -5.8099   18.4657 N   0  0  0  0  0  0  0  0  0  0  0  0
    8.9892   -0.7926   25.4573 C   0  0  0  0  0  0  0  0  0  0  0  0
   10.5677   -3.4462   20.5323 C   0  0  0  0  0  0  0  0  0  0  0  0
  1  8  1  0
  1 12  4  0
  1 14  4  0
  2  3  4  0
  2 18  4  0
  3 20  4  0
  3 22  4  0
  4 11  4  0
  4 21  4  0
  5  9  4  0
  5 16  4  0
  6 15  4  0
  6 16  4  0
  7 22  4  0
  7 26  4  0
  8 10  4  0
  8 25  4  0
  9 15  4  0
  9 17  1  0
 10 21  4  0
 11 25  4  0
 12 23  4  0
 13 20  4  0
 13 26  4  0
 14 19  4  0
 17 18  4  0
 17 24  4  0
 19 23  4  0
 20 24  4  0
 23 26  1  0
M  END
$$$$

 Created by Python create_sdf_string function

 26 30  0  0  0  0  0  0  0  0999 V2000
   10.0084   -1.8019   23.4945 C   0  0  0  0  0  0  0  0  0  0  0  0
   10.0005   -4.2520   16.5631 C   0  0  0  0  0  0  0  0  0  0  0  0
   10.2759   -4.0036   17.8845 C   0  0  0  0  0  0  0  0  0  0  0  0
    8.5652    1.5478   25.3778 N   0  0  0  0  0  0  0  0  0  0  0  0
    6.8048   -7.5457   17.8752 C   0  0  0  0  0  0  0  0  0  0  0  0
    6.1721   -8.2186   15.9886 N   0  0  0  0  0  0  0  0  0  0  0  0
   11.1764   -2.6600   19.5604 C   0  0  0  0  0  0  0  0  0  0  0  0
    9.5491   -0.6380   24.1912 C   0  0  0  0  0  0  0  0  0  0  0  0
    7.5337   -6.9256   16.9519 C   0  0  0  0  0  0  0  0  0  0  0  0
    9.6782    0.5671   23.5143 C   0  0  0  0  0  0  0  0  0  0  0  0
    8.4532    0.3482   26.0821 C   0  0  0  0  0  0  0  0  0  0  0  0
   10.4239   -1.7677   22.2230 N   0  0  0  0  0  0  0  0  0  0  0  0
    9.9468   -4.5953   20.1709 C   0  0  0  0  0  0  0  0  0  0  0  0
   10.0366   -3.0590   23.9864 N   0  0  0  0  0  0  0  0  0  0  0  0
    7.1191   -7.3636   15.7739 C   0  0  0  0  0  0  0  0  0  0  0  0
    5.9612   -8.3203   17.2732 N   0  0  0  0  0  0  0  0  0  0  0  0
    8.5296   -5.9814   17.1841 C   0  0  0  0  0  0  0  0  0  0  0  0
    9.1527   -5.2118   16.2116 C   0  0  0  0  0  0  0  0  0  0  0  0
   10.3364   -3.8368   22.9255 O   0  0  0  0  0  0  0  0  0  0  0  0
    9.6947   -4.8407   18.8534 C   0  0  0  0  0  0  0  0  0  0  0  0
    9.1596    1.7042   24.1381 C   0  0  0  0  0  0  0  0  0  0  0  0
   11.0456   -2.9774   18.2694 N   0  0  0  0  0  0  0  0  0  0  0  0
   10.4788   -3.0457   21.8593 C   0  0  0  0  0  0  0  0  0  0  0  0
    8.8693   -5.8099   18.4657 N   0  0  0  0  0  0  0  0  0  0  0  0
    8.9892   -0.7926   25.4573 C   0  0  0  0  0  0  0  0  0  0  0  0
   10.5677   -3.4462   20.5323 C   0  0  0  0  0  0  0  0  0  0  0  0
  1  8  1  0
  1 12  4  0
  1 14  4  0
  2  3  4  0
  2 18  4  0
  3 20  4  0
  3 22  4  0
  4 11  4  0
  4 21  4  0
  5  9  4  0
  5 16  4  0
  6 15  4  0
  6 16  4  0
  7 22  4  0
  7 26  4  0
  8 10  4  0
  8 25  4  0
  9 15  4  0
  9 17  1  0
 10 21  4  0
 11 25  4  0
 12 23  4  0
 13 20  4  0
 13 26  4  0
 14 19  4  0
 17 18  4  0
 17 24  4  0
 19 23  4  0
 20 24  4  0
 23 26  1  0
M  END
$$$$

 Created by Python create_sdf_string function

 26 30  0  0  0  0  0  0  0  0999 V2000
   10.0084   -1.8019   23.4945 C   0  0  0  0  0  0  0  0  0  0  0  0
   10.0005   -4.2520   16.5631 C   0  0  0  0  0  0  0  0  0  0  0  0
   10.2759   -4.0036   17.8845 C   0  0  0  0  0  0  0  0  0  0  0  0
    8.5652    1.5478   25.3778 N   0  0  0  0  0  0  0  0  0  0  0  0
    6.8048   -7.5457   17.8752 C   0  0  0  0  0  0  0  0  0  0  0  0
    6.1721   -8.2186   15.9886 N   0  0  0  0  0  0  0  0  0  0  0  0
   11.1764   -2.6600   19.5604 C   0  0  0  0  0  0  0  0  0  0  0  0
    9.5491   -0.6380   24.1912 C   0  0  0  0  0  0  0  0  0  0  0  0
    7.5337   -6.9256   16.9519 C   0  0  0  0  0  0  0  0  0  0  0  0
    9.6782    0.5671   23.5143 C   0  0  0  0  0  0  0  0  0  0  0  0
    8.4532    0.3482   26.0821 C   0  0  0  0  0  0  0  0  0  0  0  0
   10.4239   -1.7677   22.2230 N   0  0  0  0  0  0  0  0  0  0  0  0
    9.9468   -4.5953   20.1709 C   0  0  0  0  0  0  0  0  0  0  0  0
   10.0366   -3.0590   23.9864 N   0  0  0  0  0  0  0  0  0  0  0  0
    7.1191   -7.3636   15.7739 C   0  0  0  0  0  0  0  0  0  0  0  0
    5.9612   -8.3203   17.2732 N   0  0  0  0  0  0  0  0  0  0  0  0
    8.5296   -5.9814   17.1841 C   0  0  0  0  0  0  0  0  0  0  0  0
    9.1527   -5.2118   16.2116 C   0  0  0  0  0  0  0  0  0  0  0  0
   10.3364   -3.8368   22.9255 O   0  0  0  0  0  0  0  0  0  0  0  0
    9.6947   -4.8407   18.8534 C   0  0  0  0  0  0  0  0  0  0  0  0
    9.1596    1.7042   24.1381 C   0  0  0  0  0  0  0  0  0  0  0  0
   11.0456   -2.9774   18.2694 N   0  0  0  0  0  0  0  0  0  0  0  0
   10.4788   -3.0457   21.8593 C   0  0  0  0  0  0  0  0  0  0  0  0
    8.8693   -5.8099   18.4657 N   0  0  0  0  0  0  0  0  0  0  0  0
    8.9892   -0.7926   25.4573 C   0  0  0  0  0  0  0  0  0  0  0  0
   10.5677   -3.4462   20.5323 C   0  0  0  0  0  0  0  0  0  0  0  0
  1  8  1  0
  1 12  4  0
  1 14  4  0
  2  3  4  0
  2 18  4  0
  3 20  4  0
  3 22  4  0
  4 11  4  0
  4 21  4  0
  5  9  4  0
  5 16  4  0
  6 15  4  0
  6 16  4  0
  7 22  4  0
  7 26  4  0
  8 10  4  0
  8 25  4  0
  9 15  4  0
  9 17  1  0
 10 21  4  0
 11 25  4  0
 12 23  4  0
 13 20  4  0
 13 26  4  0
 14 19  4  0
 17 18  4  0
 17 24  4  0
 19 23  4  0
 20 24  4  0
 23 26  1  0
M  END
$$$$

 Created by Python create_sdf_string function

 26 30  0  0  0  0  0  0  0  0999 V2000
   10.0084   -1.8019   23.4945 C   0  0  0  0  0  0  0  0  0  0  0  0
   10.0005   -4.2520   16.5631 C   0  0  0  0  0  0  0  0  0  0  0  0
   10.2759   -4.0036   17.8845 C   0  0  0  0  0  0  0  0  0  0  0  0
    8.5652    1.5478   25.3778 N   0  0  0  0  0  0  0  0  0  0  0  0
    6.8048   -7.5457   17.8752 C   0  0  0  0  0  0  0  0  0  0  0  0
    6.1721   -8.2186   15.9886 N   0  0  0  0  0  0  0  0  0  0  0  0
   11.1764   -2.6600   19.5604 C   0  0  0  0  0  0  0  0  0  0  0  0
    9.5491   -0.6380   24.1912 C   0  0  0  0  0  0  0  0  0  0  0  0
    7.5337   -6.9256   16.9519 C   0  0  0  0  0  0  0  0  0  0  0  0
    9.6782    0.5671   23.5143 C   0  0  0  0  0  0  0  0  0  0  0  0
    8.4532    0.3482   26.0821 C   0  0  0  0  0  0  0  0  0  0  0  0
   10.4239   -1.7677   22.2230 N   0  0  0  0  0  0  0  0  0  0  0  0
    9.9468   -4.5953   20.1709 C   0  0  0  0  0  0  0  0  0  0  0  0
   10.0366   -3.0590   23.9864 N   0  0  0  0  0  0  0  0  0  0  0  0
    7.1191   -7.3636   15.7739 C   0  0  0  0  0  0  0  0  0  0  0  0
    5.9612   -8.3203   17.2732 N   0  0  0  0  0  0  0  0  0  0  0  0
    8.5296   -5.9814   17.1841 C   0  0  0  0  0  0  0  0  0  0  0  0
    9.1527   -5.2118   16.2116 C   0  0  0  0  0  0  0  0  0  0  0  0
   10.3364   -3.8368   22.9255 O   0  0  0  0  0  0  0  0  0  0  0  0
    9.6947   -4.8407   18.8534 C   0  0  0  0  0  0  0  0  0  0  0  0
    9.1596    1.7042   24.1381 C   0  0  0  0  0  0  0  0  0  0  0  0
   11.0456   -2.9774   18.2694 N   0  0  0  0  0  0  0  0  0  0  0  0
   10.4788   -3.0457   21.8593 C   0  0  0  0  0  0  0  0  0  0  0  0
    8.8693   -5.8099   18.4657 N   0  0  0  0  0  0  0  0  0  0  0  0
    8.9892   -0.7926   25.4573 C   0  0  0  0  0  0  0  0  0  0  0  0
   10.5677   -3.4462   20.5323 C   0  0  0  0  0  0  0  0  0  0  0  0
  1  8  1  0
  1 12  4  0
  1 14  4  0
  2  3  4  0
  2 18  4  0
  3 20  4  0
  3 22  4  0
  4 11  4  0
  4 21  4  0
  5  9  4  0
  5 16  4  0
  6 15  4  0
  6 16  4  0
  7 22  4  0
  7 26  4  0
  8 10  4  0
  8 25  4  0
  9 15  4  0
  9 17  1  0
 10 21  4  0
 11 25  4  0
 12 23  4  0
 13 20  4  0
 13 26  4  0
 14 19  4  0
 17 18  4  0
 17 24  4  0
 19 23  4  0
 20 24  4  0
 23 26  1  0
M  END
$$$$

 Created by Python create_sdf_string function

 26 30  0  0  0  0  0  0  0  0999 V2000
   10.0084   -1.8019   23.4945 C   0  0  0  0  0  0  0  0  0  0  0  0
   10.0005   -4.2520   16.5631 C   0  0  0  0  0  0  0  0  0  0  0  0
   10.2759   -4.0036   17.8845 C   0  0  0  0  0  0  0  0  0  0  0  0
    8.5652    1.5478   25.3778 N   0  0  0  0  0  0  0  0  0  0  0  0
    6.8048   -7.5457   17.8752 C   0  0  0  0  0  0  0  0  0  0  0  0
    6.1721   -8.2186   15.9886 N   0  0  0  0  0  0  0  0  0  0  0  0
   11.1764   -2.6600   19.5604 C   0  0  0  0  0  0  0  0  0  0  0  0
    9.5491   -0.6380   24.1912 C   0  0  0  0  0  0  0  0  0  0  0  0
    7.5337   -6.9256   16.9519 C   0  0  0  0  0  0  0  0  0  0  0  0
    9.6782    0.5671   23.5143 C   0  0  0  0  0  0  0  0  0  0  0  0
    8.4532    0.3482   26.0821 C   0  0  0  0  0  0  0  0  0  0  0  0
   10.4239   -1.7677   22.2230 N   0  0  0  0  0  0  0  0  0  0  0  0
    9.9468   -4.5953   20.1709 C   0  0  0  0  0  0  0  0  0  0  0  0
   10.0366   -3.0590   23.9864 N   0  0  0  0  0  0  0  0  0  0  0  0
    7.1191   -7.3636   15.7739 C   0  0  0  0  0  0  0  0  0  0  0  0
    5.9612   -8.3203   17.2732 N   0  0  0  0  0  0  0  0  0  0  0  0
    8.5296   -5.9814   17.1841 C   0  0  0  0  0  0  0  0  0  0  0  0
    9.1527   -5.2118   16.2116 C   0  0  0  0  0  0  0  0  0  0  0  0
   10.3364   -3.8368   22.9255 O   0  0  0  0  0  0  0  0  0  0  0  0
    9.6947   -4.8407   18.8534 C   0  0  0  0  0  0  0  0  0  0  0  0
    9.1596    1.7042   24.1381 C   0  0  0  0  0  0  0  0  0  0  0  0
   11.0456   -2.9774   18.2694 N   0  0  0  0  0  0  0  0  0  0  0  0
   10.4788   -3.0457   21.8593 C   0  0  0  0  0  0  0  0  0  0  0  0
    8.8693   -5.8099   18.4657 N   0  0  0  0  0  0  0  0  0  0  0  0
    8.9892   -0.7926   25.4573 C   0  0  0  0  0  0  0  0  0  0  0  0
   10.5677   -3.4462   20.5323 C   0  0  0  0  0  0  0  0  0  0  0  0
  1  8  1  0
  1 12  4  0
  1 14  4  0
  2  3  4  0
  2 18  4  0
  3 20  4  0
  3 22  4  0
  4 11  4  0
  4 21  4  0
  5  9  4  0
  5 16  4  0
  6 15  4  0
  6 16  4  0
  7 22  4  0
  7 26  4  0
  8 10  4  0
  8 25  4  0
  9 15  4  0
  9 17  1  0
 10 21  4  0
 11 25  4  0
 12 23  4  0
 13 20  4  0
 13 26  4  0
 14 19  4  0
 17 18  4  0
 17 24  4  0
 19 23  4  0
 20 24  4  0
 23 26  1  0
M  END
$$$$

 Created by Python create_sdf_string function

 26 30  0  0  0  0  0  0  0  0999 V2000
   10.0084   -1.8019   23.4945 C   0  0  0  0  0  0  0  0  0  0  0  0
   10.0005   -4.2520   16.5631 C   0  0  0  0  0  0  0  0  0  0  0  0
   10.2759   -4.0036   17.8845 C   0  0  0  0  0  0  0  0  0  0  0  0
    8.5652    1.5478   25.3778 N   0  0  0  0  0  0  0  0  0  0  0  0
    6.8048   -7.5457   17.8752 C   0  0  0  0  0  0  0  0  0  0  0  0
    6.1721   -8.2186   15.9886 N   0  0  0  0  0  0  0  0  0  0  0  0
   11.1764   -2.6600   19.5604 C   0  0  0  0  0  0  0  0  0  0  0  0
    9.5491   -0.6380   24.1912 C   0  0  0  0  0  0  0  0  0  0  0  0
    7.5337   -6.9256   16.9519 C   0  0  0  0  0  0  0  0  0  0  0  0
    9.6782    0.5671   23.5143 C   0  0  0  0  0  0  0  0  0  0  0  0
    8.4532    0.3482   26.0821 C   0  0  0  0  0  0  0  0  0  0  0  0
   10.4239   -1.7677   22.2230 N   0  0  0  0  0  0  0  0  0  0  0  0
    9.9468   -4.5953   20.1709 C   0  0  0  0  0  0  0  0  0  0  0  0
   10.0366   -3.0590   23.9864 N   0  0  0  0  0  0  0  0  0  0  0  0
    7.1191   -7.3636   15.7739 C   0  0  0  0  0  0  0  0  0  0  0  0
    5.9612   -8.3203   17.2732 N   0  0  0  0  0  0  0  0  0  0  0  0
    8.5296   -5.9814   17.1841 C   0  0  0  0  0  0  0  0  0  0  0  0
    9.1527   -5.2118   16.2116 C   0  0  0  0  0  0  0  0  0  0  0  0
   10.3364   -3.8368   22.9255 O   0  0  0  0  0  0  0  0  0  0  0  0
    9.6947   -4.8407   18.8534 C   0  0  0  0  0  0  0  0  0  0  0  0
    9.1596    1.7042   24.1381 C   0  0  0  0  0  0  0  0  0  0  0  0
   11.0456   -2.9774   18.2694 N   0  0  0  0  0  0  0  0  0  0  0  0
   10.4788   -3.0457   21.8593 C   0  0  0  0  0  0  0  0  0  0  0  0
    8.8693   -5.8099   18.4657 N   0  0  0  0  0  0  0  0  0  0  0  0
    8.9892   -0.7926   25.4573 C   0  0  0  0  0  0  0  0  0  0  0  0
   10.5677   -3.4462   20.5323 C   0  0  0  0  0  0  0  0  0  0  0  0
  1  8  1  0
  1 12  4  0
  1 14  4  0
  2  3  4  0
  2 18  4  0
  3 20  4  0
  3 22  4  0
  4 11  4  0
  4 21  4  0
  5  9  4  0
  5 16  4  0
  6 15  4  0
  6 16  4  0
  7 22  4  0
  7 26  4  0
  8 10  4  0
  8 25  4  0
  9 15  4  0
  9 17  1  0
 10 21  4  0
 11 25  4  0
 12 23  4  0
 13 20  4  0
 13 26  4  0
 14 19  4  0
 17 18  4  0
 17 24  4  0
 19 23  4  0
 20 24  4  0
 23 26  1  0
M  END
$$$$

 Created by Python create_sdf_string function

 26 30  0  0  0  0  0  0  0  0999 V2000
   10.0084   -1.8019   23.4945 C   0  0  0  0  0  0  0  0  0  0  0  0
   10.0005   -4.2520   16.5631 C   0  0  0  0  0  0  0  0  0  0  0  0
   10.2759   -4.0036   17.8845 C   0  0  0  0  0  0  0  0  0  0  0  0
    8.5652    1.5478   25.3778 N   0  0  0  0  0  0  0  0  0  0  0  0
    6.8048   -7.5457   17.8752 C   0  0  0  0  0  0  0  0  0  0  0  0
    6.1721   -8.2186   15.9886 N   0  0  0  0  0  0  0  0  0  0  0  0
   11.1764   -2.6600   19.5604 C   0  0  0  0  0  0  0  0  0  0  0  0
    9.5491   -0.6380   24.1912 C   0  0  0  0  0  0  0  0  0  0  0  0
    7.5337   -6.9256   16.9519 C   0  0  0  0  0  0  0  0  0  0  0  0
    9.6782    0.5671   23.5143 C   0  0  0  0  0  0  0  0  0  0  0  0
    8.4532    0.3482   26.0821 C   0  0  0  0  0  0  0  0  0  0  0  0
   10.4239   -1.7677   22.2230 N   0  0  0  0  0  0  0  0  0  0  0  0
    9.9468   -4.5953   20.1709 C   0  0  0  0  0  0  0  0  0  0  0  0
   10.0366   -3.0590   23.9864 N   0  0  0  0  0  0  0  0  0  0  0  0
    7.1191   -7.3636   15.7739 C   0  0  0  0  0  0  0  0  0  0  0  0
    5.9612   -8.3203   17.2732 N   0  0  0  0  0  0  0  0  0  0  0  0
    8.5296   -5.9814   17.1841 C   0  0  0  0  0  0  0  0  0  0  0  0
    9.1527   -5.2118   16.2116 C   0  0  0  0  0  0  0  0  0  0  0  0
   10.3364   -3.8368   22.9255 O   0  0  0  0  0  0  0  0  0  0  0  0
    9.6947   -4.8407   18.8534 C   0  0  0  0  0  0  0  0  0  0  0  0
    9.1596    1.7042   24.1381 C   0  0  0  0  0  0  0  0  0  0  0  0
   11.0456   -2.9774   18.2694 N   0  0  0  0  0  0  0  0  0  0  0  0
   10.4788   -3.0457   21.8593 C   0  0  0  0  0  0  0  0  0  0  0  0
    8.8693   -5.8099   18.4657 N   0  0  0  0  0  0  0  0  0  0  0  0
    8.9892   -0.7926   25.4573 C   0  0  0  0  0  0  0  0  0  0  0  0
   10.5677   -3.4462   20.5323 C   0  0  0  0  0  0  0  0  0  0  0  0
  1  8  1  0
  1 12  4  0
  1 14  4  0
  2  3  4  0
  2 18  4  0
  3 20  4  0
  3 22  4  0
  4 11  4  0
  4 21  4  0
  5  9  4  0
  5 16  4  0
  6 15  4  0
  6 16  4  0
  7 22  4  0
  7 26  4  0
  8 10  4  0
  8 25  4  0
  9 15  4  0
  9 17  1  0
 10 21  4  0
 11 25  4  0
 12 23  4  0
 13 20  4  0
 13 26  4  0
 14 19  4  0
 17 18  4  0
 17 24  4  0
 19 23  4  0
 20 24  4  0
 23 26  1  0
M  END
$$$$

 Created by Python create_sdf_string function

 26 30  0  0  0  0  0  0  0  0999 V2000
   10.0084   -1.8019   23.4945 C   0  0  0  0  0  0  0  0  0  0  0  0
   10.0005   -4.2520   16.5631 C   0  0  0  0  0  0  0  0  0  0  0  0
   10.2759   -4.0036   17.8845 C   0  0  0  0  0  0  0  0  0  0  0  0
    8.5652    1.5478   25.3778 N   0  0  0  0  0  0  0  0  0  0  0  0
    6.8048   -7.5457   17.8752 C   0  0  0  0  0  0  0  0  0  0  0  0
    6.1721   -8.2186   15.9886 N   0  0  0  0  0  0  0  0  0  0  0  0
   11.1764   -2.6600   19.5604 C   0  0  0  0  0  0  0  0  0  0  0  0
    9.5491   -0.6380   24.1912 C   0  0  0  0  0  0  0  0  0  0  0  0
    7.5337   -6.9256   16.9519 C   0  0  0  0  0  0  0  0  0  0  0  0
    9.6782    0.5671   23.5143 C   0  0  0  0  0  0  0  0  0  0  0  0
    8.4532    0.3482   26.0821 C   0  0  0  0  0  0  0  0  0  0  0  0
   10.4239   -1.7677   22.2230 N   0  0  0  0  0  0  0  0  0  0  0  0
    9.9468   -4.5953   20.1709 C   0  0  0  0  0  0  0  0  0  0  0  0
   10.0366   -3.0590   23.9864 N   0  0  0  0  0  0  0  0  0  0  0  0
    7.1191   -7.3636   15.7739 C   0  0  0  0  0  0  0  0  0  0  0  0
    5.9612   -8.3203   17.2732 N   0  0  0  0  0  0  0  0  0  0  0  0
    8.5296   -5.9814   17.1841 C   0  0  0  0  0  0  0  0  0  0  0  0
    9.1527   -5.2118   16.2116 C   0  0  0  0  0  0  0  0  0  0  0  0
   10.3364   -3.8368   22.9255 O   0  0  0  0  0  0  0  0  0  0  0  0
    9.6947   -4.8407   18.8534 C   0  0  0  0  0  0  0  0  0  0  0  0
    9.1596    1.7042   24.1381 C   0  0  0  0  0  0  0  0  0  0  0  0
   11.0456   -2.9774   18.2694 N   0  0  0  0  0  0  0  0  0  0  0  0
   10.4788   -3.0457   21.8593 C   0  0  0  0  0  0  0  0  0  0  0  0
    8.8693   -5.8099   18.4657 N   0  0  0  0  0  0  0  0  0  0  0  0
    8.9892   -0.7926   25.4573 C   0  0  0  0  0  0  0  0  0  0  0  0
   10.5677   -3.4462   20.5323 C   0  0  0  0  0  0  0  0  0  0  0  0
  1  8  1  0
  1 12  4  0
  1 14  4  0
  2  3  4  0
  2 18  4  0
  3 20  4  0
  3 22  4  0
  4 11  4  0
  4 21  4  0
  5  9  4  0
  5 16  4  0
  6 15  4  0
  6 16  4  0
  7 22  4  0
  7 26  4  0
  8 10  4  0
  8 25  4  0
  9 15  4  0
  9 17  1  0
 10 21  4  0
 11 25  4  0
 12 23  4  0
 13 20  4  0
 13 26  4  0
 14 19  4  0
 17 18  4  0
 17 24  4  0
 19 23  4  0
 20 24  4  0
 23 26  1  0
M  END
$$$$

 Created by Python create_sdf_string function

 26 30  0  0  0  0  0  0  0  0999 V2000
   10.0084   -1.8019   23.4945 C   0  0  0  0  0  0  0  0  0  0  0  0
   10.0005   -4.2520   16.5631 C   0  0  0  0  0  0  0  0  0  0  0  0
   10.2759   -4.0036   17.8845 C   0  0  0  0  0  0  0  0  0  0  0  0
    8.5652    1.5478   25.3778 N   0  0  0  0  0  0  0  0  0  0  0  0
    6.8048   -7.5457   17.8752 C   0  0  0  0  0  0  0  0  0  0  0  0
    6.1721   -8.2186   15.9886 N   0  0  0  0  0  0  0  0  0  0  0  0
   11.1764   -2.6600   19.5604 C   0  0  0  0  0  0  0  0  0  0  0  0
    9.5491   -0.6380   24.1912 C   0  0  0  0  0  0  0  0  0  0  0  0
    7.5337   -6.9256   16.9519 C   0  0  0  0  0  0  0  0  0  0  0  0
    9.6782    0.5671   23.5143 C   0  0  0  0  0  0  0  0  0  0  0  0
    8.4532    0.3482   26.0821 C   0  0  0  0  0  0  0  0  0  0  0  0
   10.4239   -1.7677   22.2230 N   0  0  0  0  0  0  0  0  0  0  0  0
    9.9468   -4.5953   20.1709 C   0  0  0  0  0  0  0  0  0  0  0  0
   10.0366   -3.0590   23.9864 N   0  0  0  0  0  0  0  0  0  0  0  0
    7.1191   -7.3636   15.7739 C   0  0  0  0  0  0  0  0  0  0  0  0
    5.9612   -8.3203   17.2732 N   0  0  0  0  0  0  0  0  0  0  0  0
    8.5296   -5.9814   17.1841 C   0  0  0  0  0  0  0  0  0  0  0  0
    9.1527   -5.2118   16.2116 C   0  0  0  0  0  0  0  0  0  0  0  0
   10.3364   -3.8368   22.9255 O   0  0  0  0  0  0  0  0  0  0  0  0
    9.6947   -4.8407   18.8534 C   0  0  0  0  0  0  0  0  0  0  0  0
    9.1596    1.7042   24.1381 C   0  0  0  0  0  0  0  0  0  0  0  0
   11.0456   -2.9774   18.2694 N   0  0  0  0  0  0  0  0  0  0  0  0
   10.4788   -3.0457   21.8593 C   0  0  0  0  0  0  0  0  0  0  0  0
    8.8693   -5.8099   18.4657 N   0  0  0  0  0  0  0  0  0  0  0  0
    8.9892   -0.7926   25.4573 C   0  0  0  0  0  0  0  0  0  0  0  0
   10.5677   -3.4462   20.5323 C   0  0  0  0  0  0  0  0  0  0  0  0
  1  8  1  0
  1 12  4  0
  1 14  4  0
  2  3  4  0
  2 18  4  0
  3 20  4  0
  3 22  4  0
  4 11  4  0
  4 21  4  0
  5  9  4  0
  5 16  4  0
  6 15  4  0
  6 16  4  0
  7 22  4  0
  7 26  4  0
  8 10  4  0
  8 25  4  0
  9 15  4  0
  9 17  1  0
 10 21  4  0
 11 25  4  0
 12 23  4  0
 13 20  4  0
 13 26  4  0
 14 19  4  0
 17 18  4  0
 17 24  4  0
 19 23  4  0
 20 24  4  0
 23 26  1  0
M  END
$$$$

 Created by Python create_sdf_string function

 26 30  0  0  0  0  0  0  0  0999 V2000
   10.0084   -1.8019   23.4945 C   0  0  0  0  0  0  0  0  0  0  0  0
   10.0005   -4.2520   16.5631 C   0  0  0  0  0  0  0  0  0  0  0  0
   10.2759   -4.0036   17.8845 C   0  0  0  0  0  0  0  0  0  0  0  0
    8.5652    1.5478   25.3778 N   0  0  0  0  0  0  0  0  0  0  0  0
    6.8048   -7.5457   17.8752 C   0  0  0  0  0  0  0  0  0  0  0  0
    6.1721   -8.2186   15.9886 N   0  0  0  0  0  0  0  0  0  0  0  0
   11.1764   -2.6600   19.5604 C   0  0  0  0  0  0  0  0  0  0  0  0
    9.5491   -0.6380   24.1912 C   0  0  0  0  0  0  0  0  0  0  0  0
    7.5337   -6.9256   16.9519 C   0  0  0  0  0  0  0  0  0  0  0  0
    9.6782    0.5671   23.5143 C   0  0  0  0  0  0  0  0  0  0  0  0
    8.4532    0.3482   26.0821 C   0  0  0  0  0  0  0  0  0  0  0  0
   10.4239   -1.7677   22.2230 N   0  0  0  0  0  0  0  0  0  0  0  0
    9.9468   -4.5953   20.1709 C   0  0  0  0  0  0  0  0  0  0  0  0
   10.0366   -3.0590   23.9864 N   0  0  0  0  0  0  0  0  0  0  0  0
    7.1191   -7.3636   15.7739 C   0  0  0  0  0  0  0  0  0  0  0  0
    5.9612   -8.3203   17.2732 N   0  0  0  0  0  0  0  0  0  0  0  0
    8.5296   -5.9814   17.1841 C   0  0  0  0  0  0  0  0  0  0  0  0
    9.1527   -5.2118   16.2116 C   0  0  0  0  0  0  0  0  0  0  0  0
   10.3364   -3.8368   22.9255 O   0  0  0  0  0  0  0  0  0  0  0  0
    9.6947   -4.8407   18.8534 C   0  0  0  0  0  0  0  0  0  0  0  0
    9.1596    1.7042   24.1381 C   0  0  0  0  0  0  0  0  0  0  0  0
   11.0456   -2.9774   18.2694 N   0  0  0  0  0  0  0  0  0  0  0  0
   10.4788   -3.0457   21.8593 C   0  0  0  0  0  0  0  0  0  0  0  0
    8.8693   -5.8099   18.4657 N   0  0  0  0  0  0  0  0  0  0  0  0
    8.9892   -0.7926   25.4573 C   0  0  0  0  0  0  0  0  0  0  0  0
   10.5677   -3.4462   20.5323 C   0  0  0  0  0  0  0  0  0  0  0  0
  1  8  1  0
  1 12  4  0
  1 14  4  0
  2  3  4  0
  2 18  4  0
  3 20  4  0
  3 22  4  0
  4 11  4  0
  4 21  4  0
  5  9  4  0
  5 16  4  0
  6 15  4  0
  6 16  4  0
  7 22  4  0
  7 26  4  0
  8 10  4  0
  8 25  4  0
  9 15  4  0
  9 17  1  0
 10 21  4  0
 11 25  4  0
 12 23  4  0
 13 20  4  0
 13 26  4  0
 14 19  4  0
 17 18  4  0
 17 24  4  0
 19 23  4  0
 20 24  4  0
 23 26  1  0
M  END
$$$$

 Created by Python create_sdf_string function

 26 30  0  0  0  0  0  0  0  0999 V2000
   10.0084   -1.8019   23.4945 C   0  0  0  0  0  0  0  0  0  0  0  0
   10.0005   -4.2520   16.5631 C   0  0  0  0  0  0  0  0  0  0  0  0
   10.2759   -4.0036   17.8845 C   0  0  0  0  0  0  0  0  0  0  0  0
    8.5652    1.5478   25.3778 N   0  0  0  0  0  0  0  0  0  0  0  0
    6.8048   -7.5457   17.8752 C   0  0  0  0  0  0  0  0  0  0  0  0
    6.1721   -8.2186   15.9886 N   0  0  0  0  0  0  0  0  0  0  0  0
   11.1764   -2.6600   19.5604 C   0  0  0  0  0  0  0  0  0  0  0  0
    9.5491   -0.6380   24.1912 C   0  0  0  0  0  0  0  0  0  0  0  0
    7.5337   -6.9256   16.9519 C   0  0  0  0  0  0  0  0  0  0  0  0
    9.6782    0.5671   23.5143 C   0  0  0  0  0  0  0  0  0  0  0  0
    8.4532    0.3482   26.0821 C   0  0  0  0  0  0  0  0  0  0  0  0
   10.4239   -1.7677   22.2230 N   0  0  0  0  0  0  0  0  0  0  0  0
    9.9468   -4.5953   20.1709 C   0  0  0  0  0  0  0  0  0  0  0  0
   10.0366   -3.0590   23.9864 N   0  0  0  0  0  0  0  0  0  0  0  0
    7.1191   -7.3636   15.7739 C   0  0  0  0  0  0  0  0  0  0  0  0
    5.9612   -8.3203   17.2732 N   0  0  0  0  0  0  0  0  0  0  0  0
    8.5296   -5.9814   17.1841 C   0  0  0  0  0  0  0  0  0  0  0  0
    9.1527   -5.2118   16.2116 C   0  0  0  0  0  0  0  0  0  0  0  0
   10.3364   -3.8368   22.9255 O   0  0  0  0  0  0  0  0  0  0  0  0
    9.6947   -4.8407   18.8534 C   0  0  0  0  0  0  0  0  0  0  0  0
    9.1596    1.7042   24.1381 C   0  0  0  0  0  0  0  0  0  0  0  0
   11.0456   -2.9774   18.2694 N   0  0  0  0  0  0  0  0  0  0  0  0
   10.4788   -3.0457   21.8593 C   0  0  0  0  0  0  0  0  0  0  0  0
    8.8693   -5.8099   18.4657 N   0  0  0  0  0  0  0  0  0  0  0  0
    8.9892   -0.7926   25.4573 C   0  0  0  0  0  0  0  0  0  0  0  0
   10.5677   -3.4462   20.5323 C   0  0  0  0  0  0  0  0  0  0  0  0
  1  8  1  0
  1 12  4  0
  1 14  4  0
  2  3  4  0
  2 18  4  0
  3 20  4  0
  3 22  4  0
  4 11  4  0
  4 21  4  0
  5  9  4  0
  5 16  4  0
  6 15  4  0
  6 16  4  0
  7 22  4  0
  7 26  4  0
  8 10  4  0
  8 25  4  0
  9 15  4  0
  9 17  1  0
 10 21  4  0
 11 25  4  0
 12 23  4  0
 13 20  4  0
 13 26  4  0
 14 19  4  0
 17 18  4  0
 17 24  4  0
 19 23  4  0
 20 24  4  0
 23 26  1  0
M  END
$$$$

 Created by Python create_sdf_string function

 26 30  0  0  0  0  0  0  0  0999 V2000
   10.0084   -1.8019   23.4945 C   0  0  0  0  0  0  0  0  0  0  0  0
   10.0005   -4.2520   16.5631 C   0  0  0  0  0  0  0  0  0  0  0  0
   10.2759   -4.0036   17.8845 C   0  0  0  0  0  0  0  0  0  0  0  0
    8.5652    1.5478   25.3778 N   0  0  0  0  0  0  0  0  0  0  0  0
    6.8048   -7.5457   17.8752 C   0  0  0  0  0  0  0  0  0  0  0  0
    6.1721   -8.2186   15.9886 N   0  0  0  0  0  0  0  0  0  0  0  0
   11.1764   -2.6600   19.5604 C   0  0  0  0  0  0  0  0  0  0  0  0
    9.5491   -0.6380   24.1912 C   0  0  0  0  0  0  0  0  0  0  0  0
    7.5337   -6.9256   16.9519 C   0  0  0  0  0  0  0  0  0  0  0  0
    9.6782    0.5671   23.5143 C   0  0  0  0  0  0  0  0  0  0  0  0
    8.4532    0.3482   26.0821 C   0  0  0  0  0  0  0  0  0  0  0  0
   10.4239   -1.7677   22.2230 N   0  0  0  0  0  0  0  0  0  0  0  0
    9.9468   -4.5953   20.1709 C   0  0  0  0  0  0  0  0  0  0  0  0
   10.0366   -3.0590   23.9864 N   0  0  0  0  0  0  0  0  0  0  0  0
    7.1191   -7.3636   15.7739 C   0  0  0  0  0  0  0  0  0  0  0  0
    5.9612   -8.3203   17.2732 N   0  0  0  0  0  0  0  0  0  0  0  0
    8.5296   -5.9814   17.1841 C   0  0  0  0  0  0  0  0  0  0  0  0
    9.1527   -5.2118   16.2116 C   0  0  0  0  0  0  0  0  0  0  0  0
   10.3364   -3.8368   22.9255 O   0  0  0  0  0  0  0  0  0  0  0  0
    9.6947   -4.8407   18.8534 C   0  0  0  0  0  0  0  0  0  0  0  0
    9.1596    1.7042   24.1381 C   0  0  0  0  0  0  0  0  0  0  0  0
   11.0456   -2.9774   18.2694 N   0  0  0  0  0  0  0  0  0  0  0  0
   10.4788   -3.0457   21.8593 C   0  0  0  0  0  0  0  0  0  0  0  0
    8.8693   -5.8099   18.4657 N   0  0  0  0  0  0  0  0  0  0  0  0
    8.9892   -0.7926   25.4573 C   0  0  0  0  0  0  0  0  0  0  0  0
   10.5677   -3.4462   20.5323 C   0  0  0  0  0  0  0  0  0  0  0  0
  1  8  1  0
  1 12  4  0
  1 14  4  0
  2  3  4  0
  2 18  4  0
  3 20  4  0
  3 22  4  0
  4 11  4  0
  4 21  4  0
  5  9  4  0
  5 16  4  0
  6 15  4  0
  6 16  4  0
  7 22  4  0
  7 26  4  0
  8 10  4  0
  8 25  4  0
  9 15  4  0
  9 17  1  0
 10 21  4  0
 11 25  4  0
 12 23  4  0
 13 20  4  0
 13 26  4  0
 14 19  4  0
 17 18  4  0
 17 24  4  0
 19 23  4  0
 20 24  4  0
 23 26  1  0
M  END
$$$$

 Created by Python create_sdf_string function

 26 30  0  0  0  0  0  0  0  0999 V2000
   10.0084   -1.8019   23.4945 C   0  0  0  0  0  0  0  0  0  0  0  0
   10.0005   -4.2520   16.5631 C   0  0  0  0  0  0  0  0  0  0  0  0
   10.2759   -4.0036   17.8845 C   0  0  0  0  0  0  0  0  0  0  0  0
    8.5652    1.5478   25.3778 N   0  0  0  0  0  0  0  0  0  0  0  0
    6.8048   -7.5457   17.8752 C   0  0  0  0  0  0  0  0  0  0  0  0
    6.1721   -8.2186   15.9886 N   0  0  0  0  0  0  0  0  0  0  0  0
   11.1764   -2.6600   19.5604 C   0  0  0  0  0  0  0  0  0  0  0  0
    9.5491   -0.6380   24.1912 C   0  0  0  0  0  0  0  0  0  0  0  0
    7.5337   -6.9256   16.9519 C   0  0  0  0  0  0  0  0  0  0  0  0
    9.6782    0.5671   23.5143 C   0  0  0  0  0  0  0  0  0  0  0  0
    8.4532    0.3482   26.0821 C   0  0  0  0  0  0  0  0  0  0  0  0
   10.4239   -1.7677   22.2230 N   0  0  0  0  0  0  0  0  0  0  0  0
    9.9468   -4.5953   20.1709 C   0  0  0  0  0  0  0  0  0  0  0  0
   10.0366   -3.0590   23.9864 N   0  0  0  0  0  0  0  0  0  0  0  0
    7.1191   -7.3636   15.7739 C   0  0  0  0  0  0  0  0  0  0  0  0
    5.9612   -8.3203   17.2732 N   0  0  0  0  0  0  0  0  0  0  0  0
    8.5296   -5.9814   17.1841 C   0  0  0  0  0  0  0  0  0  0  0  0
    9.1527   -5.2118   16.2116 C   0  0  0  0  0  0  0  0  0  0  0  0
   10.3364   -3.8368   22.9255 O   0  0  0  0  0  0  0  0  0  0  0  0
    9.6947   -4.8407   18.8534 C   0  0  0  0  0  0  0  0  0  0  0  0
    9.1596    1.7042   24.1381 C   0  0  0  0  0  0  0  0  0  0  0  0
   11.0456   -2.9774   18.2694 N   0  0  0  0  0  0  0  0  0  0  0  0
   10.4788   -3.0457   21.8593 C   0  0  0  0  0  0  0  0  0  0  0  0
    8.8693   -5.8099   18.4657 N   0  0  0  0  0  0  0  0  0  0  0  0
    8.9892   -0.7926   25.4573 C   0  0  0  0  0  0  0  0  0  0  0  0
   10.5677   -3.4462   20.5323 C   0  0  0  0  0  0  0  0  0  0  0  0
  1  8  1  0
  1 12  4  0
  1 14  4  0
  2  3  4  0
  2 18  4  0
  3 20  4  0
  3 22  4  0
  4 11  4  0
  4 21  4  0
  5  9  4  0
  5 16  4  0
  6 15  4  0
  6 16  4  0
  7 22  4  0
  7 26  4  0
  8 10  4  0
  8 25  4  0
  9 15  4  0
  9 17  1  0
 10 21  4  0
 11 25  4  0
 12 23  4  0
 13 20  4  0
 13 26  4  0
 14 19  4  0
 17 18  4  0
 17 24  4  0
 19 23  4  0
 20 24  4  0
 23 26  1  0
M  END
$$$$

 Created by Python create_sdf_string function

 26 30  0  0  0  0  0  0  0  0999 V2000
   10.0084   -1.8019   23.4945 C   0  0  0  0  0  0  0  0  0  0  0  0
   10.0005   -4.2520   16.5631 C   0  0  0  0  0  0  0  0  0  0  0  0
   10.2759   -4.0036   17.8845 C   0  0  0  0  0  0  0  0  0  0  0  0
    8.5652    1.5478   25.3778 N   0  0  0  0  0  0  0  0  0  0  0  0
    6.8048   -7.5457   17.8752 C   0  0  0  0  0  0  0  0  0  0  0  0
    6.1721   -8.2186   15.9886 N   0  0  0  0  0  0  0  0  0  0  0  0
   11.1764   -2.6600   19.5604 C   0  0  0  0  0  0  0  0  0  0  0  0
    9.5491   -0.6380   24.1912 C   0  0  0  0  0  0  0  0  0  0  0  0
    7.5337   -6.9256   16.9519 C   0  0  0  0  0  0  0  0  0  0  0  0
    9.6782    0.5671   23.5143 C   0  0  0  0  0  0  0  0  0  0  0  0
    8.4532    0.3482   26.0821 C   0  0  0  0  0  0  0  0  0  0  0  0
   10.4239   -1.7677   22.2230 N   0  0  0  0  0  0  0  0  0  0  0  0
    9.9468   -4.5953   20.1709 C   0  0  0  0  0  0  0  0  0  0  0  0
   10.0366   -3.0590   23.9864 N   0  0  0  0  0  0  0  0  0  0  0  0
    7.1191   -7.3636   15.7739 C   0  0  0  0  0  0  0  0  0  0  0  0
    5.9612   -8.3203   17.2732 N   0  0  0  0  0  0  0  0  0  0  0  0
    8.5296   -5.9814   17.1841 C   0  0  0  0  0  0  0  0  0  0  0  0
    9.1527   -5.2118   16.2116 C   0  0  0  0  0  0  0  0  0  0  0  0
   10.3364   -3.8368   22.9255 O   0  0  0  0  0  0  0  0  0  0  0  0
    9.6947   -4.8407   18.8534 C   0  0  0  0  0  0  0  0  0  0  0  0
    9.1596    1.7042   24.1381 C   0  0  0  0  0  0  0  0  0  0  0  0
   11.0456   -2.9774   18.2694 N   0  0  0  0  0  0  0  0  0  0  0  0
   10.4788   -3.0457   21.8593 C   0  0  0  0  0  0  0  0  0  0  0  0
    8.8693   -5.8099   18.4657 N   0  0  0  0  0  0  0  0  0  0  0  0
    8.9892   -0.7926   25.4573 C   0  0  0  0  0  0  0  0  0  0  0  0
   10.5677   -3.4462   20.5323 C   0  0  0  0  0  0  0  0  0  0  0  0
  1  8  1  0
  1 12  4  0
  1 14  4  0
  2  3  4  0
  2 18  4  0
  3 20  4  0
  3 22  4  0
  4 11  4  0
  4 21  4  0
  5  9  4  0
  5 16  4  0
  6 15  4  0
  6 16  4  0
  7 22  4  0
  7 26  4  0
  8 10  4  0
  8 25  4  0
  9 15  4  0
  9 17  1  0
 10 21  4  0
 11 25  4  0
 12 23  4  0
 13 20  4  0
 13 26  4  0
 14 19  4  0
 17 18  4  0
 17 24  4  0
 19 23  4  0
 20 24  4  0
 23 26  1  0
M  END
$$$$

 Created by Python create_sdf_string function

 26 30  0  0  0  0  0  0  0  0999 V2000
   10.0084   -1.8019   23.4945 C   0  0  0  0  0  0  0  0  0  0  0  0
   10.0005   -4.2520   16.5631 C   0  0  0  0  0  0  0  0  0  0  0  0
   10.2759   -4.0036   17.8845 C   0  0  0  0  0  0  0  0  0  0  0  0
    8.5652    1.5478   25.3778 N   0  0  0  0  0  0  0  0  0  0  0  0
    6.8048   -7.5457   17.8752 C   0  0  0  0  0  0  0  0  0  0  0  0
    6.1721   -8.2186   15.9886 N   0  0  0  0  0  0  0  0  0  0  0  0
   11.1764   -2.6600   19.5604 C   0  0  0  0  0  0  0  0  0  0  0  0
    9.5491   -0.6380   24.1912 C   0  0  0  0  0  0  0  0  0  0  0  0
    7.5337   -6.9256   16.9519 C   0  0  0  0  0  0  0  0  0  0  0  0
    9.6782    0.5671   23.5143 C   0  0  0  0  0  0  0  0  0  0  0  0
    8.4532    0.3482   26.0821 C   0  0  0  0  0  0  0  0  0  0  0  0
   10.4239   -1.7677   22.2230 N   0  0  0  0  0  0  0  0  0  0  0  0
    9.9468   -4.5953   20.1709 C   0  0  0  0  0  0  0  0  0  0  0  0
   10.0366   -3.0590   23.9864 N   0  0  0  0  0  0  0  0  0  0  0  0
    7.1191   -7.3636   15.7739 C   0  0  0  0  0  0  0  0  0  0  0  0
    5.9612   -8.3203   17.2732 N   0  0  0  0  0  0  0  0  0  0  0  0
    8.5296   -5.9814   17.1841 C   0  0  0  0  0  0  0  0  0  0  0  0
    9.1527   -5.2118   16.2116 C   0  0  0  0  0  0  0  0  0  0  0  0
   10.3364   -3.8368   22.9255 O   0  0  0  0  0  0  0  0  0  0  0  0
    9.6947   -4.8407   18.8534 C   0  0  0  0  0  0  0  0  0  0  0  0
    9.1596    1.7042   24.1381 C   0  0  0  0  0  0  0  0  0  0  0  0
   11.0456   -2.9774   18.2694 N   0  0  0  0  0  0  0  0  0  0  0  0
   10.4788   -3.0457   21.8593 C   0  0  0  0  0  0  0  0  0  0  0  0
    8.8693   -5.8099   18.4657 N   0  0  0  0  0  0  0  0  0  0  0  0
    8.9892   -0.7926   25.4573 C   0  0  0  0  0  0  0  0  0  0  0  0
   10.5677   -3.4462   20.5323 C   0  0  0  0  0  0  0  0  0  0  0  0
  1  8  1  0
  1 12  4  0
  1 14  4  0
  2  3  4  0
  2 18  4  0
  3 20  4  0
  3 22  4  0
  4 11  4  0
  4 21  4  0
  5  9  4  0
  5 16  4  0
  6 15  4  0
  6 16  4  0
  7 22  4  0
  7 26  4  0
  8 10  4  0
  8 25  4  0
  9 15  4  0
  9 17  1  0
 10 21  4  0
 11 25  4  0
 12 23  4  0
 13 20  4  0
 13 26  4  0
 14 19  4  0
 17 18  4  0
 17 24  4  0
 19 23  4  0
 20 24  4  0
 23 26  1  0
M  END
$$$$

 Created by Python create_sdf_string function

 26 30  0  0  0  0  0  0  0  0999 V2000
   10.0084   -1.8019   23.4945 C   0  0  0  0  0  0  0  0  0  0  0  0
   10.0005   -4.2520   16.5631 C   0  0  0  0  0  0  0  0  0  0  0  0
   10.2759   -4.0036   17.8845 C   0  0  0  0  0  0  0  0  0  0  0  0
    8.5652    1.5478   25.3778 N   0  0  0  0  0  0  0  0  0  0  0  0
    6.8048   -7.5457   17.8752 C   0  0  0  0  0  0  0  0  0  0  0  0
    6.1721   -8.2186   15.9886 N   0  0  0  0  0  0  0  0  0  0  0  0
   11.1764   -2.6600   19.5604 C   0  0  0  0  0  0  0  0  0  0  0  0
    9.5491   -0.6380   24.1912 C   0  0  0  0  0  0  0  0  0  0  0  0
    7.5337   -6.9256   16.9519 C   0  0  0  0  0  0  0  0  0  0  0  0
    9.6782    0.5671   23.5143 C   0  0  0  0  0  0  0  0  0  0  0  0
    8.4532    0.3482   26.0821 C   0  0  0  0  0  0  0  0  0  0  0  0
   10.4239   -1.7677   22.2230 N   0  0  0  0  0  0  0  0  0  0  0  0
    9.9468   -4.5953   20.1709 C   0  0  0  0  0  0  0  0  0  0  0  0
   10.0366   -3.0590   23.9864 N   0  0  0  0  0  0  0  0  0  0  0  0
    7.1191   -7.3636   15.7739 C   0  0  0  0  0  0  0  0  0  0  0  0
    5.9612   -8.3203   17.2732 N   0  0  0  0  0  0  0  0  0  0  0  0
    8.5296   -5.9814   17.1841 C   0  0  0  0  0  0  0  0  0  0  0  0
    9.1527   -5.2118   16.2116 C   0  0  0  0  0  0  0  0  0  0  0  0
   10.3364   -3.8368   22.9255 O   0  0  0  0  0  0  0  0  0  0  0  0
    9.6947   -4.8407   18.8534 C   0  0  0  0  0  0  0  0  0  0  0  0
    9.1596    1.7042   24.1381 C   0  0  0  0  0  0  0  0  0  0  0  0
   11.0456   -2.9774   18.2694 N   0  0  0  0  0  0  0  0  0  0  0  0
   10.4788   -3.0457   21.8593 C   0  0  0  0  0  0  0  0  0  0  0  0
    8.8693   -5.8099   18.4657 N   0  0  0  0  0  0  0  0  0  0  0  0
    8.9892   -0.7926   25.4573 C   0  0  0  0  0  0  0  0  0  0  0  0
   10.5677   -3.4462   20.5323 C   0  0  0  0  0  0  0  0  0  0  0  0
  1  8  1  0
  1 12  4  0
  1 14  4  0
  2  3  4  0
  2 18  4  0
  3 20  4  0
  3 22  4  0
  4 11  4  0
  4 21  4  0
  5  9  4  0
  5 16  4  0
  6 15  4  0
  6 16  4  0
  7 22  4  0
  7 26  4  0
  8 10  4  0
  8 25  4  0
  9 15  4  0
  9 17  1  0
 10 21  4  0
 11 25  4  0
 12 23  4  0
 13 20  4  0
 13 26  4  0
 14 19  4  0
 17 18  4  0
 17 24  4  0
 19 23  4  0
 20 24  4  0
 23 26  1  0
M  END
$$$$

 Created by Python create_sdf_string function

 26 30  0  0  0  0  0  0  0  0999 V2000
   10.0084   -1.8019   23.4945 C   0  0  0  0  0  0  0  0  0  0  0  0
   10.0005   -4.2520   16.5631 C   0  0  0  0  0  0  0  0  0  0  0  0
   10.2759   -4.0036   17.8845 C   0  0  0  0  0  0  0  0  0  0  0  0
    8.5652    1.5478   25.3778 N   0  0  0  0  0  0  0  0  0  0  0  0
    6.8048   -7.5457   17.8752 C   0  0  0  0  0  0  0  0  0  0  0  0
    6.1721   -8.2186   15.9886 N   0  0  0  0  0  0  0  0  0  0  0  0
   11.1764   -2.6600   19.5604 C   0  0  0  0  0  0  0  0  0  0  0  0
    9.5491   -0.6380   24.1912 C   0  0  0  0  0  0  0  0  0  0  0  0
    7.5337   -6.9256   16.9519 C   0  0  0  0  0  0  0  0  0  0  0  0
    9.6782    0.5671   23.5143 C   0  0  0  0  0  0  0  0  0  0  0  0
    8.4532    0.3482   26.0821 C   0  0  0  0  0  0  0  0  0  0  0  0
   10.4239   -1.7677   22.2230 N   0  0  0  0  0  0  0  0  0  0  0  0
    9.9468   -4.5953   20.1709 C   0  0  0  0  0  0  0  0  0  0  0  0
   10.0366   -3.0590   23.9864 N   0  0  0  0  0  0  0  0  0  0  0  0
    7.1191   -7.3636   15.7739 C   0  0  0  0  0  0  0  0  0  0  0  0
    5.9612   -8.3203   17.2732 N   0  0  0  0  0  0  0  0  0  0  0  0
    8.5296   -5.9814   17.1841 C   0  0  0  0  0  0  0  0  0  0  0  0
    9.1527   -5.2118   16.2116 C   0  0  0  0  0  0  0  0  0  0  0  0
   10.3364   -3.8368   22.9255 O   0  0  0  0  0  0  0  0  0  0  0  0
    9.6947   -4.8407   18.8534 C   0  0  0  0  0  0  0  0  0  0  0  0
    9.1596    1.7042   24.1381 C   0  0  0  0  0  0  0  0  0  0  0  0
   11.0456   -2.9774   18.2694 N   0  0  0  0  0  0  0  0  0  0  0  0
   10.4788   -3.0457   21.8593 C   0  0  0  0  0  0  0  0  0  0  0  0
    8.8693   -5.8099   18.4657 N   0  0  0  0  0  0  0  0  0  0  0  0
    8.9892   -0.7926   25.4573 C   0  0  0  0  0  0  0  0  0  0  0  0
   10.5677   -3.4462   20.5323 C   0  0  0  0  0  0  0  0  0  0  0  0
  1  8  1  0
  1 12  4  0
  1 14  4  0
  2  3  4  0
  2 18  4  0
  3 20  4  0
  3 22  4  0
  4 11  4  0
  4 21  4  0
  5  9  4  0
  5 16  4  0
  6 15  4  0
  6 16  4  0
  7 22  4  0
  7 26  4  0
  8 10  4  0
  8 25  4  0
  9 15  4  0
  9 17  1  0
 10 21  4  0
 11 25  4  0
 12 23  4  0
 13 20  4  0
 13 26  4  0
 14 19  4  0
 17 18  4  0
 17 24  4  0
 19 23  4  0
 20 24  4  0
 23 26  1  0
M  END
$$$$

 Created by Python create_sdf_string function

 26 30  0  0  0  0  0  0  0  0999 V2000
   10.0084   -1.8019   23.4945 C   0  0  0  0  0  0  0  0  0  0  0  0
   10.0005   -4.2520   16.5631 C   0  0  0  0  0  0  0  0  0  0  0  0
   10.2759   -4.0036   17.8845 C   0  0  0  0  0  0  0  0  0  0  0  0
    8.5652    1.5478   25.3778 N   0  0  0  0  0  0  0  0  0  0  0  0
    6.8048   -7.5457   17.8752 C   0  0  0  0  0  0  0  0  0  0  0  0
    6.1721   -8.2186   15.9886 N   0  0  0  0  0  0  0  0  0  0  0  0
   11.1764   -2.6600   19.5604 C   0  0  0  0  0  0  0  0  0  0  0  0
    9.5491   -0.6380   24.1912 C   0  0  0  0  0  0  0  0  0  0  0  0
    7.5337   -6.9256   16.9519 C   0  0  0  0  0  0  0  0  0  0  0  0
    9.6782    0.5671   23.5143 C   0  0  0  0  0  0  0  0  0  0  0  0
    8.4532    0.3482   26.0821 C   0  0  0  0  0  0  0  0  0  0  0  0
   10.4239   -1.7677   22.2230 N   0  0  0  0  0  0  0  0  0  0  0  0
    9.9468   -4.5953   20.1709 C   0  0  0  0  0  0  0  0  0  0  0  0
   10.0366   -3.0590   23.9864 N   0  0  0  0  0  0  0  0  0  0  0  0
    7.1191   -7.3636   15.7739 C   0  0  0  0  0  0  0  0  0  0  0  0
    5.9612   -8.3203   17.2732 N   0  0  0  0  0  0  0  0  0  0  0  0
    8.5296   -5.9814   17.1841 C   0  0  0  0  0  0  0  0  0  0  0  0
    9.1527   -5.2118   16.2116 C   0  0  0  0  0  0  0  0  0  0  0  0
   10.3364   -3.8368   22.9255 O   0  0  0  0  0  0  0  0  0  0  0  0
    9.6947   -4.8407   18.8534 C   0  0  0  0  0  0  0  0  0  0  0  0
    9.1596    1.7042   24.1381 C   0  0  0  0  0  0  0  0  0  0  0  0
   11.0456   -2.9774   18.2694 N   0  0  0  0  0  0  0  0  0  0  0  0
   10.4788   -3.0457   21.8593 C   0  0  0  0  0  0  0  0  0  0  0  0
    8.8693   -5.8099   18.4657 N   0  0  0  0  0  0  0  0  0  0  0  0
    8.9892   -0.7926   25.4573 C   0  0  0  0  0  0  0  0  0  0  0  0
   10.5677   -3.4462   20.5323 C   0  0  0  0  0  0  0  0  0  0  0  0
  1  8  1  0
  1 12  4  0
  1 14  4  0
  2  3  4  0
  2 18  4  0
  3 20  4  0
  3 22  4  0
  4 11  4  0
  4 21  4  0
  5  9  4  0
  5 16  4  0
  6 15  4  0
  6 16  4  0
  7 22  4  0
  7 26  4  0
  8 10  4  0
  8 25  4  0
  9 15  4  0
  9 17  1  0
 10 21  4  0
 11 25  4  0
 12 23  4  0
 13 20  4  0
 13 26  4  0
 14 19  4  0
 17 18  4  0
 17 24  4  0
 19 23  4  0
 20 24  4  0
 23 26  1  0
M  END
$$$$

 Created by Python create_sdf_string function

 26 30  0  0  0  0  0  0  0  0999 V2000
   10.0084   -1.8019   23.4945 C   0  0  0  0  0  0  0  0  0  0  0  0
   10.0005   -4.2520   16.5631 C   0  0  0  0  0  0  0  0  0  0  0  0
   10.2759   -4.0036   17.8845 C   0  0  0  0  0  0  0  0  0  0  0  0
    8.5652    1.5478   25.3778 N   0  0  0  0  0  0  0  0  0  0  0  0
    6.8048   -7.5457   17.8752 C   0  0  0  0  0  0  0  0  0  0  0  0
    6.1721   -8.2186   15.9886 N   0  0  0  0  0  0  0  0  0  0  0  0
   11.1764   -2.6600   19.5604 C   0  0  0  0  0  0  0  0  0  0  0  0
    9.5491   -0.6380   24.1912 C   0  0  0  0  0  0  0  0  0  0  0  0
    7.5337   -6.9256   16.9519 C   0  0  0  0  0  0  0  0  0  0  0  0
    9.6782    0.5671   23.5143 C   0  0  0  0  0  0  0  0  0  0  0  0
    8.4532    0.3482   26.0821 C   0  0  0  0  0  0  0  0  0  0  0  0
   10.4239   -1.7677   22.2230 N   0  0  0  0  0  0  0  0  0  0  0  0
    9.9468   -4.5953   20.1709 C   0  0  0  0  0  0  0  0  0  0  0  0
   10.0366   -3.0590   23.9864 N   0  0  0  0  0  0  0  0  0  0  0  0
    7.1191   -7.3636   15.7739 C   0  0  0  0  0  0  0  0  0  0  0  0
    5.9612   -8.3203   17.2732 N   0  0  0  0  0  0  0  0  0  0  0  0
    8.5296   -5.9814   17.1841 C   0  0  0  0  0  0  0  0  0  0  0  0
    9.1527   -5.2118   16.2116 C   0  0  0  0  0  0  0  0  0  0  0  0
   10.3364   -3.8368   22.9255 O   0  0  0  0  0  0  0  0  0  0  0  0
    9.6947   -4.8407   18.8534 C   0  0  0  0  0  0  0  0  0  0  0  0
    9.1596    1.7042   24.1381 C   0  0  0  0  0  0  0  0  0  0  0  0
   11.0456   -2.9774   18.2694 N   0  0  0  0  0  0  0  0  0  0  0  0
   10.4788   -3.0457   21.8593 C   0  0  0  0  0  0  0  0  0  0  0  0
    8.8693   -5.8099   18.4657 N   0  0  0  0  0  0  0  0  0  0  0  0
    8.9892   -0.7926   25.4573 C   0  0  0  0  0  0  0  0  0  0  0  0
   10.5677   -3.4462   20.5323 C   0  0  0  0  0  0  0  0  0  0  0  0
  1  8  1  0
  1 12  4  0
  1 14  4  0
  2  3  4  0
  2 18  4  0
  3 20  4  0
  3 22  4  0
  4 11  4  0
  4 21  4  0
  5  9  4  0
  5 16  4  0
  6 15  4  0
  6 16  4  0
  7 22  4  0
  7 26  4  0
  8 10  4  0
  8 25  4  0
  9 15  4  0
  9 17  1  0
 10 21  4  0
 11 25  4  0
 12 23  4  0
 13 20  4  0
 13 26  4  0
 14 19  4  0
 17 18  4  0
 17 24  4  0
 19 23  4  0
 20 24  4  0
 23 26  1  0
M  END
$$$$

 Created by Python create_sdf_string function

 26 30  0  0  0  0  0  0  0  0999 V2000
   10.0084   -1.8019   23.4945 C   0  0  0  0  0  0  0  0  0  0  0  0
   10.0005   -4.2520   16.5631 C   0  0  0  0  0  0  0  0  0  0  0  0
   10.2759   -4.0036   17.8845 C   0  0  0  0  0  0  0  0  0  0  0  0
    8.5652    1.5478   25.3778 N   0  0  0  0  0  0  0  0  0  0  0  0
    6.8048   -7.5457   17.8752 C   0  0  0  0  0  0  0  0  0  0  0  0
    6.1721   -8.2186   15.9886 N   0  0  0  0  0  0  0  0  0  0  0  0
   11.1764   -2.6600   19.5604 C   0  0  0  0  0  0  0  0  0  0  0  0
    9.5491   -0.6380   24.1912 C   0  0  0  0  0  0  0  0  0  0  0  0
    7.5337   -6.9256   16.9519 C   0  0  0  0  0  0  0  0  0  0  0  0
    9.6782    0.5671   23.5143 C   0  0  0  0  0  0  0  0  0  0  0  0
    8.4532    0.3482   26.0821 C   0  0  0  0  0  0  0  0  0  0  0  0
   10.4239   -1.7677   22.2230 N   0  0  0  0  0  0  0  0  0  0  0  0
    9.9468   -4.5953   20.1709 C   0  0  0  0  0  0  0  0  0  0  0  0
   10.0366   -3.0590   23.9864 N   0  0  0  0  0  0  0  0  0  0  0  0
    7.1191   -7.3636   15.7739 C   0  0  0  0  0  0  0  0  0  0  0  0
    5.9612   -8.3203   17.2732 N   0  0  0  0  0  0  0  0  0  0  0  0
    8.5296   -5.9814   17.1841 C   0  0  0  0  0  0  0  0  0  0  0  0
    9.1527   -5.2118   16.2116 C   0  0  0  0  0  0  0  0  0  0  0  0
   10.3364   -3.8368   22.9255 O   0  0  0  0  0  0  0  0  0  0  0  0
    9.6947   -4.8407   18.8534 C   0  0  0  0  0  0  0  0  0  0  0  0
    9.1596    1.7042   24.1381 C   0  0  0  0  0  0  0  0  0  0  0  0
   11.0456   -2.9774   18.2694 N   0  0  0  0  0  0  0  0  0  0  0  0
   10.4788   -3.0457   21.8593 C   0  0  0  0  0  0  0  0  0  0  0  0
    8.8693   -5.8099   18.4657 N   0  0  0  0  0  0  0  0  0  0  0  0
    8.9892   -0.7926   25.4573 C   0  0  0  0  0  0  0  0  0  0  0  0
   10.5677   -3.4462   20.5323 C   0  0  0  0  0  0  0  0  0  0  0  0
  1  8  1  0
  1 12  4  0
  1 14  4  0
  2  3  4  0
  2 18  4  0
  3 20  4  0
  3 22  4  0
  4 11  4  0
  4 21  4  0
  5  9  4  0
  5 16  4  0
  6 15  4  0
  6 16  4  0
  7 22  4  0
  7 26  4  0
  8 10  4  0
  8 25  4  0
  9 15  4  0
  9 17  1  0
 10 21  4  0
 11 25  4  0
 12 23  4  0
 13 20  4  0
 13 26  4  0
 14 19  4  0
 17 18  4  0
 17 24  4  0
 19 23  4  0
 20 24  4  0
 23 26  1  0
M  END
$$$$

 Created by Python create_sdf_string function

 26 30  0  0  0  0  0  0  0  0999 V2000
   10.0084   -1.8019   23.4945 C   0  0  0  0  0  0  0  0  0  0  0  0
   10.0005   -4.2520   16.5631 C   0  0  0  0  0  0  0  0  0  0  0  0
   10.2759   -4.0036   17.8845 C   0  0  0  0  0  0  0  0  0  0  0  0
    8.5652    1.5478   25.3778 N   0  0  0  0  0  0  0  0  0  0  0  0
    6.8048   -7.5457   17.8752 C   0  0  0  0  0  0  0  0  0  0  0  0
    6.1721   -8.2186   15.9886 N   0  0  0  0  0  0  0  0  0  0  0  0
   11.1764   -2.6600   19.5604 C   0  0  0  0  0  0  0  0  0  0  0  0
    9.5491   -0.6380   24.1912 C   0  0  0  0  0  0  0  0  0  0  0  0
    7.5337   -6.9256   16.9519 C   0  0  0  0  0  0  0  0  0  0  0  0
    9.6782    0.5671   23.5143 C   0  0  0  0  0  0  0  0  0  0  0  0
    8.4532    0.3482   26.0821 C   0  0  0  0  0  0  0  0  0  0  0  0
   10.4239   -1.7677   22.2230 N   0  0  0  0  0  0  0  0  0  0  0  0
    9.9468   -4.5953   20.1709 C   0  0  0  0  0  0  0  0  0  0  0  0
   10.0366   -3.0590   23.9864 N   0  0  0  0  0  0  0  0  0  0  0  0
    7.1191   -7.3636   15.7739 C   0  0  0  0  0  0  0  0  0  0  0  0
    5.9612   -8.3203   17.2732 N   0  0  0  0  0  0  0  0  0  0  0  0
    8.5296   -5.9814   17.1841 C   0  0  0  0  0  0  0  0  0  0  0  0
    9.1527   -5.2118   16.2116 C   0  0  0  0  0  0  0  0  0  0  0  0
   10.3364   -3.8368   22.9255 O   0  0  0  0  0  0  0  0  0  0  0  0
    9.6947   -4.8407   18.8534 C   0  0  0  0  0  0  0  0  0  0  0  0
    9.1596    1.7042   24.1381 C   0  0  0  0  0  0  0  0  0  0  0  0
   11.0456   -2.9774   18.2694 N   0  0  0  0  0  0  0  0  0  0  0  0
   10.4788   -3.0457   21.8593 C   0  0  0  0  0  0  0  0  0  0  0  0
    8.8693   -5.8099   18.4657 N   0  0  0  0  0  0  0  0  0  0  0  0
    8.9892   -0.7926   25.4573 C   0  0  0  0  0  0  0  0  0  0  0  0
   10.5677   -3.4462   20.5323 C   0  0  0  0  0  0  0  0  0  0  0  0
  1  8  1  0
  1 12  4  0
  1 14  4  0
  2  3  4  0
  2 18  4  0
  3 20  4  0
  3 22  4  0
  4 11  4  0
  4 21  4  0
  5  9  4  0
  5 16  4  0
  6 15  4  0
  6 16  4  0
  7 22  4  0
  7 26  4  0
  8 10  4  0
  8 25  4  0
  9 15  4  0
  9 17  1  0
 10 21  4  0
 11 25  4  0
 12 23  4  0
 13 20  4  0
 13 26  4  0
 14 19  4  0
 17 18  4  0
 17 24  4  0
 19 23  4  0
 20 24  4  0
 23 26  1  0
M  END
$$$$

 Created by Python create_sdf_string function

 26 30  0  0  0  0  0  0  0  0999 V2000
   10.0084   -1.8019   23.4945 C   0  0  0  0  0  0  0  0  0  0  0  0
   10.0005   -4.2520   16.5631 C   0  0  0  0  0  0  0  0  0  0  0  0
   10.2759   -4.0036   17.8845 C   0  0  0  0  0  0  0  0  0  0  0  0
    8.5652    1.5478   25.3778 N   0  0  0  0  0  0  0  0  0  0  0  0
    6.8048   -7.5457   17.8752 C   0  0  0  0  0  0  0  0  0  0  0  0
    6.1721   -8.2186   15.9886 N   0  0  0  0  0  0  0  0  0  0  0  0
   11.1764   -2.6600   19.5604 C   0  0  0  0  0  0  0  0  0  0  0  0
    9.5491   -0.6380   24.1912 C   0  0  0  0  0  0  0  0  0  0  0  0
    7.5337   -6.9256   16.9519 C   0  0  0  0  0  0  0  0  0  0  0  0
    9.6782    0.5671   23.5143 C   0  0  0  0  0  0  0  0  0  0  0  0
    8.4532    0.3482   26.0821 C   0  0  0  0  0  0  0  0  0  0  0  0
   10.4239   -1.7677   22.2230 N   0  0  0  0  0  0  0  0  0  0  0  0
    9.9468   -4.5953   20.1709 C   0  0  0  0  0  0  0  0  0  0  0  0
   10.0366   -3.0590   23.9864 N   0  0  0  0  0  0  0  0  0  0  0  0
    7.1191   -7.3636   15.7739 C   0  0  0  0  0  0  0  0  0  0  0  0
    5.9612   -8.3203   17.2732 N   0  0  0  0  0  0  0  0  0  0  0  0
    8.5296   -5.9814   17.1841 C   0  0  0  0  0  0  0  0  0  0  0  0
    9.1527   -5.2118   16.2116 C   0  0  0  0  0  0  0  0  0  0  0  0
   10.3364   -3.8368   22.9255 O   0  0  0  0  0  0  0  0  0  0  0  0
    9.6947   -4.8407   18.8534 C   0  0  0  0  0  0  0  0  0  0  0  0
    9.1596    1.7042   24.1381 C   0  0  0  0  0  0  0  0  0  0  0  0
   11.0456   -2.9774   18.2694 N   0  0  0  0  0  0  0  0  0  0  0  0
   10.4788   -3.0457   21.8593 C   0  0  0  0  0  0  0  0  0  0  0  0
    8.8693   -5.8099   18.4657 N   0  0  0  0  0  0  0  0  0  0  0  0
    8.9892   -0.7926   25.4573 C   0  0  0  0  0  0  0  0  0  0  0  0
   10.5677   -3.4462   20.5323 C   0  0  0  0  0  0  0  0  0  0  0  0
  1  8  1  0
  1 12  4  0
  1 14  4  0
  2  3  4  0
  2 18  4  0
  3 20  4  0
  3 22  4  0
  4 11  4  0
  4 21  4  0
  5  9  4  0
  5 16  4  0
  6 15  4  0
  6 16  4  0
  7 22  4  0
  7 26  4  0
  8 10  4  0
  8 25  4  0
  9 15  4  0
  9 17  1  0
 10 21  4  0
 11 25  4  0
 12 23  4  0
 13 20  4  0
 13 26  4  0
 14 19  4  0
 17 18  4  0
 17 24  4  0
 19 23  4  0
 20 24  4  0
 23 26  1  0
M  END
$$$$

 Created by Python create_sdf_string function

 26 30  0  0  0  0  0  0  0  0999 V2000
   10.0084   -1.8019   23.4945 C   0  0  0  0  0  0  0  0  0  0  0  0
   10.0005   -4.2520   16.5631 C   0  0  0  0  0  0  0  0  0  0  0  0
   10.2759   -4.0036   17.8845 C   0  0  0  0  0  0  0  0  0  0  0  0
    8.5652    1.5478   25.3778 N   0  0  0  0  0  0  0  0  0  0  0  0
    6.8048   -7.5457   17.8752 C   0  0  0  0  0  0  0  0  0  0  0  0
    6.1721   -8.2186   15.9886 N   0  0  0  0  0  0  0  0  0  0  0  0
   11.1764   -2.6600   19.5604 C   0  0  0  0  0  0  0  0  0  0  0  0
    9.5491   -0.6380   24.1912 C   0  0  0  0  0  0  0  0  0  0  0  0
    7.5337   -6.9256   16.9519 C   0  0  0  0  0  0  0  0  0  0  0  0
    9.6782    0.5671   23.5143 C   0  0  0  0  0  0  0  0  0  0  0  0
    8.4532    0.3482   26.0821 C   0  0  0  0  0  0  0  0  0  0  0  0
   10.4239   -1.7677   22.2230 N   0  0  0  0  0  0  0  0  0  0  0  0
    9.9468   -4.5953   20.1709 C   0  0  0  0  0  0  0  0  0  0  0  0
   10.0366   -3.0590   23.9864 N   0  0  0  0  0  0  0  0  0  0  0  0
    7.1191   -7.3636   15.7739 C   0  0  0  0  0  0  0  0  0  0  0  0
    5.9612   -8.3203   17.2732 N   0  0  0  0  0  0  0  0  0  0  0  0
    8.5296   -5.9814   17.1841 C   0  0  0  0  0  0  0  0  0  0  0  0
    9.1527   -5.2118   16.2116 C   0  0  0  0  0  0  0  0  0  0  0  0
   10.3364   -3.8368   22.9255 O   0  0  0  0  0  0  0  0  0  0  0  0
    9.6947   -4.8407   18.8534 C   0  0  0  0  0  0  0  0  0  0  0  0
    9.1596    1.7042   24.1381 C   0  0  0  0  0  0  0  0  0  0  0  0
   11.0456   -2.9774   18.2694 N   0  0  0  0  0  0  0  0  0  0  0  0
   10.4788   -3.0457   21.8593 C   0  0  0  0  0  0  0  0  0  0  0  0
    8.8693   -5.8099   18.4657 N   0  0  0  0  0  0  0  0  0  0  0  0
    8.9892   -0.7926   25.4573 C   0  0  0  0  0  0  0  0  0  0  0  0
   10.5677   -3.4462   20.5323 C   0  0  0  0  0  0  0  0  0  0  0  0
  1  8  1  0
  1 12  4  0
  1 14  4  0
  2  3  4  0
  2 18  4  0
  3 20  4  0
  3 22  4  0
  4 11  4  0
  4 21  4  0
  5  9  4  0
  5 16  4  0
  6 15  4  0
  6 16  4  0
  7 22  4  0
  7 26  4  0
  8 10  4  0
  8 25  4  0
  9 15  4  0
  9 17  1  0
 10 21  4  0
 11 25  4  0
 12 23  4  0
 13 20  4  0
 13 26  4  0
 14 19  4  0
 17 18  4  0
 17 24  4  0
 19 23  4  0
 20 24  4  0
 23 26  1  0
M  END
$$$$

 Created by Python create_sdf_string function

 26 30  0  0  0  0  0  0  0  0999 V2000
   10.0084   -1.8019   23.4945 C   0  0  0  0  0  0  0  0  0  0  0  0
   10.0005   -4.2520   16.5631 C   0  0  0  0  0  0  0  0  0  0  0  0
   10.2759   -4.0036   17.8845 C   0  0  0  0  0  0  0  0  0  0  0  0
    8.5652    1.5478   25.3778 N   0  0  0  0  0  0  0  0  0  0  0  0
    6.8048   -7.5457   17.8752 C   0  0  0  0  0  0  0  0  0  0  0  0
    6.1721   -8.2186   15.9886 N   0  0  0  0  0  0  0  0  0  0  0  0
   11.1764   -2.6600   19.5604 C   0  0  0  0  0  0  0  0  0  0  0  0
    9.5491   -0.6380   24.1912 C   0  0  0  0  0  0  0  0  0  0  0  0
    7.5337   -6.9256   16.9519 C   0  0  0  0  0  0  0  0  0  0  0  0
    9.6782    0.5671   23.5143 C   0  0  0  0  0  0  0  0  0  0  0  0
    8.4532    0.3482   26.0821 C   0  0  0  0  0  0  0  0  0  0  0  0
   10.4239   -1.7677   22.2230 N   0  0  0  0  0  0  0  0  0  0  0  0
    9.9468   -4.5953   20.1709 C   0  0  0  0  0  0  0  0  0  0  0  0
   10.0366   -3.0590   23.9864 N   0  0  0  0  0  0  0  0  0  0  0  0
    7.1191   -7.3636   15.7739 C   0  0  0  0  0  0  0  0  0  0  0  0
    5.9612   -8.3203   17.2732 N   0  0  0  0  0  0  0  0  0  0  0  0
    8.5296   -5.9814   17.1841 C   0  0  0  0  0  0  0  0  0  0  0  0
    9.1527   -5.2118   16.2116 C   0  0  0  0  0  0  0  0  0  0  0  0
   10.3364   -3.8368   22.9255 O   0  0  0  0  0  0  0  0  0  0  0  0
    9.6947   -4.8407   18.8534 C   0  0  0  0  0  0  0  0  0  0  0  0
    9.1596    1.7042   24.1381 C   0  0  0  0  0  0  0  0  0  0  0  0
   11.0456   -2.9774   18.2694 N   0  0  0  0  0  0  0  0  0  0  0  0
   10.4788   -3.0457   21.8593 C   0  0  0  0  0  0  0  0  0  0  0  0
    8.8693   -5.8099   18.4657 N   0  0  0  0  0  0  0  0  0  0  0  0
    8.9892   -0.7926   25.4573 C   0  0  0  0  0  0  0  0  0  0  0  0
   10.5677   -3.4462   20.5323 C   0  0  0  0  0  0  0  0  0  0  0  0
  1  8  1  0
  1 12  4  0
  1 14  4  0
  2  3  4  0
  2 18  4  0
  3 20  4  0
  3 22  4  0
  4 11  4  0
  4 21  4  0
  5  9  4  0
  5 16  4  0
  6 15  4  0
  6 16  4  0
  7 22  4  0
  7 26  4  0
  8 10  4  0
  8 25  4  0
  9 15  4  0
  9 17  1  0
 10 21  4  0
 11 25  4  0
 12 23  4  0
 13 20  4  0
 13 26  4  0
 14 19  4  0
 17 18  4  0
 17 24  4  0
 19 23  4  0
 20 24  4  0
 23 26  1  0
M  END
$$$$

 Created by Python create_sdf_string function

 26 30  0  0  0  0  0  0  0  0999 V2000
   10.0084   -1.8019   23.4945 C   0  0  0  0  0  0  0  0  0  0  0  0
   10.0005   -4.2520   16.5631 C   0  0  0  0  0  0  0  0  0  0  0  0
   10.2759   -4.0036   17.8845 C   0  0  0  0  0  0  0  0  0  0  0  0
    8.5652    1.5478   25.3778 N   0  0  0  0  0  0  0  0  0  0  0  0
    6.8048   -7.5457   17.8752 C   0  0  0  0  0  0  0  0  0  0  0  0
    6.1721   -8.2186   15.9886 N   0  0  0  0  0  0  0  0  0  0  0  0
   11.1764   -2.6600   19.5604 C   0  0  0  0  0  0  0  0  0  0  0  0
    9.5491   -0.6380   24.1912 C   0  0  0  0  0  0  0  0  0  0  0  0
    7.5337   -6.9256   16.9519 C   0  0  0  0  0  0  0  0  0  0  0  0
    9.6782    0.5671   23.5143 C   0  0  0  0  0  0  0  0  0  0  0  0
    8.4532    0.3482   26.0821 C   0  0  0  0  0  0  0  0  0  0  0  0
   10.4239   -1.7677   22.2230 N   0  0  0  0  0  0  0  0  0  0  0  0
    9.9468   -4.5953   20.1709 C   0  0  0  0  0  0  0  0  0  0  0  0
   10.0366   -3.0590   23.9864 N   0  0  0  0  0  0  0  0  0  0  0  0
    7.1191   -7.3636   15.7739 C   0  0  0  0  0  0  0  0  0  0  0  0
    5.9612   -8.3203   17.2732 N   0  0  0  0  0  0  0  0  0  0  0  0
    8.5296   -5.9814   17.1841 C   0  0  0  0  0  0  0  0  0  0  0  0
    9.1527   -5.2118   16.2116 C   0  0  0  0  0  0  0  0  0  0  0  0
   10.3364   -3.8368   22.9255 O   0  0  0  0  0  0  0  0  0  0  0  0
    9.6947   -4.8407   18.8534 C   0  0  0  0  0  0  0  0  0  0  0  0
    9.1596    1.7042   24.1381 C   0  0  0  0  0  0  0  0  0  0  0  0
   11.0456   -2.9774   18.2694 N   0  0  0  0  0  0  0  0  0  0  0  0
   10.4788   -3.0457   21.8593 C   0  0  0  0  0  0  0  0  0  0  0  0
    8.8693   -5.8099   18.4657 N   0  0  0  0  0  0  0  0  0  0  0  0
    8.9892   -0.7926   25.4573 C   0  0  0  0  0  0  0  0  0  0  0  0
   10.5677   -3.4462   20.5323 C   0  0  0  0  0  0  0  0  0  0  0  0
  1  8  1  0
  1 12  4  0
  1 14  4  0
  2  3  4  0
  2 18  4  0
  3 20  4  0
  3 22  4  0
  4 11  4  0
  4 21  4  0
  5  9  4  0
  5 16  4  0
  6 15  4  0
  6 16  4  0
  7 22  4  0
  7 26  4  0
  8 10  4  0
  8 25  4  0
  9 15  4  0
  9 17  1  0
 10 21  4  0
 11 25  4  0
 12 23  4  0
 13 20  4  0
 13 26  4  0
 14 19  4  0
 17 18  4  0
 17 24  4  0
 19 23  4  0
 20 24  4  0
 23 26  1  0
M  END
$$$$

 Created by Python create_sdf_string function

 26 30  0  0  0  0  0  0  0  0999 V2000
   10.0084   -1.8019   23.4945 C   0  0  0  0  0  0  0  0  0  0  0  0
   10.0005   -4.2520   16.5631 C   0  0  0  0  0  0  0  0  0  0  0  0
   10.2759   -4.0036   17.8845 C   0  0  0  0  0  0  0  0  0  0  0  0
    8.5652    1.5478   25.3778 N   0  0  0  0  0  0  0  0  0  0  0  0
    6.8048   -7.5457   17.8752 C   0  0  0  0  0  0  0  0  0  0  0  0
    6.1721   -8.2186   15.9886 N   0  0  0  0  0  0  0  0  0  0  0  0
   11.1764   -2.6600   19.5604 C   0  0  0  0  0  0  0  0  0  0  0  0
    9.5491   -0.6380   24.1912 C   0  0  0  0  0  0  0  0  0  0  0  0
    7.5337   -6.9256   16.9519 C   0  0  0  0  0  0  0  0  0  0  0  0
    9.6782    0.5671   23.5143 C   0  0  0  0  0  0  0  0  0  0  0  0
    8.4532    0.3482   26.0821 C   0  0  0  0  0  0  0  0  0  0  0  0
   10.4239   -1.7677   22.2230 N   0  0  0  0  0  0  0  0  0  0  0  0
    9.9468   -4.5953   20.1709 C   0  0  0  0  0  0  0  0  0  0  0  0
   10.0366   -3.0590   23.9864 N   0  0  0  0  0  0  0  0  0  0  0  0
    7.1191   -7.3636   15.7739 C   0  0  0  0  0  0  0  0  0  0  0  0
    5.9612   -8.3203   17.2732 N   0  0  0  0  0  0  0  0  0  0  0  0
    8.5296   -5.9814   17.1841 C   0  0  0  0  0  0  0  0  0  0  0  0
    9.1527   -5.2118   16.2116 C   0  0  0  0  0  0  0  0  0  0  0  0
   10.3364   -3.8368   22.9255 O   0  0  0  0  0  0  0  0  0  0  0  0
    9.6947   -4.8407   18.8534 C   0  0  0  0  0  0  0  0  0  0  0  0
    9.1596    1.7042   24.1381 C   0  0  0  0  0  0  0  0  0  0  0  0
   11.0456   -2.9774   18.2694 N   0  0  0  0  0  0  0  0  0  0  0  0
   10.4788   -3.0457   21.8593 C   0  0  0  0  0  0  0  0  0  0  0  0
    8.8693   -5.8099   18.4657 N   0  0  0  0  0  0  0  0  0  0  0  0
    8.9892   -0.7926   25.4573 C   0  0  0  0  0  0  0  0  0  0  0  0
   10.5677   -3.4462   20.5323 C   0  0  0  0  0  0  0  0  0  0  0  0
  1  8  1  0
  1 12  4  0
  1 14  4  0
  2  3  4  0
  2 18  4  0
  3 20  4  0
  3 22  4  0
  4 11  4  0
  4 21  4  0
  5  9  4  0
  5 16  4  0
  6 15  4  0
  6 16  4  0
  7 22  4  0
  7 26  4  0
  8 10  4  0
  8 25  4  0
  9 15  4  0
  9 17  1  0
 10 21  4  0
 11 25  4  0
 12 23  4  0
 13 20  4  0
 13 26  4  0
 14 19  4  0
 17 18  4  0
 17 24  4  0
 19 23  4  0
 20 24  4  0
 23 26  1  0
M  END
$$$$

 Created by Python create_sdf_string function

 26 30  0  0  0  0  0  0  0  0999 V2000
   10.0084   -1.8019   23.4945 C   0  0  0  0  0  0  0  0  0  0  0  0
   10.0005   -4.2520   16.5631 C   0  0  0  0  0  0  0  0  0  0  0  0
   10.2759   -4.0036   17.8845 C   0  0  0  0  0  0  0  0  0  0  0  0
    8.5652    1.5478   25.3778 N   0  0  0  0  0  0  0  0  0  0  0  0
    6.8048   -7.5457   17.8752 C   0  0  0  0  0  0  0  0  0  0  0  0
    6.1721   -8.2186   15.9886 N   0  0  0  0  0  0  0  0  0  0  0  0
   11.1764   -2.6600   19.5604 C   0  0  0  0  0  0  0  0  0  0  0  0
    9.5491   -0.6380   24.1912 C   0  0  0  0  0  0  0  0  0  0  0  0
    7.5337   -6.9256   16.9519 C   0  0  0  0  0  0  0  0  0  0  0  0
    9.6782    0.5671   23.5143 C   0  0  0  0  0  0  0  0  0  0  0  0
    8.4532    0.3482   26.0821 C   0  0  0  0  0  0  0  0  0  0  0  0
   10.4239   -1.7677   22.2230 N   0  0  0  0  0  0  0  0  0  0  0  0
    9.9468   -4.5953   20.1709 C   0  0  0  0  0  0  0  0  0  0  0  0
   10.0366   -3.0590   23.9864 N   0  0  0  0  0  0  0  0  0  0  0  0
    7.1191   -7.3636   15.7739 C   0  0  0  0  0  0  0  0  0  0  0  0
    5.9612   -8.3203   17.2732 N   0  0  0  0  0  0  0  0  0  0  0  0
    8.5296   -5.9814   17.1841 C   0  0  0  0  0  0  0  0  0  0  0  0
    9.1527   -5.2118   16.2116 C   0  0  0  0  0  0  0  0  0  0  0  0
   10.3364   -3.8368   22.9255 O   0  0  0  0  0  0  0  0  0  0  0  0
    9.6947   -4.8407   18.8534 C   0  0  0  0  0  0  0  0  0  0  0  0
    9.1596    1.7042   24.1381 C   0  0  0  0  0  0  0  0  0  0  0  0
   11.0456   -2.9774   18.2694 N   0  0  0  0  0  0  0  0  0  0  0  0
   10.4788   -3.0457   21.8593 C   0  0  0  0  0  0  0  0  0  0  0  0
    8.8693   -5.8099   18.4657 N   0  0  0  0  0  0  0  0  0  0  0  0
    8.9892   -0.7926   25.4573 C   0  0  0  0  0  0  0  0  0  0  0  0
   10.5677   -3.4462   20.5323 C   0  0  0  0  0  0  0  0  0  0  0  0
  1  8  1  0
  1 12  4  0
  1 14  4  0
  2  3  4  0
  2 18  4  0
  3 20  4  0
  3 22  4  0
  4 11  4  0
  4 21  4  0
  5  9  4  0
  5 16  4  0
  6 15  4  0
  6 16  4  0
  7 22  4  0
  7 26  4  0
  8 10  4  0
  8 25  4  0
  9 15  4  0
  9 17  1  0
 10 21  4  0
 11 25  4  0
 12 23  4  0
 13 20  4  0
 13 26  4  0
 14 19  4  0
 17 18  4  0
 17 24  4  0
 19 23  4  0
 20 24  4  0
 23 26  1  0
M  END
$$$$

 Created by Python create_sdf_string function

 26 30  0  0  0  0  0  0  0  0999 V2000
   10.0084   -1.8019   23.4945 C   0  0  0  0  0  0  0  0  0  0  0  0
   10.0005   -4.2520   16.5631 C   0  0  0  0  0  0  0  0  0  0  0  0
   10.2759   -4.0036   17.8845 C   0  0  0  0  0  0  0  0  0  0  0  0
    8.5652    1.5478   25.3778 N   0  0  0  0  0  0  0  0  0  0  0  0
    6.8048   -7.5457   17.8752 C   0  0  0  0  0  0  0  0  0  0  0  0
    6.1721   -8.2186   15.9886 N   0  0  0  0  0  0  0  0  0  0  0  0
   11.1764   -2.6600   19.5604 C   0  0  0  0  0  0  0  0  0  0  0  0
    9.5491   -0.6380   24.1912 C   0  0  0  0  0  0  0  0  0  0  0  0
    7.5337   -6.9256   16.9519 C   0  0  0  0  0  0  0  0  0  0  0  0
    9.6782    0.5671   23.5143 C   0  0  0  0  0  0  0  0  0  0  0  0
    8.4532    0.3482   26.0821 C   0  0  0  0  0  0  0  0  0  0  0  0
   10.4239   -1.7677   22.2230 N   0  0  0  0  0  0  0  0  0  0  0  0
    9.9468   -4.5953   20.1709 C   0  0  0  0  0  0  0  0  0  0  0  0
   10.0366   -3.0590   23.9864 N   0  0  0  0  0  0  0  0  0  0  0  0
    7.1191   -7.3636   15.7739 C   0  0  0  0  0  0  0  0  0  0  0  0
    5.9612   -8.3203   17.2732 N   0  0  0  0  0  0  0  0  0  0  0  0
    8.5296   -5.9814   17.1841 C   0  0  0  0  0  0  0  0  0  0  0  0
    9.1527   -5.2118   16.2116 C   0  0  0  0  0  0  0  0  0  0  0  0
   10.3364   -3.8368   22.9255 O   0  0  0  0  0  0  0  0  0  0  0  0
    9.6947   -4.8407   18.8534 C   0  0  0  0  0  0  0  0  0  0  0  0
    9.1596    1.7042   24.1381 C   0  0  0  0  0  0  0  0  0  0  0  0
   11.0456   -2.9774   18.2694 N   0  0  0  0  0  0  0  0  0  0  0  0
   10.4788   -3.0457   21.8593 C   0  0  0  0  0  0  0  0  0  0  0  0
    8.8693   -5.8099   18.4657 N   0  0  0  0  0  0  0  0  0  0  0  0
    8.9892   -0.7926   25.4573 C   0  0  0  0  0  0  0  0  0  0  0  0
   10.5677   -3.4462   20.5323 C   0  0  0  0  0  0  0  0  0  0  0  0
  1  8  1  0
  1 12  4  0
  1 14  4  0
  2  3  4  0
  2 18  4  0
  3 20  4  0
  3 22  4  0
  4 11  4  0
  4 21  4  0
  5  9  4  0
  5 16  4  0
  6 15  4  0
  6 16  4  0
  7 22  4  0
  7 26  4  0
  8 10  4  0
  8 25  4  0
  9 15  4  0
  9 17  1  0
 10 21  4  0
 11 25  4  0
 12 23  4  0
 13 20  4  0
 13 26  4  0
 14 19  4  0
 17 18  4  0
 17 24  4  0
 19 23  4  0
 20 24  4  0
 23 26  1  0
M  END
$$$$

 Created by Python create_sdf_string function

 26 30  0  0  0  0  0  0  0  0999 V2000
   10.0084   -1.8019   23.4945 C   0  0  0  0  0  0  0  0  0  0  0  0
   10.0005   -4.2520   16.5631 C   0  0  0  0  0  0  0  0  0  0  0  0
   10.2759   -4.0036   17.8845 C   0  0  0  0  0  0  0  0  0  0  0  0
    8.5652    1.5478   25.3778 N   0  0  0  0  0  0  0  0  0  0  0  0
    6.8048   -7.5457   17.8752 C   0  0  0  0  0  0  0  0  0  0  0  0
    6.1721   -8.2186   15.9886 N   0  0  0  0  0  0  0  0  0  0  0  0
   11.1764   -2.6600   19.5604 C   0  0  0  0  0  0  0  0  0  0  0  0
    9.5491   -0.6380   24.1912 C   0  0  0  0  0  0  0  0  0  0  0  0
    7.5337   -6.9256   16.9519 C   0  0  0  0  0  0  0  0  0  0  0  0
    9.6782    0.5671   23.5143 C   0  0  0  0  0  0  0  0  0  0  0  0
    8.4532    0.3482   26.0821 C   0  0  0  0  0  0  0  0  0  0  0  0
   10.4239   -1.7677   22.2230 N   0  0  0  0  0  0  0  0  0  0  0  0
    9.9468   -4.5953   20.1709 C   0  0  0  0  0  0  0  0  0  0  0  0
   10.0366   -3.0590   23.9864 N   0  0  0  0  0  0  0  0  0  0  0  0
    7.1191   -7.3636   15.7739 C   0  0  0  0  0  0  0  0  0  0  0  0
    5.9612   -8.3203   17.2732 N   0  0  0  0  0  0  0  0  0  0  0  0
    8.5296   -5.9814   17.1841 C   0  0  0  0  0  0  0  0  0  0  0  0
    9.1527   -5.2118   16.2116 C   0  0  0  0  0  0  0  0  0  0  0  0
   10.3364   -3.8368   22.9255 O   0  0  0  0  0  0  0  0  0  0  0  0
    9.6947   -4.8407   18.8534 C   0  0  0  0  0  0  0  0  0  0  0  0
    9.1596    1.7042   24.1381 C   0  0  0  0  0  0  0  0  0  0  0  0
   11.0456   -2.9774   18.2694 N   0  0  0  0  0  0  0  0  0  0  0  0
   10.4788   -3.0457   21.8593 C   0  0  0  0  0  0  0  0  0  0  0  0
    8.8693   -5.8099   18.4657 N   0  0  0  0  0  0  0  0  0  0  0  0
    8.9892   -0.7926   25.4573 C   0  0  0  0  0  0  0  0  0  0  0  0
   10.5677   -3.4462   20.5323 C   0  0  0  0  0  0  0  0  0  0  0  0
  1  8  1  0
  1 12  4  0
  1 14  4  0
  2  3  4  0
  2 18  4  0
  3 20  4  0
  3 22  4  0
  4 11  4  0
  4 21  4  0
  5  9  4  0
  5 16  4  0
  6 15  4  0
  6 16  4  0
  7 22  4  0
  7 26  4  0
  8 10  4  0
  8 25  4  0
  9 15  4  0
  9 17  1  0
 10 21  4  0
 11 25  4  0
 12 23  4  0
 13 20  4  0
 13 26  4  0
 14 19  4  0
 17 18  4  0
 17 24  4  0
 19 23  4  0
 20 24  4  0
 23 26  1  0
M  END
$$$$

 Created by Python create_sdf_string function

 26 30  0  0  0  0  0  0  0  0999 V2000
   10.0084   -1.8019   23.4945 C   0  0  0  0  0  0  0  0  0  0  0  0
   10.0005   -4.2520   16.5631 C   0  0  0  0  0  0  0  0  0  0  0  0
   10.2759   -4.0036   17.8845 C   0  0  0  0  0  0  0  0  0  0  0  0
    8.5652    1.5478   25.3778 N   0  0  0  0  0  0  0  0  0  0  0  0
    6.8048   -7.5457   17.8752 C   0  0  0  0  0  0  0  0  0  0  0  0
    6.1721   -8.2186   15.9886 N   0  0  0  0  0  0  0  0  0  0  0  0
   11.1764   -2.6600   19.5604 C   0  0  0  0  0  0  0  0  0  0  0  0
    9.5491   -0.6380   24.1912 C   0  0  0  0  0  0  0  0  0  0  0  0
    7.5337   -6.9256   16.9519 C   0  0  0  0  0  0  0  0  0  0  0  0
    9.6782    0.5671   23.5143 C   0  0  0  0  0  0  0  0  0  0  0  0
    8.4532    0.3482   26.0821 C   0  0  0  0  0  0  0  0  0  0  0  0
   10.4239   -1.7677   22.2230 N   0  0  0  0  0  0  0  0  0  0  0  0
    9.9468   -4.5953   20.1709 C   0  0  0  0  0  0  0  0  0  0  0  0
   10.0366   -3.0590   23.9864 N   0  0  0  0  0  0  0  0  0  0  0  0
    7.1191   -7.3636   15.7739 C   0  0  0  0  0  0  0  0  0  0  0  0
    5.9612   -8.3203   17.2732 N   0  0  0  0  0  0  0  0  0  0  0  0
    8.5296   -5.9814   17.1841 C   0  0  0  0  0  0  0  0  0  0  0  0
    9.1527   -5.2118   16.2116 C   0  0  0  0  0  0  0  0  0  0  0  0
   10.3364   -3.8368   22.9255 O   0  0  0  0  0  0  0  0  0  0  0  0
    9.6947   -4.8407   18.8534 C   0  0  0  0  0  0  0  0  0  0  0  0
    9.1596    1.7042   24.1381 C   0  0  0  0  0  0  0  0  0  0  0  0
   11.0456   -2.9774   18.2694 N   0  0  0  0  0  0  0  0  0  0  0  0
   10.4788   -3.0457   21.8593 C   0  0  0  0  0  0  0  0  0  0  0  0
    8.8693   -5.8099   18.4657 N   0  0  0  0  0  0  0  0  0  0  0  0
    8.9892   -0.7926   25.4573 C   0  0  0  0  0  0  0  0  0  0  0  0
   10.5677   -3.4462   20.5323 C   0  0  0  0  0  0  0  0  0  0  0  0
  1  8  1  0
  1 12  4  0
  1 14  4  0
  2  3  4  0
  2 18  4  0
  3 20  4  0
  3 22  4  0
  4 11  4  0
  4 21  4  0
  5  9  4  0
  5 16  4  0
  6 15  4  0
  6 16  4  0
  7 22  4  0
  7 26  4  0
  8 10  4  0
  8 25  4  0
  9 15  4  0
  9 17  1  0
 10 21  4  0
 11 25  4  0
 12 23  4  0
 13 20  4  0
 13 26  4  0
 14 19  4  0
 17 18  4  0
 17 24  4  0
 19 23  4  0
 20 24  4  0
 23 26  1  0
M  END
$$$$

 Created by Python create_sdf_string function

 26 30  0  0  0  0  0  0  0  0999 V2000
   10.0084   -1.8019   23.4945 C   0  0  0  0  0  0  0  0  0  0  0  0
   10.0005   -4.2520   16.5631 C   0  0  0  0  0  0  0  0  0  0  0  0
   10.2759   -4.0036   17.8845 C   0  0  0  0  0  0  0  0  0  0  0  0
    8.5652    1.5478   25.3778 N   0  0  0  0  0  0  0  0  0  0  0  0
    6.8048   -7.5457   17.8752 C   0  0  0  0  0  0  0  0  0  0  0  0
    6.1721   -8.2186   15.9886 N   0  0  0  0  0  0  0  0  0  0  0  0
   11.1764   -2.6600   19.5604 C   0  0  0  0  0  0  0  0  0  0  0  0
    9.5491   -0.6380   24.1912 C   0  0  0  0  0  0  0  0  0  0  0  0
    7.5337   -6.9256   16.9519 C   0  0  0  0  0  0  0  0  0  0  0  0
    9.6782    0.5671   23.5143 C   0  0  0  0  0  0  0  0  0  0  0  0
    8.4532    0.3482   26.0821 C   0  0  0  0  0  0  0  0  0  0  0  0
   10.4239   -1.7677   22.2230 N   0  0  0  0  0  0  0  0  0  0  0  0
    9.9468   -4.5953   20.1709 C   0  0  0  0  0  0  0  0  0  0  0  0
   10.0366   -3.0590   23.9864 N   0  0  0  0  0  0  0  0  0  0  0  0
    7.1191   -7.3636   15.7739 C   0  0  0  0  0  0  0  0  0  0  0  0
    5.9612   -8.3203   17.2732 N   0  0  0  0  0  0  0  0  0  0  0  0
    8.5296   -5.9814   17.1841 C   0  0  0  0  0  0  0  0  0  0  0  0
    9.1527   -5.2118   16.2116 C   0  0  0  0  0  0  0  0  0  0  0  0
   10.3364   -3.8368   22.9255 O   0  0  0  0  0  0  0  0  0  0  0  0
    9.6947   -4.8407   18.8534 C   0  0  0  0  0  0  0  0  0  0  0  0
    9.1596    1.7042   24.1381 C   0  0  0  0  0  0  0  0  0  0  0  0
   11.0456   -2.9774   18.2694 N   0  0  0  0  0  0  0  0  0  0  0  0
   10.4788   -3.0457   21.8593 C   0  0  0  0  0  0  0  0  0  0  0  0
    8.8693   -5.8099   18.4657 N   0  0  0  0  0  0  0  0  0  0  0  0
    8.9892   -0.7926   25.4573 C   0  0  0  0  0  0  0  0  0  0  0  0
   10.5677   -3.4462   20.5323 C   0  0  0  0  0  0  0  0  0  0  0  0
  1  8  1  0
  1 12  4  0
  1 14  4  0
  2  3  4  0
  2 18  4  0
  3 20  4  0
  3 22  4  0
  4 11  4  0
  4 21  4  0
  5  9  4  0
  5 16  4  0
  6 15  4  0
  6 16  4  0
  7 22  4  0
  7 26  4  0
  8 10  4  0
  8 25  4  0
  9 15  4  0
  9 17  1  0
 10 21  4  0
 11 25  4  0
 12 23  4  0
 13 20  4  0
 13 26  4  0
 14 19  4  0
 17 18  4  0
 17 24  4  0
 19 23  4  0
 20 24  4  0
 23 26  1  0
M  END
$$$$

 Created by Python create_sdf_string function

 26 30  0  0  0  0  0  0  0  0999 V2000
   10.0084   -1.8019   23.4945 C   0  0  0  0  0  0  0  0  0  0  0  0
   10.0005   -4.2520   16.5631 C   0  0  0  0  0  0  0  0  0  0  0  0
   10.2759   -4.0036   17.8845 C   0  0  0  0  0  0  0  0  0  0  0  0
    8.5652    1.5478   25.3778 N   0  0  0  0  0  0  0  0  0  0  0  0
    6.8048   -7.5457   17.8752 C   0  0  0  0  0  0  0  0  0  0  0  0
    6.1721   -8.2186   15.9886 N   0  0  0  0  0  0  0  0  0  0  0  0
   11.1764   -2.6600   19.5604 C   0  0  0  0  0  0  0  0  0  0  0  0
    9.5491   -0.6380   24.1912 C   0  0  0  0  0  0  0  0  0  0  0  0
    7.5337   -6.9256   16.9519 C   0  0  0  0  0  0  0  0  0  0  0  0
    9.6782    0.5671   23.5143 C   0  0  0  0  0  0  0  0  0  0  0  0
    8.4532    0.3482   26.0821 C   0  0  0  0  0  0  0  0  0  0  0  0
   10.4239   -1.7677   22.2230 N   0  0  0  0  0  0  0  0  0  0  0  0
    9.9468   -4.5953   20.1709 C   0  0  0  0  0  0  0  0  0  0  0  0
   10.0366   -3.0590   23.9864 N   0  0  0  0  0  0  0  0  0  0  0  0
    7.1191   -7.3636   15.7739 C   0  0  0  0  0  0  0  0  0  0  0  0
    5.9612   -8.3203   17.2732 N   0  0  0  0  0  0  0  0  0  0  0  0
    8.5296   -5.9814   17.1841 C   0  0  0  0  0  0  0  0  0  0  0  0
    9.1527   -5.2118   16.2116 C   0  0  0  0  0  0  0  0  0  0  0  0
   10.3364   -3.8368   22.9255 O   0  0  0  0  0  0  0  0  0  0  0  0
    9.6947   -4.8407   18.8534 C   0  0  0  0  0  0  0  0  0  0  0  0
    9.1596    1.7042   24.1381 C   0  0  0  0  0  0  0  0  0  0  0  0
   11.0456   -2.9774   18.2694 N   0  0  0  0  0  0  0  0  0  0  0  0
   10.4788   -3.0457   21.8593 C   0  0  0  0  0  0  0  0  0  0  0  0
    8.8693   -5.8099   18.4657 N   0  0  0  0  0  0  0  0  0  0  0  0
    8.9892   -0.7926   25.4573 C   0  0  0  0  0  0  0  0  0  0  0  0
   10.5677   -3.4462   20.5323 C   0  0  0  0  0  0  0  0  0  0  0  0
  1  8  1  0
  1 12  4  0
  1 14  4  0
  2  3  4  0
  2 18  4  0
  3 20  4  0
  3 22  4  0
  4 11  4  0
  4 21  4  0
  5  9  4  0
  5 16  4  0
  6 15  4  0
  6 16  4  0
  7 22  4  0
  7 26  4  0
  8 10  4  0
  8 25  4  0
  9 15  4  0
  9 17  1  0
 10 21  4  0
 11 25  4  0
 12 23  4  0
 13 20  4  0
 13 26  4  0
 14 19  4  0
 17 18  4  0
 17 24  4  0
 19 23  4  0
 20 24  4  0
 23 26  1  0
M  END
$$$$

 Created by Python create_sdf_string function

 26 30  0  0  0  0  0  0  0  0999 V2000
   10.0084   -1.8019   23.4945 C   0  0  0  0  0  0  0  0  0  0  0  0
   10.0005   -4.2520   16.5631 C   0  0  0  0  0  0  0  0  0  0  0  0
   10.2759   -4.0036   17.8845 C   0  0  0  0  0  0  0  0  0  0  0  0
    8.5652    1.5478   25.3778 N   0  0  0  0  0  0  0  0  0  0  0  0
    6.8048   -7.5457   17.8752 C   0  0  0  0  0  0  0  0  0  0  0  0
    6.1721   -8.2186   15.9886 N   0  0  0  0  0  0  0  0  0  0  0  0
   11.1764   -2.6600   19.5604 C   0  0  0  0  0  0  0  0  0  0  0  0
    9.5491   -0.6380   24.1912 C   0  0  0  0  0  0  0  0  0  0  0  0
    7.5337   -6.9256   16.9519 C   0  0  0  0  0  0  0  0  0  0  0  0
    9.6782    0.5671   23.5143 C   0  0  0  0  0  0  0  0  0  0  0  0
    8.4532    0.3482   26.0821 C   0  0  0  0  0  0  0  0  0  0  0  0
   10.4239   -1.7677   22.2230 N   0  0  0  0  0  0  0  0  0  0  0  0
    9.9468   -4.5953   20.1709 C   0  0  0  0  0  0  0  0  0  0  0  0
   10.0366   -3.0590   23.9864 N   0  0  0  0  0  0  0  0  0  0  0  0
    7.1191   -7.3636   15.7739 C   0  0  0  0  0  0  0  0  0  0  0  0
    5.9612   -8.3203   17.2732 N   0  0  0  0  0  0  0  0  0  0  0  0
    8.5296   -5.9814   17.1841 C   0  0  0  0  0  0  0  0  0  0  0  0
    9.1527   -5.2118   16.2116 C   0  0  0  0  0  0  0  0  0  0  0  0
   10.3364   -3.8368   22.9255 O   0  0  0  0  0  0  0  0  0  0  0  0
    9.6947   -4.8407   18.8534 C   0  0  0  0  0  0  0  0  0  0  0  0
    9.1596    1.7042   24.1381 C   0  0  0  0  0  0  0  0  0  0  0  0
   11.0456   -2.9774   18.2694 N   0  0  0  0  0  0  0  0  0  0  0  0
   10.4788   -3.0457   21.8593 C   0  0  0  0  0  0  0  0  0  0  0  0
    8.8693   -5.8099   18.4657 N   0  0  0  0  0  0  0  0  0  0  0  0
    8.9892   -0.7926   25.4573 C   0  0  0  0  0  0  0  0  0  0  0  0
   10.5677   -3.4462   20.5323 C   0  0  0  0  0  0  0  0  0  0  0  0
  1  8  1  0
  1 12  4  0
  1 14  4  0
  2  3  4  0
  2 18  4  0
  3 20  4  0
  3 22  4  0
  4 11  4  0
  4 21  4  0
  5  9  4  0
  5 16  4  0
  6 15  4  0
  6 16  4  0
  7 22  4  0
  7 26  4  0
  8 10  4  0
  8 25  4  0
  9 15  4  0
  9 17  1  0
 10 21  4  0
 11 25  4  0
 12 23  4  0
 13 20  4  0
 13 26  4  0
 14 19  4  0
 17 18  4  0
 17 24  4  0
 19 23  4  0
 20 24  4  0
 23 26  1  0
M  END
$$$$

 Created by Python create_sdf_string function

 26 30  0  0  0  0  0  0  0  0999 V2000
   10.0084   -1.8019   23.4945 C   0  0  0  0  0  0  0  0  0  0  0  0
   10.0005   -4.2520   16.5631 C   0  0  0  0  0  0  0  0  0  0  0  0
   10.2759   -4.0036   17.8845 C   0  0  0  0  0  0  0  0  0  0  0  0
    8.5652    1.5478   25.3778 N   0  0  0  0  0  0  0  0  0  0  0  0
    6.8048   -7.5457   17.8752 C   0  0  0  0  0  0  0  0  0  0  0  0
    6.1721   -8.2186   15.9886 N   0  0  0  0  0  0  0  0  0  0  0  0
   11.1764   -2.6600   19.5604 C   0  0  0  0  0  0  0  0  0  0  0  0
    9.5491   -0.6380   24.1912 C   0  0  0  0  0  0  0  0  0  0  0  0
    7.5337   -6.9256   16.9519 C   0  0  0  0  0  0  0  0  0  0  0  0
    9.6782    0.5671   23.5143 C   0  0  0  0  0  0  0  0  0  0  0  0
    8.4532    0.3482   26.0821 C   0  0  0  0  0  0  0  0  0  0  0  0
   10.4239   -1.7677   22.2230 N   0  0  0  0  0  0  0  0  0  0  0  0
    9.9468   -4.5953   20.1709 C   0  0  0  0  0  0  0  0  0  0  0  0
   10.0366   -3.0590   23.9864 N   0  0  0  0  0  0  0  0  0  0  0  0
    7.1191   -7.3636   15.7739 C   0  0  0  0  0  0  0  0  0  0  0  0
    5.9612   -8.3203   17.2732 N   0  0  0  0  0  0  0  0  0  0  0  0
    8.5296   -5.9814   17.1841 C   0  0  0  0  0  0  0  0  0  0  0  0
    9.1527   -5.2118   16.2116 C   0  0  0  0  0  0  0  0  0  0  0  0
   10.3364   -3.8368   22.9255 O   0  0  0  0  0  0  0  0  0  0  0  0
    9.6947   -4.8407   18.8534 C   0  0  0  0  0  0  0  0  0  0  0  0
    9.1596    1.7042   24.1381 C   0  0  0  0  0  0  0  0  0  0  0  0
   11.0456   -2.9774   18.2694 N   0  0  0  0  0  0  0  0  0  0  0  0
   10.4788   -3.0457   21.8593 C   0  0  0  0  0  0  0  0  0  0  0  0
    8.8693   -5.8099   18.4657 N   0  0  0  0  0  0  0  0  0  0  0  0
    8.9892   -0.7926   25.4573 C   0  0  0  0  0  0  0  0  0  0  0  0
   10.5677   -3.4462   20.5323 C   0  0  0  0  0  0  0  0  0  0  0  0
  1  8  1  0
  1 12  4  0
  1 14  4  0
  2  3  4  0
  2 18  4  0
  3 20  4  0
  3 22  4  0
  4 11  4  0
  4 21  4  0
  5  9  4  0
  5 16  4  0
  6 15  4  0
  6 16  4  0
  7 22  4  0
  7 26  4  0
  8 10  4  0
  8 25  4  0
  9 15  4  0
  9 17  1  0
 10 21  4  0
 11 25  4  0
 12 23  4  0
 13 20  4  0
 13 26  4  0
 14 19  4  0
 17 18  4  0
 17 24  4  0
 19 23  4  0
 20 24  4  0
 23 26  1  0
M  END
$$$$

 Created by Python create_sdf_string function

 26 30  0  0  0  0  0  0  0  0999 V2000
   10.0084   -1.8019   23.4945 C   0  0  0  0  0  0  0  0  0  0  0  0
   10.0005   -4.2520   16.5631 C   0  0  0  0  0  0  0  0  0  0  0  0
   10.2759   -4.0036   17.8845 C   0  0  0  0  0  0  0  0  0  0  0  0
    8.5652    1.5478   25.3778 N   0  0  0  0  0  0  0  0  0  0  0  0
    6.8048   -7.5457   17.8752 C   0  0  0  0  0  0  0  0  0  0  0  0
    6.1721   -8.2186   15.9886 N   0  0  0  0  0  0  0  0  0  0  0  0
   11.1764   -2.6600   19.5604 C   0  0  0  0  0  0  0  0  0  0  0  0
    9.5491   -0.6380   24.1912 C   0  0  0  0  0  0  0  0  0  0  0  0
    7.5337   -6.9256   16.9519 C   0  0  0  0  0  0  0  0  0  0  0  0
    9.6782    0.5671   23.5143 C   0  0  0  0  0  0  0  0  0  0  0  0
    8.4532    0.3482   26.0821 C   0  0  0  0  0  0  0  0  0  0  0  0
   10.4239   -1.7677   22.2230 N   0  0  0  0  0  0  0  0  0  0  0  0
    9.9468   -4.5953   20.1709 C   0  0  0  0  0  0  0  0  0  0  0  0
   10.0366   -3.0590   23.9864 N   0  0  0  0  0  0  0  0  0  0  0  0
    7.1191   -7.3636   15.7739 C   0  0  0  0  0  0  0  0  0  0  0  0
    5.9612   -8.3203   17.2732 N   0  0  0  0  0  0  0  0  0  0  0  0
    8.5296   -5.9814   17.1841 C   0  0  0  0  0  0  0  0  0  0  0  0
    9.1527   -5.2118   16.2116 C   0  0  0  0  0  0  0  0  0  0  0  0
   10.3364   -3.8368   22.9255 O   0  0  0  0  0  0  0  0  0  0  0  0
    9.6947   -4.8407   18.8534 C   0  0  0  0  0  0  0  0  0  0  0  0
    9.1596    1.7042   24.1381 C   0  0  0  0  0  0  0  0  0  0  0  0
   11.0456   -2.9774   18.2694 N   0  0  0  0  0  0  0  0  0  0  0  0
   10.4788   -3.0457   21.8593 C   0  0  0  0  0  0  0  0  0  0  0  0
    8.8693   -5.8099   18.4657 N   0  0  0  0  0  0  0  0  0  0  0  0
    8.9892   -0.7926   25.4573 C   0  0  0  0  0  0  0  0  0  0  0  0
   10.5677   -3.4462   20.5323 C   0  0  0  0  0  0  0  0  0  0  0  0
  1  8  1  0
  1 12  4  0
  1 14  4  0
  2  3  4  0
  2 18  4  0
  3 20  4  0
  3 22  4  0
  4 11  4  0
  4 21  4  0
  5  9  4  0
  5 16  4  0
  6 15  4  0
  6 16  4  0
  7 22  4  0
  7 26  4  0
  8 10  4  0
  8 25  4  0
  9 15  4  0
  9 17  1  0
 10 21  4  0
 11 25  4  0
 12 23  4  0
 13 20  4  0
 13 26  4  0
 14 19  4  0
 17 18  4  0
 17 24  4  0
 19 23  4  0
 20 24  4  0
 23 26  1  0
M  END
$$$$

 Created by Python create_sdf_string function

 26 30  0  0  0  0  0  0  0  0999 V2000
   10.0084   -1.8019   23.4945 C   0  0  0  0  0  0  0  0  0  0  0  0
   10.0005   -4.2520   16.5631 C   0  0  0  0  0  0  0  0  0  0  0  0
   10.2759   -4.0036   17.8845 C   0  0  0  0  0  0  0  0  0  0  0  0
    8.5652    1.5478   25.3778 N   0  0  0  0  0  0  0  0  0  0  0  0
    6.8048   -7.5457   17.8752 C   0  0  0  0  0  0  0  0  0  0  0  0
    6.1721   -8.2186   15.9886 N   0  0  0  0  0  0  0  0  0  0  0  0
   11.1764   -2.6600   19.5604 C   0  0  0  0  0  0  0  0  0  0  0  0
    9.5491   -0.6380   24.1912 C   0  0  0  0  0  0  0  0  0  0  0  0
    7.5337   -6.9256   16.9519 C   0  0  0  0  0  0  0  0  0  0  0  0
    9.6782    0.5671   23.5143 C   0  0  0  0  0  0  0  0  0  0  0  0
    8.4532    0.3482   26.0821 C   0  0  0  0  0  0  0  0  0  0  0  0
   10.4239   -1.7677   22.2230 N   0  0  0  0  0  0  0  0  0  0  0  0
    9.9468   -4.5953   20.1709 C   0  0  0  0  0  0  0  0  0  0  0  0
   10.0366   -3.0590   23.9864 N   0  0  0  0  0  0  0  0  0  0  0  0
    7.1191   -7.3636   15.7739 C   0  0  0  0  0  0  0  0  0  0  0  0
    5.9612   -8.3203   17.2732 N   0  0  0  0  0  0  0  0  0  0  0  0
    8.5296   -5.9814   17.1841 C   0  0  0  0  0  0  0  0  0  0  0  0
    9.1527   -5.2118   16.2116 C   0  0  0  0  0  0  0  0  0  0  0  0
   10.3364   -3.8368   22.9255 O   0  0  0  0  0  0  0  0  0  0  0  0
    9.6947   -4.8407   18.8534 C   0  0  0  0  0  0  0  0  0  0  0  0
    9.1596    1.7042   24.1381 C   0  0  0  0  0  0  0  0  0  0  0  0
   11.0456   -2.9774   18.2694 N   0  0  0  0  0  0  0  0  0  0  0  0
   10.4788   -3.0457   21.8593 C   0  0  0  0  0  0  0  0  0  0  0  0
    8.8693   -5.8099   18.4657 N   0  0  0  0  0  0  0  0  0  0  0  0
    8.9892   -0.7926   25.4573 C   0  0  0  0  0  0  0  0  0  0  0  0
   10.5677   -3.4462   20.5323 C   0  0  0  0  0  0  0  0  0  0  0  0
  1  8  1  0
  1 12  4  0
  1 14  4  0
  2  3  4  0
  2 18  4  0
  3 20  4  0
  3 22  4  0
  4 11  4  0
  4 21  4  0
  5  9  4  0
  5 16  4  0
  6 15  4  0
  6 16  4  0
  7 22  4  0
  7 26  4  0
  8 10  4  0
  8 25  4  0
  9 15  4  0
  9 17  1  0
 10 21  4  0
 11 25  4  0
 12 23  4  0
 13 20  4  0
 13 26  4  0
 14 19  4  0
 17 18  4  0
 17 24  4  0
 19 23  4  0
 20 24  4  0
 23 26  1  0
M  END
$$$$

 Created by Python create_sdf_string function

 26 30  0  0  0  0  0  0  0  0999 V2000
   10.0084   -1.8019   23.4945 C   0  0  0  0  0  0  0  0  0  0  0  0
   10.0005   -4.2520   16.5631 C   0  0  0  0  0  0  0  0  0  0  0  0
   10.2759   -4.0036   17.8845 C   0  0  0  0  0  0  0  0  0  0  0  0
    8.5652    1.5478   25.3778 N   0  0  0  0  0  0  0  0  0  0  0  0
    6.8048   -7.5457   17.8752 C   0  0  0  0  0  0  0  0  0  0  0  0
    6.1721   -8.2186   15.9886 N   0  0  0  0  0  0  0  0  0  0  0  0
   11.1764   -2.6600   19.5604 C   0  0  0  0  0  0  0  0  0  0  0  0
    9.5491   -0.6380   24.1912 C   0  0  0  0  0  0  0  0  0  0  0  0
    7.5337   -6.9256   16.9519 C   0  0  0  0  0  0  0  0  0  0  0  0
    9.6782    0.5671   23.5143 C   0  0  0  0  0  0  0  0  0  0  0  0
    8.4532    0.3482   26.0821 C   0  0  0  0  0  0  0  0  0  0  0  0
   10.4239   -1.7677   22.2230 N   0  0  0  0  0  0  0  0  0  0  0  0
    9.9468   -4.5953   20.1709 C   0  0  0  0  0  0  0  0  0  0  0  0
   10.0366   -3.0590   23.9864 N   0  0  0  0  0  0  0  0  0  0  0  0
    7.1191   -7.3636   15.7739 C   0  0  0  0  0  0  0  0  0  0  0  0
    5.9612   -8.3203   17.2732 N   0  0  0  0  0  0  0  0  0  0  0  0
    8.5296   -5.9814   17.1841 C   0  0  0  0  0  0  0  0  0  0  0  0
    9.1527   -5.2118   16.2116 C   0  0  0  0  0  0  0  0  0  0  0  0
   10.3364   -3.8368   22.9255 O   0  0  0  0  0  0  0  0  0  0  0  0
    9.6947   -4.8407   18.8534 C   0  0  0  0  0  0  0  0  0  0  0  0
    9.1596    1.7042   24.1381 C   0  0  0  0  0  0  0  0  0  0  0  0
   11.0456   -2.9774   18.2694 N   0  0  0  0  0  0  0  0  0  0  0  0
   10.4788   -3.0457   21.8593 C   0  0  0  0  0  0  0  0  0  0  0  0
    8.8693   -5.8099   18.4657 N   0  0  0  0  0  0  0  0  0  0  0  0
    8.9892   -0.7926   25.4573 C   0  0  0  0  0  0  0  0  0  0  0  0
   10.5677   -3.4462   20.5323 C   0  0  0  0  0  0  0  0  0  0  0  0
  1  8  1  0
  1 12  4  0
  1 14  4  0
  2  3  4  0
  2 18  4  0
  3 20  4  0
  3 22  4  0
  4 11  4  0
  4 21  4  0
  5  9  4  0
  5 16  4  0
  6 15  4  0
  6 16  4  0
  7 22  4  0
  7 26  4  0
  8 10  4  0
  8 25  4  0
  9 15  4  0
  9 17  1  0
 10 21  4  0
 11 25  4  0
 12 23  4  0
 13 20  4  0
 13 26  4  0
 14 19  4  0
 17 18  4  0
 17 24  4  0
 19 23  4  0
 20 24  4  0
 23 26  1  0
M  END
$$$$

 Created by Python create_sdf_string function

 26 30  0  0  0  0  0  0  0  0999 V2000
   10.0084   -1.8019   23.4945 C   0  0  0  0  0  0  0  0  0  0  0  0
   10.0005   -4.2520   16.5631 C   0  0  0  0  0  0  0  0  0  0  0  0
   10.2759   -4.0036   17.8845 C   0  0  0  0  0  0  0  0  0  0  0  0
    8.5652    1.5478   25.3778 N   0  0  0  0  0  0  0  0  0  0  0  0
    6.8048   -7.5457   17.8752 C   0  0  0  0  0  0  0  0  0  0  0  0
    6.1721   -8.2186   15.9886 N   0  0  0  0  0  0  0  0  0  0  0  0
   11.1764   -2.6600   19.5604 C   0  0  0  0  0  0  0  0  0  0  0  0
    9.5491   -0.6380   24.1912 C   0  0  0  0  0  0  0  0  0  0  0  0
    7.5337   -6.9256   16.9519 C   0  0  0  0  0  0  0  0  0  0  0  0
    9.6782    0.5671   23.5143 C   0  0  0  0  0  0  0  0  0  0  0  0
    8.4532    0.3482   26.0821 C   0  0  0  0  0  0  0  0  0  0  0  0
   10.4239   -1.7677   22.2230 N   0  0  0  0  0  0  0  0  0  0  0  0
    9.9468   -4.5953   20.1709 C   0  0  0  0  0  0  0  0  0  0  0  0
   10.0366   -3.0590   23.9864 N   0  0  0  0  0  0  0  0  0  0  0  0
    7.1191   -7.3636   15.7739 C   0  0  0  0  0  0  0  0  0  0  0  0
    5.9612   -8.3203   17.2732 N   0  0  0  0  0  0  0  0  0  0  0  0
    8.5296   -5.9814   17.1841 C   0  0  0  0  0  0  0  0  0  0  0  0
    9.1527   -5.2118   16.2116 C   0  0  0  0  0  0  0  0  0  0  0  0
   10.3364   -3.8368   22.9255 O   0  0  0  0  0  0  0  0  0  0  0  0
    9.6947   -4.8407   18.8534 C   0  0  0  0  0  0  0  0  0  0  0  0
    9.1596    1.7042   24.1381 C   0  0  0  0  0  0  0  0  0  0  0  0
   11.0456   -2.9774   18.2694 N   0  0  0  0  0  0  0  0  0  0  0  0
   10.4788   -3.0457   21.8593 C   0  0  0  0  0  0  0  0  0  0  0  0
    8.8693   -5.8099   18.4657 N   0  0  0  0  0  0  0  0  0  0  0  0
    8.9892   -0.7926   25.4573 C   0  0  0  0  0  0  0  0  0  0  0  0
   10.5677   -3.4462   20.5323 C   0  0  0  0  0  0  0  0  0  0  0  0
  1  8  1  0
  1 12  4  0
  1 14  4  0
  2  3  4  0
  2 18  4  0
  3 20  4  0
  3 22  4  0
  4 11  4  0
  4 21  4  0
  5  9  4  0
  5 16  4  0
  6 15  4  0
  6 16  4  0
  7 22  4  0
  7 26  4  0
  8 10  4  0
  8 25  4  0
  9 15  4  0
  9 17  1  0
 10 21  4  0
 11 25  4  0
 12 23  4  0
 13 20  4  0
 13 26  4  0
 14 19  4  0
 17 18  4  0
 17 24  4  0
 19 23  4  0
 20 24  4  0
 23 26  1  0
M  END
$$$$

 Created by Python create_sdf_string function

 26 30  0  0  0  0  0  0  0  0999 V2000
   10.0084   -1.8019   23.4945 C   0  0  0  0  0  0  0  0  0  0  0  0
   10.0005   -4.2520   16.5631 C   0  0  0  0  0  0  0  0  0  0  0  0
   10.2759   -4.0036   17.8845 C   0  0  0  0  0  0  0  0  0  0  0  0
    8.5652    1.5478   25.3778 N   0  0  0  0  0  0  0  0  0  0  0  0
    6.8048   -7.5457   17.8752 C   0  0  0  0  0  0  0  0  0  0  0  0
    6.1721   -8.2186   15.9886 N   0  0  0  0  0  0  0  0  0  0  0  0
   11.1764   -2.6600   19.5604 C   0  0  0  0  0  0  0  0  0  0  0  0
    9.5491   -0.6380   24.1912 C   0  0  0  0  0  0  0  0  0  0  0  0
    7.5337   -6.9256   16.9519 C   0  0  0  0  0  0  0  0  0  0  0  0
    9.6782    0.5671   23.5143 C   0  0  0  0  0  0  0  0  0  0  0  0
    8.4532    0.3482   26.0821 C   0  0  0  0  0  0  0  0  0  0  0  0
   10.4239   -1.7677   22.2230 N   0  0  0  0  0  0  0  0  0  0  0  0
    9.9468   -4.5953   20.1709 C   0  0  0  0  0  0  0  0  0  0  0  0
   10.0366   -3.0590   23.9864 N   0  0  0  0  0  0  0  0  0  0  0  0
    7.1191   -7.3636   15.7739 C   0  0  0  0  0  0  0  0  0  0  0  0
    5.9612   -8.3203   17.2732 N   0  0  0  0  0  0  0  0  0  0  0  0
    8.5296   -5.9814   17.1841 C   0  0  0  0  0  0  0  0  0  0  0  0
    9.1527   -5.2118   16.2116 C   0  0  0  0  0  0  0  0  0  0  0  0
   10.3364   -3.8368   22.9255 O   0  0  0  0  0  0  0  0  0  0  0  0
    9.6947   -4.8407   18.8534 C   0  0  0  0  0  0  0  0  0  0  0  0
    9.1596    1.7042   24.1381 C   0  0  0  0  0  0  0  0  0  0  0  0
   11.0456   -2.9774   18.2694 N   0  0  0  0  0  0  0  0  0  0  0  0
   10.4788   -3.0457   21.8593 C   0  0  0  0  0  0  0  0  0  0  0  0
    8.8693   -5.8099   18.4657 N   0  0  0  0  0  0  0  0  0  0  0  0
    8.9892   -0.7926   25.4573 C   0  0  0  0  0  0  0  0  0  0  0  0
   10.5677   -3.4462   20.5323 C   0  0  0  0  0  0  0  0  0  0  0  0
  1  8  1  0
  1 12  4  0
  1 14  4  0
  2  3  4  0
  2 18  4  0
  3 20  4  0
  3 22  4  0
  4 11  4  0
  4 21  4  0
  5  9  4  0
  5 16  4  0
  6 15  4  0
  6 16  4  0
  7 22  4  0
  7 26  4  0
  8 10  4  0
  8 25  4  0
  9 15  4  0
  9 17  1  0
 10 21  4  0
 11 25  4  0
 12 23  4  0
 13 20  4  0
 13 26  4  0
 14 19  4  0
 17 18  4  0
 17 24  4  0
 19 23  4  0
 20 24  4  0
 23 26  1  0
M  END
$$$$

 Created by Python create_sdf_string function

 26 30  0  0  0  0  0  0  0  0999 V2000
   10.0084   -1.8019   23.4945 C   0  0  0  0  0  0  0  0  0  0  0  0
   10.0005   -4.2520   16.5631 C   0  0  0  0  0  0  0  0  0  0  0  0
   10.2759   -4.0036   17.8845 C   0  0  0  0  0  0  0  0  0  0  0  0
    8.5652    1.5478   25.3778 N   0  0  0  0  0  0  0  0  0  0  0  0
    6.8048   -7.5457   17.8752 C   0  0  0  0  0  0  0  0  0  0  0  0
    6.1721   -8.2186   15.9886 N   0  0  0  0  0  0  0  0  0  0  0  0
   11.1764   -2.6600   19.5604 C   0  0  0  0  0  0  0  0  0  0  0  0
    9.5491   -0.6380   24.1912 C   0  0  0  0  0  0  0  0  0  0  0  0
    7.5337   -6.9256   16.9519 C   0  0  0  0  0  0  0  0  0  0  0  0
    9.6782    0.5671   23.5143 C   0  0  0  0  0  0  0  0  0  0  0  0
    8.4532    0.3482   26.0821 C   0  0  0  0  0  0  0  0  0  0  0  0
   10.4239   -1.7677   22.2230 N   0  0  0  0  0  0  0  0  0  0  0  0
    9.9468   -4.5953   20.1709 C   0  0  0  0  0  0  0  0  0  0  0  0
   10.0366   -3.0590   23.9864 N   0  0  0  0  0  0  0  0  0  0  0  0
    7.1191   -7.3636   15.7739 C   0  0  0  0  0  0  0  0  0  0  0  0
    5.9612   -8.3203   17.2732 N   0  0  0  0  0  0  0  0  0  0  0  0
    8.5296   -5.9814   17.1841 C   0  0  0  0  0  0  0  0  0  0  0  0
    9.1527   -5.2118   16.2116 C   0  0  0  0  0  0  0  0  0  0  0  0
   10.3364   -3.8368   22.9255 O   0  0  0  0  0  0  0  0  0  0  0  0
    9.6947   -4.8407   18.8534 C   0  0  0  0  0  0  0  0  0  0  0  0
    9.1596    1.7042   24.1381 C   0  0  0  0  0  0  0  0  0  0  0  0
   11.0456   -2.9774   18.2694 N   0  0  0  0  0  0  0  0  0  0  0  0
   10.4788   -3.0457   21.8593 C   0  0  0  0  0  0  0  0  0  0  0  0
    8.8693   -5.8099   18.4657 N   0  0  0  0  0  0  0  0  0  0  0  0
    8.9892   -0.7926   25.4573 C   0  0  0  0  0  0  0  0  0  0  0  0
   10.5677   -3.4462   20.5323 C   0  0  0  0  0  0  0  0  0  0  0  0
  1  8  1  0
  1 12  4  0
  1 14  4  0
  2  3  4  0
  2 18  4  0
  3 20  4  0
  3 22  4  0
  4 11  4  0
  4 21  4  0
  5  9  4  0
  5 16  4  0
  6 15  4  0
  6 16  4  0
  7 22  4  0
  7 26  4  0
  8 10  4  0
  8 25  4  0
  9 15  4  0
  9 17  1  0
 10 21  4  0
 11 25  4  0
 12 23  4  0
 13 20  4  0
 13 26  4  0
 14 19  4  0
 17 18  4  0
 17 24  4  0
 19 23  4  0
 20 24  4  0
 23 26  1  0
M  END
$$$$

 Created by Python create_sdf_string function

 26 30  0  0  0  0  0  0  0  0999 V2000
   10.0084   -1.8019   23.4945 C   0  0  0  0  0  0  0  0  0  0  0  0
   10.0005   -4.2520   16.5631 C   0  0  0  0  0  0  0  0  0  0  0  0
   10.2759   -4.0036   17.8845 C   0  0  0  0  0  0  0  0  0  0  0  0
    8.5652    1.5478   25.3778 N   0  0  0  0  0  0  0  0  0  0  0  0
    6.8048   -7.5457   17.8752 C   0  0  0  0  0  0  0  0  0  0  0  0
    6.1721   -8.2186   15.9886 N   0  0  0  0  0  0  0  0  0  0  0  0
   11.1764   -2.6600   19.5604 C   0  0  0  0  0  0  0  0  0  0  0  0
    9.5491   -0.6380   24.1912 C   0  0  0  0  0  0  0  0  0  0  0  0
    7.5337   -6.9256   16.9519 C   0  0  0  0  0  0  0  0  0  0  0  0
    9.6782    0.5671   23.5143 C   0  0  0  0  0  0  0  0  0  0  0  0
    8.4532    0.3482   26.0821 C   0  0  0  0  0  0  0  0  0  0  0  0
   10.4239   -1.7677   22.2230 N   0  0  0  0  0  0  0  0  0  0  0  0
    9.9468   -4.5953   20.1709 C   0  0  0  0  0  0  0  0  0  0  0  0
   10.0366   -3.0590   23.9864 N   0  0  0  0  0  0  0  0  0  0  0  0
    7.1191   -7.3636   15.7739 C   0  0  0  0  0  0  0  0  0  0  0  0
    5.9612   -8.3203   17.2732 N   0  0  0  0  0  0  0  0  0  0  0  0
    8.5296   -5.9814   17.1841 C   0  0  0  0  0  0  0  0  0  0  0  0
    9.1527   -5.2118   16.2116 C   0  0  0  0  0  0  0  0  0  0  0  0
   10.3364   -3.8368   22.9255 O   0  0  0  0  0  0  0  0  0  0  0  0
    9.6947   -4.8407   18.8534 C   0  0  0  0  0  0  0  0  0  0  0  0
    9.1596    1.7042   24.1381 C   0  0  0  0  0  0  0  0  0  0  0  0
   11.0456   -2.9774   18.2694 N   0  0  0  0  0  0  0  0  0  0  0  0
   10.4788   -3.0457   21.8593 C   0  0  0  0  0  0  0  0  0  0  0  0
    8.8693   -5.8099   18.4657 N   0  0  0  0  0  0  0  0  0  0  0  0
    8.9892   -0.7926   25.4573 C   0  0  0  0  0  0  0  0  0  0  0  0
   10.5677   -3.4462   20.5323 C   0  0  0  0  0  0  0  0  0  0  0  0
  1  8  1  0
  1 12  4  0
  1 14  4  0
  2  3  4  0
  2 18  4  0
  3 20  4  0
  3 22  4  0
  4 11  4  0
  4 21  4  0
  5  9  4  0
  5 16  4  0
  6 15  4  0
  6 16  4  0
  7 22  4  0
  7 26  4  0
  8 10  4  0
  8 25  4  0
  9 15  4  0
  9 17  1  0
 10 21  4  0
 11 25  4  0
 12 23  4  0
 13 20  4  0
 13 26  4  0
 14 19  4  0
 17 18  4  0
 17 24  4  0
 19 23  4  0
 20 24  4  0
 23 26  1  0
M  END
$$$$

 Created by Python create_sdf_string function

 26 30  0  0  0  0  0  0  0  0999 V2000
   10.0084   -1.8019   23.4945 C   0  0  0  0  0  0  0  0  0  0  0  0
   10.0005   -4.2520   16.5631 C   0  0  0  0  0  0  0  0  0  0  0  0
   10.2759   -4.0036   17.8845 C   0  0  0  0  0  0  0  0  0  0  0  0
    8.5652    1.5478   25.3778 N   0  0  0  0  0  0  0  0  0  0  0  0
    6.8048   -7.5457   17.8752 C   0  0  0  0  0  0  0  0  0  0  0  0
    6.1721   -8.2186   15.9886 N   0  0  0  0  0  0  0  0  0  0  0  0
   11.1764   -2.6600   19.5604 C   0  0  0  0  0  0  0  0  0  0  0  0
    9.5491   -0.6380   24.1912 C   0  0  0  0  0  0  0  0  0  0  0  0
    7.5337   -6.9256   16.9519 C   0  0  0  0  0  0  0  0  0  0  0  0
    9.6782    0.5671   23.5143 C   0  0  0  0  0  0  0  0  0  0  0  0
    8.4532    0.3482   26.0821 C   0  0  0  0  0  0  0  0  0  0  0  0
   10.4239   -1.7677   22.2230 N   0  0  0  0  0  0  0  0  0  0  0  0
    9.9468   -4.5953   20.1709 C   0  0  0  0  0  0  0  0  0  0  0  0
   10.0366   -3.0590   23.9864 N   0  0  0  0  0  0  0  0  0  0  0  0
    7.1191   -7.3636   15.7739 C   0  0  0  0  0  0  0  0  0  0  0  0
    5.9612   -8.3203   17.2732 N   0  0  0  0  0  0  0  0  0  0  0  0
    8.5296   -5.9814   17.1841 C   0  0  0  0  0  0  0  0  0  0  0  0
    9.1527   -5.2118   16.2116 C   0  0  0  0  0  0  0  0  0  0  0  0
   10.3364   -3.8368   22.9255 O   0  0  0  0  0  0  0  0  0  0  0  0
    9.6947   -4.8407   18.8534 C   0  0  0  0  0  0  0  0  0  0  0  0
    9.1596    1.7042   24.1381 C   0  0  0  0  0  0  0  0  0  0  0  0
   11.0456   -2.9774   18.2694 N   0  0  0  0  0  0  0  0  0  0  0  0
   10.4788   -3.0457   21.8593 C   0  0  0  0  0  0  0  0  0  0  0  0
    8.8693   -5.8099   18.4657 N   0  0  0  0  0  0  0  0  0  0  0  0
    8.9892   -0.7926   25.4573 C   0  0  0  0  0  0  0  0  0  0  0  0
   10.5677   -3.4462   20.5323 C   0  0  0  0  0  0  0  0  0  0  0  0
  1  8  1  0
  1 12  4  0
  1 14  4  0
  2  3  4  0
  2 18  4  0
  3 20  4  0
  3 22  4  0
  4 11  4  0
  4 21  4  0
  5  9  4  0
  5 16  4  0
  6 15  4  0
  6 16  4  0
  7 22  4  0
  7 26  4  0
  8 10  4  0
  8 25  4  0
  9 15  4  0
  9 17  1  0
 10 21  4  0
 11 25  4  0
 12 23  4  0
 13 20  4  0
 13 26  4  0
 14 19  4  0
 17 18  4  0
 17 24  4  0
 19 23  4  0
 20 24  4  0
 23 26  1  0
M  END
$$$$

 Created by Python create_sdf_string function

 26 30  0  0  0  0  0  0  0  0999 V2000
   10.0084   -1.8019   23.4945 C   0  0  0  0  0  0  0  0  0  0  0  0
   10.0005   -4.2520   16.5631 C   0  0  0  0  0  0  0  0  0  0  0  0
   10.2759   -4.0036   17.8845 C   0  0  0  0  0  0  0  0  0  0  0  0
    8.5652    1.5478   25.3778 N   0  0  0  0  0  0  0  0  0  0  0  0
    6.8048   -7.5457   17.8752 C   0  0  0  0  0  0  0  0  0  0  0  0
    6.1721   -8.2186   15.9886 N   0  0  0  0  0  0  0  0  0  0  0  0
   11.1764   -2.6600   19.5604 C   0  0  0  0  0  0  0  0  0  0  0  0
    9.5491   -0.6380   24.1912 C   0  0  0  0  0  0  0  0  0  0  0  0
    7.5337   -6.9256   16.9519 C   0  0  0  0  0  0  0  0  0  0  0  0
    9.6782    0.5671   23.5143 C   0  0  0  0  0  0  0  0  0  0  0  0
    8.4532    0.3482   26.0821 C   0  0  0  0  0  0  0  0  0  0  0  0
   10.4239   -1.7677   22.2230 N   0  0  0  0  0  0  0  0  0  0  0  0
    9.9468   -4.5953   20.1709 C   0  0  0  0  0  0  0  0  0  0  0  0
   10.0366   -3.0590   23.9864 N   0  0  0  0  0  0  0  0  0  0  0  0
    7.1191   -7.3636   15.7739 C   0  0  0  0  0  0  0  0  0  0  0  0
    5.9612   -8.3203   17.2732 N   0  0  0  0  0  0  0  0  0  0  0  0
    8.5296   -5.9814   17.1841 C   0  0  0  0  0  0  0  0  0  0  0  0
    9.1527   -5.2118   16.2116 C   0  0  0  0  0  0  0  0  0  0  0  0
   10.3364   -3.8368   22.9255 O   0  0  0  0  0  0  0  0  0  0  0  0
    9.6947   -4.8407   18.8534 C   0  0  0  0  0  0  0  0  0  0  0  0
    9.1596    1.7042   24.1381 C   0  0  0  0  0  0  0  0  0  0  0  0
   11.0456   -2.9774   18.2694 N   0  0  0  0  0  0  0  0  0  0  0  0
   10.4788   -3.0457   21.8593 C   0  0  0  0  0  0  0  0  0  0  0  0
    8.8693   -5.8099   18.4657 N   0  0  0  0  0  0  0  0  0  0  0  0
    8.9892   -0.7926   25.4573 C   0  0  0  0  0  0  0  0  0  0  0  0
   10.5677   -3.4462   20.5323 C   0  0  0  0  0  0  0  0  0  0  0  0
  1  8  1  0
  1 12  4  0
  1 14  4  0
  2  3  4  0
  2 18  4  0
  3 20  4  0
  3 22  4  0
  4 11  4  0
  4 21  4  0
  5  9  4  0
  5 16  4  0
  6 15  4  0
  6 16  4  0
  7 22  4  0
  7 26  4  0
  8 10  4  0
  8 25  4  0
  9 15  4  0
  9 17  1  0
 10 21  4  0
 11 25  4  0
 12 23  4  0
 13 20  4  0
 13 26  4  0
 14 19  4  0
 17 18  4  0
 17 24  4  0
 19 23  4  0
 20 24  4  0
 23 26  1  0
M  END
$$$$

 Created by Python create_sdf_string function

 26 30  0  0  0  0  0  0  0  0999 V2000
   10.0084   -1.8019   23.4945 C   0  0  0  0  0  0  0  0  0  0  0  0
   10.0005   -4.2520   16.5631 C   0  0  0  0  0  0  0  0  0  0  0  0
   10.2759   -4.0036   17.8845 C   0  0  0  0  0  0  0  0  0  0  0  0
    8.5652    1.5478   25.3778 N   0  0  0  0  0  0  0  0  0  0  0  0
    6.8048   -7.5457   17.8752 C   0  0  0  0  0  0  0  0  0  0  0  0
    6.1721   -8.2186   15.9886 N   0  0  0  0  0  0  0  0  0  0  0  0
   11.1764   -2.6600   19.5604 C   0  0  0  0  0  0  0  0  0  0  0  0
    9.5491   -0.6380   24.1912 C   0  0  0  0  0  0  0  0  0  0  0  0
    7.5337   -6.9256   16.9519 C   0  0  0  0  0  0  0  0  0  0  0  0
    9.6782    0.5671   23.5143 C   0  0  0  0  0  0  0  0  0  0  0  0
    8.4532    0.3482   26.0821 C   0  0  0  0  0  0  0  0  0  0  0  0
   10.4239   -1.7677   22.2230 N   0  0  0  0  0  0  0  0  0  0  0  0
    9.9468   -4.5953   20.1709 C   0  0  0  0  0  0  0  0  0  0  0  0
   10.0366   -3.0590   23.9864 N   0  0  0  0  0  0  0  0  0  0  0  0
    7.1191   -7.3636   15.7739 C   0  0  0  0  0  0  0  0  0  0  0  0
    5.9612   -8.3203   17.2732 N   0  0  0  0  0  0  0  0  0  0  0  0
    8.5296   -5.9814   17.1841 C   0  0  0  0  0  0  0  0  0  0  0  0
    9.1527   -5.2118   16.2116 C   0  0  0  0  0  0  0  0  0  0  0  0
   10.3364   -3.8368   22.9255 O   0  0  0  0  0  0  0  0  0  0  0  0
    9.6947   -4.8407   18.8534 C   0  0  0  0  0  0  0  0  0  0  0  0
    9.1596    1.7042   24.1381 C   0  0  0  0  0  0  0  0  0  0  0  0
   11.0456   -2.9774   18.2694 N   0  0  0  0  0  0  0  0  0  0  0  0
   10.4788   -3.0457   21.8593 C   0  0  0  0  0  0  0  0  0  0  0  0
    8.8693   -5.8099   18.4657 N   0  0  0  0  0  0  0  0  0  0  0  0
    8.9892   -0.7926   25.4573 C   0  0  0  0  0  0  0  0  0  0  0  0
   10.5677   -3.4462   20.5323 C   0  0  0  0  0  0  0  0  0  0  0  0
  1  8  1  0
  1 12  4  0
  1 14  4  0
  2  3  4  0
  2 18  4  0
  3 20  4  0
  3 22  4  0
  4 11  4  0
  4 21  4  0
  5  9  4  0
  5 16  4  0
  6 15  4  0
  6 16  4  0
  7 22  4  0
  7 26  4  0
  8 10  4  0
  8 25  4  0
  9 15  4  0
  9 17  1  0
 10 21  4  0
 11 25  4  0
 12 23  4  0
 13 20  4  0
 13 26  4  0
 14 19  4  0
 17 18  4  0
 17 24  4  0
 19 23  4  0
 20 24  4  0
 23 26  1  0
M  END
$$$$

 Created by Python create_sdf_string function

 26 30  0  0  0  0  0  0  0  0999 V2000
   10.0084   -1.8019   23.4945 C   0  0  0  0  0  0  0  0  0  0  0  0
   10.0005   -4.2520   16.5631 C   0  0  0  0  0  0  0  0  0  0  0  0
   10.2759   -4.0036   17.8845 C   0  0  0  0  0  0  0  0  0  0  0  0
    8.5652    1.5478   25.3778 N   0  0  0  0  0  0  0  0  0  0  0  0
    6.8048   -7.5457   17.8752 C   0  0  0  0  0  0  0  0  0  0  0  0
    6.1721   -8.2186   15.9886 N   0  0  0  0  0  0  0  0  0  0  0  0
   11.1764   -2.6600   19.5604 C   0  0  0  0  0  0  0  0  0  0  0  0
    9.5491   -0.6380   24.1912 C   0  0  0  0  0  0  0  0  0  0  0  0
    7.5337   -6.9256   16.9519 C   0  0  0  0  0  0  0  0  0  0  0  0
    9.6782    0.5671   23.5143 C   0  0  0  0  0  0  0  0  0  0  0  0
    8.4532    0.3482   26.0821 C   0  0  0  0  0  0  0  0  0  0  0  0
   10.4239   -1.7677   22.2230 N   0  0  0  0  0  0  0  0  0  0  0  0
    9.9468   -4.5953   20.1709 C   0  0  0  0  0  0  0  0  0  0  0  0
   10.0366   -3.0590   23.9864 N   0  0  0  0  0  0  0  0  0  0  0  0
    7.1191   -7.3636   15.7739 C   0  0  0  0  0  0  0  0  0  0  0  0
    5.9612   -8.3203   17.2732 N   0  0  0  0  0  0  0  0  0  0  0  0
    8.5296   -5.9814   17.1841 C   0  0  0  0  0  0  0  0  0  0  0  0
    9.1527   -5.2118   16.2116 C   0  0  0  0  0  0  0  0  0  0  0  0
   10.3364   -3.8368   22.9255 O   0  0  0  0  0  0  0  0  0  0  0  0
    9.6947   -4.8407   18.8534 C   0  0  0  0  0  0  0  0  0  0  0  0
    9.1596    1.7042   24.1381 C   0  0  0  0  0  0  0  0  0  0  0  0
   11.0456   -2.9774   18.2694 N   0  0  0  0  0  0  0  0  0  0  0  0
   10.4788   -3.0457   21.8593 C   0  0  0  0  0  0  0  0  0  0  0  0
    8.8693   -5.8099   18.4657 N   0  0  0  0  0  0  0  0  0  0  0  0
    8.9892   -0.7926   25.4573 C   0  0  0  0  0  0  0  0  0  0  0  0
   10.5677   -3.4462   20.5323 C   0  0  0  0  0  0  0  0  0  0  0  0
  1  8  1  0
  1 12  4  0
  1 14  4  0
  2  3  4  0
  2 18  4  0
  3 20  4  0
  3 22  4  0
  4 11  4  0
  4 21  4  0
  5  9  4  0
  5 16  4  0
  6 15  4  0
  6 16  4  0
  7 22  4  0
  7 26  4  0
  8 10  4  0
  8 25  4  0
  9 15  4  0
  9 17  1  0
 10 21  4  0
 11 25  4  0
 12 23  4  0
 13 20  4  0
 13 26  4  0
 14 19  4  0
 17 18  4  0
 17 24  4  0
 19 23  4  0
 20 24  4  0
 23 26  1  0
M  END
$$$$

 Created by Python create_sdf_string function

 26 30  0  0  0  0  0  0  0  0999 V2000
   10.0084   -1.8019   23.4945 C   0  0  0  0  0  0  0  0  0  0  0  0
   10.0005   -4.2520   16.5631 C   0  0  0  0  0  0  0  0  0  0  0  0
   10.2759   -4.0036   17.8845 C   0  0  0  0  0  0  0  0  0  0  0  0
    8.5652    1.5478   25.3778 N   0  0  0  0  0  0  0  0  0  0  0  0
    6.8048   -7.5457   17.8752 C   0  0  0  0  0  0  0  0  0  0  0  0
    6.1721   -8.2186   15.9886 N   0  0  0  0  0  0  0  0  0  0  0  0
   11.1764   -2.6600   19.5604 C   0  0  0  0  0  0  0  0  0  0  0  0
    9.5491   -0.6380   24.1912 C   0  0  0  0  0  0  0  0  0  0  0  0
    7.5337   -6.9256   16.9519 C   0  0  0  0  0  0  0  0  0  0  0  0
    9.6782    0.5671   23.5143 C   0  0  0  0  0  0  0  0  0  0  0  0
    8.4532    0.3482   26.0821 C   0  0  0  0  0  0  0  0  0  0  0  0
   10.4239   -1.7677   22.2230 N   0  0  0  0  0  0  0  0  0  0  0  0
    9.9468   -4.5953   20.1709 C   0  0  0  0  0  0  0  0  0  0  0  0
   10.0366   -3.0590   23.9864 N   0  0  0  0  0  0  0  0  0  0  0  0
    7.1191   -7.3636   15.7739 C   0  0  0  0  0  0  0  0  0  0  0  0
    5.9612   -8.3203   17.2732 N   0  0  0  0  0  0  0  0  0  0  0  0
    8.5296   -5.9814   17.1841 C   0  0  0  0  0  0  0  0  0  0  0  0
    9.1527   -5.2118   16.2116 C   0  0  0  0  0  0  0  0  0  0  0  0
   10.3364   -3.8368   22.9255 O   0  0  0  0  0  0  0  0  0  0  0  0
    9.6947   -4.8407   18.8534 C   0  0  0  0  0  0  0  0  0  0  0  0
    9.1596    1.7042   24.1381 C   0  0  0  0  0  0  0  0  0  0  0  0
   11.0456   -2.9774   18.2694 N   0  0  0  0  0  0  0  0  0  0  0  0
   10.4788   -3.0457   21.8593 C   0  0  0  0  0  0  0  0  0  0  0  0
    8.8693   -5.8099   18.4657 N   0  0  0  0  0  0  0  0  0  0  0  0
    8.9892   -0.7926   25.4573 C   0  0  0  0  0  0  0  0  0  0  0  0
   10.5677   -3.4462   20.5323 C   0  0  0  0  0  0  0  0  0  0  0  0
  1  8  1  0
  1 12  4  0
  1 14  4  0
  2  3  4  0
  2 18  4  0
  3 20  4  0
  3 22  4  0
  4 11  4  0
  4 21  4  0
  5  9  4  0
  5 16  4  0
  6 15  4  0
  6 16  4  0
  7 22  4  0
  7 26  4  0
  8 10  4  0
  8 25  4  0
  9 15  4  0
  9 17  1  0
 10 21  4  0
 11 25  4  0
 12 23  4  0
 13 20  4  0
 13 26  4  0
 14 19  4  0
 17 18  4  0
 17 24  4  0
 19 23  4  0
 20 24  4  0
 23 26  1  0
M  END
$$$$

 Created by Python create_sdf_string function

 26 30  0  0  0  0  0  0  0  0999 V2000
   10.0084   -1.8019   23.4945 C   0  0  0  0  0  0  0  0  0  0  0  0
   10.0005   -4.2520   16.5631 C   0  0  0  0  0  0  0  0  0  0  0  0
   10.2759   -4.0036   17.8845 C   0  0  0  0  0  0  0  0  0  0  0  0
    8.5652    1.5478   25.3778 N   0  0  0  0  0  0  0  0  0  0  0  0
    6.8048   -7.5457   17.8752 C   0  0  0  0  0  0  0  0  0  0  0  0
    6.1721   -8.2186   15.9886 N   0  0  0  0  0  0  0  0  0  0  0  0
   11.1764   -2.6600   19.5604 C   0  0  0  0  0  0  0  0  0  0  0  0
    9.5491   -0.6380   24.1912 C   0  0  0  0  0  0  0  0  0  0  0  0
    7.5337   -6.9256   16.9519 C   0  0  0  0  0  0  0  0  0  0  0  0
    9.6782    0.5671   23.5143 C   0  0  0  0  0  0  0  0  0  0  0  0
    8.4532    0.3482   26.0821 C   0  0  0  0  0  0  0  0  0  0  0  0
   10.4239   -1.7677   22.2230 N   0  0  0  0  0  0  0  0  0  0  0  0
    9.9468   -4.5953   20.1709 C   0  0  0  0  0  0  0  0  0  0  0  0
   10.0366   -3.0590   23.9864 N   0  0  0  0  0  0  0  0  0  0  0  0
    7.1191   -7.3636   15.7739 C   0  0  0  0  0  0  0  0  0  0  0  0
    5.9612   -8.3203   17.2732 N   0  0  0  0  0  0  0  0  0  0  0  0
    8.5296   -5.9814   17.1841 C   0  0  0  0  0  0  0  0  0  0  0  0
    9.1527   -5.2118   16.2116 C   0  0  0  0  0  0  0  0  0  0  0  0
   10.3364   -3.8368   22.9255 O   0  0  0  0  0  0  0  0  0  0  0  0
    9.6947   -4.8407   18.8534 C   0  0  0  0  0  0  0  0  0  0  0  0
    9.1596    1.7042   24.1381 C   0  0  0  0  0  0  0  0  0  0  0  0
   11.0456   -2.9774   18.2694 N   0  0  0  0  0  0  0  0  0  0  0  0
   10.4788   -3.0457   21.8593 C   0  0  0  0  0  0  0  0  0  0  0  0
    8.8693   -5.8099   18.4657 N   0  0  0  0  0  0  0  0  0  0  0  0
    8.9892   -0.7926   25.4573 C   0  0  0  0  0  0  0  0  0  0  0  0
   10.5677   -3.4462   20.5323 C   0  0  0  0  0  0  0  0  0  0  0  0
  1  8  1  0
  1 12  4  0
  1 14  4  0
  2  3  4  0
  2 18  4  0
  3 20  4  0
  3 22  4  0
  4 11  4  0
  4 21  4  0
  5  9  4  0
  5 16  4  0
  6 15  4  0
  6 16  4  0
  7 22  4  0
  7 26  4  0
  8 10  4  0
  8 25  4  0
  9 15  4  0
  9 17  1  0
 10 21  4  0
 11 25  4  0
 12 23  4  0
 13 20  4  0
 13 26  4  0
 14 19  4  0
 17 18  4  0
 17 24  4  0
 19 23  4  0
 20 24  4  0
 23 26  1  0
M  END
$$$$

 Created by Python create_sdf_string function

 26 30  0  0  0  0  0  0  0  0999 V2000
   10.0084   -1.8019   23.4945 C   0  0  0  0  0  0  0  0  0  0  0  0
   10.0005   -4.2520   16.5631 C   0  0  0  0  0  0  0  0  0  0  0  0
   10.2759   -4.0036   17.8845 C   0  0  0  0  0  0  0  0  0  0  0  0
    8.5652    1.5478   25.3778 N   0  0  0  0  0  0  0  0  0  0  0  0
    6.8048   -7.5457   17.8752 C   0  0  0  0  0  0  0  0  0  0  0  0
    6.1721   -8.2186   15.9886 N   0  0  0  0  0  0  0  0  0  0  0  0
   11.1764   -2.6600   19.5604 C   0  0  0  0  0  0  0  0  0  0  0  0
    9.5491   -0.6380   24.1912 C   0  0  0  0  0  0  0  0  0  0  0  0
    7.5337   -6.9256   16.9519 C   0  0  0  0  0  0  0  0  0  0  0  0
    9.6782    0.5671   23.5143 C   0  0  0  0  0  0  0  0  0  0  0  0
    8.4532    0.3482   26.0821 C   0  0  0  0  0  0  0  0  0  0  0  0
   10.4239   -1.7677   22.2230 N   0  0  0  0  0  0  0  0  0  0  0  0
    9.9468   -4.5953   20.1709 C   0  0  0  0  0  0  0  0  0  0  0  0
   10.0366   -3.0590   23.9864 N   0  0  0  0  0  0  0  0  0  0  0  0
    7.1191   -7.3636   15.7739 C   0  0  0  0  0  0  0  0  0  0  0  0
    5.9612   -8.3203   17.2732 N   0  0  0  0  0  0  0  0  0  0  0  0
    8.5296   -5.9814   17.1841 C   0  0  0  0  0  0  0  0  0  0  0  0
    9.1527   -5.2118   16.2116 C   0  0  0  0  0  0  0  0  0  0  0  0
   10.3364   -3.8368   22.9255 O   0  0  0  0  0  0  0  0  0  0  0  0
    9.6947   -4.8407   18.8534 C   0  0  0  0  0  0  0  0  0  0  0  0
    9.1596    1.7042   24.1381 C   0  0  0  0  0  0  0  0  0  0  0  0
   11.0456   -2.9774   18.2694 N   0  0  0  0  0  0  0  0  0  0  0  0
   10.4788   -3.0457   21.8593 C   0  0  0  0  0  0  0  0  0  0  0  0
    8.8693   -5.8099   18.4657 N   0  0  0  0  0  0  0  0  0  0  0  0
    8.9892   -0.7926   25.4573 C   0  0  0  0  0  0  0  0  0  0  0  0
   10.5677   -3.4462   20.5323 C   0  0  0  0  0  0  0  0  0  0  0  0
  1  8  1  0
  1 12  4  0
  1 14  4  0
  2  3  4  0
  2 18  4  0
  3 20  4  0
  3 22  4  0
  4 11  4  0
  4 21  4  0
  5  9  4  0
  5 16  4  0
  6 15  4  0
  6 16  4  0
  7 22  4  0
  7 26  4  0
  8 10  4  0
  8 25  4  0
  9 15  4  0
  9 17  1  0
 10 21  4  0
 11 25  4  0
 12 23  4  0
 13 20  4  0
 13 26  4  0
 14 19  4  0
 17 18  4  0
 17 24  4  0
 19 23  4  0
 20 24  4  0
 23 26  1  0
M  END
$$$$

 Created by Python create_sdf_string function

 26 30  0  0  0  0  0  0  0  0999 V2000
   10.0084   -1.8019   23.4945 C   0  0  0  0  0  0  0  0  0  0  0  0
   10.0005   -4.2520   16.5631 C   0  0  0  0  0  0  0  0  0  0  0  0
   10.2759   -4.0036   17.8845 C   0  0  0  0  0  0  0  0  0  0  0  0
    8.5652    1.5478   25.3778 N   0  0  0  0  0  0  0  0  0  0  0  0
    6.8048   -7.5457   17.8752 C   0  0  0  0  0  0  0  0  0  0  0  0
    6.1721   -8.2186   15.9886 N   0  0  0  0  0  0  0  0  0  0  0  0
   11.1764   -2.6600   19.5604 C   0  0  0  0  0  0  0  0  0  0  0  0
    9.5491   -0.6380   24.1912 C   0  0  0  0  0  0  0  0  0  0  0  0
    7.5337   -6.9256   16.9519 C   0  0  0  0  0  0  0  0  0  0  0  0
    9.6782    0.5671   23.5143 C   0  0  0  0  0  0  0  0  0  0  0  0
    8.4532    0.3482   26.0821 C   0  0  0  0  0  0  0  0  0  0  0  0
   10.4239   -1.7677   22.2230 N   0  0  0  0  0  0  0  0  0  0  0  0
    9.9468   -4.5953   20.1709 C   0  0  0  0  0  0  0  0  0  0  0  0
   10.0366   -3.0590   23.9864 N   0  0  0  0  0  0  0  0  0  0  0  0
    7.1191   -7.3636   15.7739 C   0  0  0  0  0  0  0  0  0  0  0  0
    5.9612   -8.3203   17.2732 N   0  0  0  0  0  0  0  0  0  0  0  0
    8.5296   -5.9814   17.1841 C   0  0  0  0  0  0  0  0  0  0  0  0
    9.1527   -5.2118   16.2116 C   0  0  0  0  0  0  0  0  0  0  0  0
   10.3364   -3.8368   22.9255 O   0  0  0  0  0  0  0  0  0  0  0  0
    9.6947   -4.8407   18.8534 C   0  0  0  0  0  0  0  0  0  0  0  0
    9.1596    1.7042   24.1381 C   0  0  0  0  0  0  0  0  0  0  0  0
   11.0456   -2.9774   18.2694 N   0  0  0  0  0  0  0  0  0  0  0  0
   10.4788   -3.0457   21.8593 C   0  0  0  0  0  0  0  0  0  0  0  0
    8.8693   -5.8099   18.4657 N   0  0  0  0  0  0  0  0  0  0  0  0
    8.9892   -0.7926   25.4573 C   0  0  0  0  0  0  0  0  0  0  0  0
   10.5677   -3.4462   20.5323 C   0  0  0  0  0  0  0  0  0  0  0  0
  1  8  1  0
  1 12  4  0
  1 14  4  0
  2  3  4  0
  2 18  4  0
  3 20  4  0
  3 22  4  0
  4 11  4  0
  4 21  4  0
  5  9  4  0
  5 16  4  0
  6 15  4  0
  6 16  4  0
  7 22  4  0
  7 26  4  0
  8 10  4  0
  8 25  4  0
  9 15  4  0
  9 17  1  0
 10 21  4  0
 11 25  4  0
 12 23  4  0
 13 20  4  0
 13 26  4  0
 14 19  4  0
 17 18  4  0
 17 24  4  0
 19 23  4  0
 20 24  4  0
 23 26  1  0
M  END
$$$$

 Created by Python create_sdf_string function

 26 30  0  0  0  0  0  0  0  0999 V2000
   10.0084   -1.8019   23.4945 C   0  0  0  0  0  0  0  0  0  0  0  0
   10.0005   -4.2520   16.5631 C   0  0  0  0  0  0  0  0  0  0  0  0
   10.2759   -4.0036   17.8845 C   0  0  0  0  0  0  0  0  0  0  0  0
    8.5652    1.5478   25.3778 N   0  0  0  0  0  0  0  0  0  0  0  0
    6.8048   -7.5457   17.8752 C   0  0  0  0  0  0  0  0  0  0  0  0
    6.1721   -8.2186   15.9886 N   0  0  0  0  0  0  0  0  0  0  0  0
   11.1764   -2.6600   19.5604 C   0  0  0  0  0  0  0  0  0  0  0  0
    9.5491   -0.6380   24.1912 C   0  0  0  0  0  0  0  0  0  0  0  0
    7.5337   -6.9256   16.9519 C   0  0  0  0  0  0  0  0  0  0  0  0
    9.6782    0.5671   23.5143 C   0  0  0  0  0  0  0  0  0  0  0  0
    8.4532    0.3482   26.0821 C   0  0  0  0  0  0  0  0  0  0  0  0
   10.4239   -1.7677   22.2230 N   0  0  0  0  0  0  0  0  0  0  0  0
    9.9468   -4.5953   20.1709 C   0  0  0  0  0  0  0  0  0  0  0  0
   10.0366   -3.0590   23.9864 N   0  0  0  0  0  0  0  0  0  0  0  0
    7.1191   -7.3636   15.7739 C   0  0  0  0  0  0  0  0  0  0  0  0
    5.9612   -8.3203   17.2732 N   0  0  0  0  0  0  0  0  0  0  0  0
    8.5296   -5.9814   17.1841 C   0  0  0  0  0  0  0  0  0  0  0  0
    9.1527   -5.2118   16.2116 C   0  0  0  0  0  0  0  0  0  0  0  0
   10.3364   -3.8368   22.9255 O   0  0  0  0  0  0  0  0  0  0  0  0
    9.6947   -4.8407   18.8534 C   0  0  0  0  0  0  0  0  0  0  0  0
    9.1596    1.7042   24.1381 C   0  0  0  0  0  0  0  0  0  0  0  0
   11.0456   -2.9774   18.2694 N   0  0  0  0  0  0  0  0  0  0  0  0
   10.4788   -3.0457   21.8593 C   0  0  0  0  0  0  0  0  0  0  0  0
    8.8693   -5.8099   18.4657 N   0  0  0  0  0  0  0  0  0  0  0  0
    8.9892   -0.7926   25.4573 C   0  0  0  0  0  0  0  0  0  0  0  0
   10.5677   -3.4462   20.5323 C   0  0  0  0  0  0  0  0  0  0  0  0
  1  8  1  0
  1 12  4  0
  1 14  4  0
  2  3  4  0
  2 18  4  0
  3 20  4  0
  3 22  4  0
  4 11  4  0
  4 21  4  0
  5  9  4  0
  5 16  4  0
  6 15  4  0
  6 16  4  0
  7 22  4  0
  7 26  4  0
  8 10  4  0
  8 25  4  0
  9 15  4  0
  9 17  1  0
 10 21  4  0
 11 25  4  0
 12 23  4  0
 13 20  4  0
 13 26  4  0
 14 19  4  0
 17 18  4  0
 17 24  4  0
 19 23  4  0
 20 24  4  0
 23 26  1  0
M  END
$$$$

 Created by Python create_sdf_string function

 26 30  0  0  0  0  0  0  0  0999 V2000
   10.0084   -1.8019   23.4945 C   0  0  0  0  0  0  0  0  0  0  0  0
   10.0005   -4.2520   16.5631 C   0  0  0  0  0  0  0  0  0  0  0  0
   10.2759   -4.0036   17.8845 C   0  0  0  0  0  0  0  0  0  0  0  0
    8.5652    1.5478   25.3778 N   0  0  0  0  0  0  0  0  0  0  0  0
    6.8048   -7.5457   17.8752 C   0  0  0  0  0  0  0  0  0  0  0  0
    6.1721   -8.2186   15.9886 N   0  0  0  0  0  0  0  0  0  0  0  0
   11.1764   -2.6600   19.5604 C   0  0  0  0  0  0  0  0  0  0  0  0
    9.5491   -0.6380   24.1912 C   0  0  0  0  0  0  0  0  0  0  0  0
    7.5337   -6.9256   16.9519 C   0  0  0  0  0  0  0  0  0  0  0  0
    9.6782    0.5671   23.5143 C   0  0  0  0  0  0  0  0  0  0  0  0
    8.4532    0.3482   26.0821 C   0  0  0  0  0  0  0  0  0  0  0  0
   10.4239   -1.7677   22.2230 N   0  0  0  0  0  0  0  0  0  0  0  0
    9.9468   -4.5953   20.1709 C   0  0  0  0  0  0  0  0  0  0  0  0
   10.0366   -3.0590   23.9864 N   0  0  0  0  0  0  0  0  0  0  0  0
    7.1191   -7.3636   15.7739 C   0  0  0  0  0  0  0  0  0  0  0  0
    5.9612   -8.3203   17.2732 N   0  0  0  0  0  0  0  0  0  0  0  0
    8.5296   -5.9814   17.1841 C   0  0  0  0  0  0  0  0  0  0  0  0
    9.1527   -5.2118   16.2116 C   0  0  0  0  0  0  0  0  0  0  0  0
   10.3364   -3.8368   22.9255 O   0  0  0  0  0  0  0  0  0  0  0  0
    9.6947   -4.8407   18.8534 C   0  0  0  0  0  0  0  0  0  0  0  0
    9.1596    1.7042   24.1381 C   0  0  0  0  0  0  0  0  0  0  0  0
   11.0456   -2.9774   18.2694 N   0  0  0  0  0  0  0  0  0  0  0  0
   10.4788   -3.0457   21.8593 C   0  0  0  0  0  0  0  0  0  0  0  0
    8.8693   -5.8099   18.4657 N   0  0  0  0  0  0  0  0  0  0  0  0
    8.9892   -0.7926   25.4573 C   0  0  0  0  0  0  0  0  0  0  0  0
   10.5677   -3.4462   20.5323 C   0  0  0  0  0  0  0  0  0  0  0  0
  1  8  1  0
  1 12  4  0
  1 14  4  0
  2  3  4  0
  2 18  4  0
  3 20  4  0
  3 22  4  0
  4 11  4  0
  4 21  4  0
  5  9  4  0
  5 16  4  0
  6 15  4  0
  6 16  4  0
  7 22  4  0
  7 26  4  0
  8 10  4  0
  8 25  4  0
  9 15  4  0
  9 17  1  0
 10 21  4  0
 11 25  4  0
 12 23  4  0
 13 20  4  0
 13 26  4  0
 14 19  4  0
 17 18  4  0
 17 24  4  0
 19 23  4  0
 20 24  4  0
 23 26  1  0
M  END
$$$$

 Created by Python create_sdf_string function

 26 30  0  0  0  0  0  0  0  0999 V2000
   10.0084   -1.8019   23.4945 C   0  0  0  0  0  0  0  0  0  0  0  0
   10.0005   -4.2520   16.5631 C   0  0  0  0  0  0  0  0  0  0  0  0
   10.2759   -4.0036   17.8845 C   0  0  0  0  0  0  0  0  0  0  0  0
    8.5652    1.5478   25.3778 N   0  0  0  0  0  0  0  0  0  0  0  0
    6.8048   -7.5457   17.8752 C   0  0  0  0  0  0  0  0  0  0  0  0
    6.1721   -8.2186   15.9886 N   0  0  0  0  0  0  0  0  0  0  0  0
   11.1764   -2.6600   19.5604 C   0  0  0  0  0  0  0  0  0  0  0  0
    9.5491   -0.6380   24.1912 C   0  0  0  0  0  0  0  0  0  0  0  0
    7.5337   -6.9256   16.9519 C   0  0  0  0  0  0  0  0  0  0  0  0
    9.6782    0.5671   23.5143 C   0  0  0  0  0  0  0  0  0  0  0  0
    8.4532    0.3482   26.0821 C   0  0  0  0  0  0  0  0  0  0  0  0
   10.4239   -1.7677   22.2230 N   0  0  0  0  0  0  0  0  0  0  0  0
    9.9468   -4.5953   20.1709 C   0  0  0  0  0  0  0  0  0  0  0  0
   10.0366   -3.0590   23.9864 N   0  0  0  0  0  0  0  0  0  0  0  0
    7.1191   -7.3636   15.7739 C   0  0  0  0  0  0  0  0  0  0  0  0
    5.9612   -8.3203   17.2732 N   0  0  0  0  0  0  0  0  0  0  0  0
    8.5296   -5.9814   17.1841 C   0  0  0  0  0  0  0  0  0  0  0  0
    9.1527   -5.2118   16.2116 C   0  0  0  0  0  0  0  0  0  0  0  0
   10.3364   -3.8368   22.9255 O   0  0  0  0  0  0  0  0  0  0  0  0
    9.6947   -4.8407   18.8534 C   0  0  0  0  0  0  0  0  0  0  0  0
    9.1596    1.7042   24.1381 C   0  0  0  0  0  0  0  0  0  0  0  0
   11.0456   -2.9774   18.2694 N   0  0  0  0  0  0  0  0  0  0  0  0
   10.4788   -3.0457   21.8593 C   0  0  0  0  0  0  0  0  0  0  0  0
    8.8693   -5.8099   18.4657 N   0  0  0  0  0  0  0  0  0  0  0  0
    8.9892   -0.7926   25.4573 C   0  0  0  0  0  0  0  0  0  0  0  0
   10.5677   -3.4462   20.5323 C   0  0  0  0  0  0  0  0  0  0  0  0
  1  8  1  0
  1 12  4  0
  1 14  4  0
  2  3  4  0
  2 18  4  0
  3 20  4  0
  3 22  4  0
  4 11  4  0
  4 21  4  0
  5  9  4  0
  5 16  4  0
  6 15  4  0
  6 16  4  0
  7 22  4  0
  7 26  4  0
  8 10  4  0
  8 25  4  0
  9 15  4  0
  9 17  1  0
 10 21  4  0
 11 25  4  0
 12 23  4  0
 13 20  4  0
 13 26  4  0
 14 19  4  0
 17 18  4  0
 17 24  4  0
 19 23  4  0
 20 24  4  0
 23 26  1  0
M  END
$$$$

 Created by Python create_sdf_string function

 26 30  0  0  0  0  0  0  0  0999 V2000
   10.0084   -1.8019   23.4945 C   0  0  0  0  0  0  0  0  0  0  0  0
   10.0005   -4.2520   16.5631 C   0  0  0  0  0  0  0  0  0  0  0  0
   10.2759   -4.0036   17.8845 C   0  0  0  0  0  0  0  0  0  0  0  0
    8.5652    1.5478   25.3778 N   0  0  0  0  0  0  0  0  0  0  0  0
    6.8048   -7.5457   17.8752 C   0  0  0  0  0  0  0  0  0  0  0  0
    6.1721   -8.2186   15.9886 N   0  0  0  0  0  0  0  0  0  0  0  0
   11.1764   -2.6600   19.5604 C   0  0  0  0  0  0  0  0  0  0  0  0
    9.5491   -0.6380   24.1912 C   0  0  0  0  0  0  0  0  0  0  0  0
    7.5337   -6.9256   16.9519 C   0  0  0  0  0  0  0  0  0  0  0  0
    9.6782    0.5671   23.5143 C   0  0  0  0  0  0  0  0  0  0  0  0
    8.4532    0.3482   26.0821 C   0  0  0  0  0  0  0  0  0  0  0  0
   10.4239   -1.7677   22.2230 N   0  0  0  0  0  0  0  0  0  0  0  0
    9.9468   -4.5953   20.1709 C   0  0  0  0  0  0  0  0  0  0  0  0
   10.0366   -3.0590   23.9864 N   0  0  0  0  0  0  0  0  0  0  0  0
    7.1191   -7.3636   15.7739 C   0  0  0  0  0  0  0  0  0  0  0  0
    5.9612   -8.3203   17.2732 N   0  0  0  0  0  0  0  0  0  0  0  0
    8.5296   -5.9814   17.1841 C   0  0  0  0  0  0  0  0  0  0  0  0
    9.1527   -5.2118   16.2116 C   0  0  0  0  0  0  0  0  0  0  0  0
   10.3364   -3.8368   22.9255 O   0  0  0  0  0  0  0  0  0  0  0  0
    9.6947   -4.8407   18.8534 C   0  0  0  0  0  0  0  0  0  0  0  0
    9.1596    1.7042   24.1381 C   0  0  0  0  0  0  0  0  0  0  0  0
   11.0456   -2.9774   18.2694 N   0  0  0  0  0  0  0  0  0  0  0  0
   10.4788   -3.0457   21.8593 C   0  0  0  0  0  0  0  0  0  0  0  0
    8.8693   -5.8099   18.4657 N   0  0  0  0  0  0  0  0  0  0  0  0
    8.9892   -0.7926   25.4573 C   0  0  0  0  0  0  0  0  0  0  0  0
   10.5677   -3.4462   20.5323 C   0  0  0  0  0  0  0  0  0  0  0  0
  1  8  1  0
  1 12  4  0
  1 14  4  0
  2  3  4  0
  2 18  4  0
  3 20  4  0
  3 22  4  0
  4 11  4  0
  4 21  4  0
  5  9  4  0
  5 16  4  0
  6 15  4  0
  6 16  4  0
  7 22  4  0
  7 26  4  0
  8 10  4  0
  8 25  4  0
  9 15  4  0
  9 17  1  0
 10 21  4  0
 11 25  4  0
 12 23  4  0
 13 20  4  0
 13 26  4  0
 14 19  4  0
 17 18  4  0
 17 24  4  0
 19 23  4  0
 20 24  4  0
 23 26  1  0
M  END
$$$$

 Created by Python create_sdf_string function

 26 30  0  0  0  0  0  0  0  0999 V2000
   10.0084   -1.8019   23.4945 C   0  0  0  0  0  0  0  0  0  0  0  0
   10.0005   -4.2520   16.5631 C   0  0  0  0  0  0  0  0  0  0  0  0
   10.2759   -4.0036   17.8845 C   0  0  0  0  0  0  0  0  0  0  0  0
    8.5652    1.5478   25.3778 N   0  0  0  0  0  0  0  0  0  0  0  0
    6.8048   -7.5457   17.8752 C   0  0  0  0  0  0  0  0  0  0  0  0
    6.1721   -8.2186   15.9886 N   0  0  0  0  0  0  0  0  0  0  0  0
   11.1764   -2.6600   19.5604 C   0  0  0  0  0  0  0  0  0  0  0  0
    9.5491   -0.6380   24.1912 C   0  0  0  0  0  0  0  0  0  0  0  0
    7.5337   -6.9256   16.9519 C   0  0  0  0  0  0  0  0  0  0  0  0
    9.6782    0.5671   23.5143 C   0  0  0  0  0  0  0  0  0  0  0  0
    8.4532    0.3482   26.0821 C   0  0  0  0  0  0  0  0  0  0  0  0
   10.4239   -1.7677   22.2230 N   0  0  0  0  0  0  0  0  0  0  0  0
    9.9468   -4.5953   20.1709 C   0  0  0  0  0  0  0  0  0  0  0  0
   10.0366   -3.0590   23.9864 N   0  0  0  0  0  0  0  0  0  0  0  0
    7.1191   -7.3636   15.7739 C   0  0  0  0  0  0  0  0  0  0  0  0
    5.9612   -8.3203   17.2732 N   0  0  0  0  0  0  0  0  0  0  0  0
    8.5296   -5.9814   17.1841 C   0  0  0  0  0  0  0  0  0  0  0  0
    9.1527   -5.2118   16.2116 C   0  0  0  0  0  0  0  0  0  0  0  0
   10.3364   -3.8368   22.9255 O   0  0  0  0  0  0  0  0  0  0  0  0
    9.6947   -4.8407   18.8534 C   0  0  0  0  0  0  0  0  0  0  0  0
    9.1596    1.7042   24.1381 C   0  0  0  0  0  0  0  0  0  0  0  0
   11.0456   -2.9774   18.2694 N   0  0  0  0  0  0  0  0  0  0  0  0
   10.4788   -3.0457   21.8593 C   0  0  0  0  0  0  0  0  0  0  0  0
    8.8693   -5.8099   18.4657 N   0  0  0  0  0  0  0  0  0  0  0  0
    8.9892   -0.7926   25.4573 C   0  0  0  0  0  0  0  0  0  0  0  0
   10.5677   -3.4462   20.5323 C   0  0  0  0  0  0  0  0  0  0  0  0
  1  8  1  0
  1 12  4  0
  1 14  4  0
  2  3  4  0
  2 18  4  0
  3 20  4  0
  3 22  4  0
  4 11  4  0
  4 21  4  0
  5  9  4  0
  5 16  4  0
  6 15  4  0
  6 16  4  0
  7 22  4  0
  7 26  4  0
  8 10  4  0
  8 25  4  0
  9 15  4  0
  9 17  1  0
 10 21  4  0
 11 25  4  0
 12 23  4  0
 13 20  4  0
 13 26  4  0
 14 19  4  0
 17 18  4  0
 17 24  4  0
 19 23  4  0
 20 24  4  0
 23 26  1  0
M  END
$$$$

 Created by Python create_sdf_string function

 26 30  0  0  0  0  0  0  0  0999 V2000
   10.0084   -1.8019   23.4945 C   0  0  0  0  0  0  0  0  0  0  0  0
   10.0005   -4.2520   16.5631 C   0  0  0  0  0  0  0  0  0  0  0  0
   10.2759   -4.0036   17.8845 C   0  0  0  0  0  0  0  0  0  0  0  0
    8.5652    1.5478   25.3778 N   0  0  0  0  0  0  0  0  0  0  0  0
    6.8048   -7.5457   17.8752 C   0  0  0  0  0  0  0  0  0  0  0  0
    6.1721   -8.2186   15.9886 N   0  0  0  0  0  0  0  0  0  0  0  0
   11.1764   -2.6600   19.5604 C   0  0  0  0  0  0  0  0  0  0  0  0
    9.5491   -0.6380   24.1912 C   0  0  0  0  0  0  0  0  0  0  0  0
    7.5337   -6.9256   16.9519 C   0  0  0  0  0  0  0  0  0  0  0  0
    9.6782    0.5671   23.5143 C   0  0  0  0  0  0  0  0  0  0  0  0
    8.4532    0.3482   26.0821 C   0  0  0  0  0  0  0  0  0  0  0  0
   10.4239   -1.7677   22.2230 N   0  0  0  0  0  0  0  0  0  0  0  0
    9.9468   -4.5953   20.1709 C   0  0  0  0  0  0  0  0  0  0  0  0
   10.0366   -3.0590   23.9864 N   0  0  0  0  0  0  0  0  0  0  0  0
    7.1191   -7.3636   15.7739 C   0  0  0  0  0  0  0  0  0  0  0  0
    5.9612   -8.3203   17.2732 N   0  0  0  0  0  0  0  0  0  0  0  0
    8.5296   -5.9814   17.1841 C   0  0  0  0  0  0  0  0  0  0  0  0
    9.1527   -5.2118   16.2116 C   0  0  0  0  0  0  0  0  0  0  0  0
   10.3364   -3.8368   22.9255 O   0  0  0  0  0  0  0  0  0  0  0  0
    9.6947   -4.8407   18.8534 C   0  0  0  0  0  0  0  0  0  0  0  0
    9.1596    1.7042   24.1381 C   0  0  0  0  0  0  0  0  0  0  0  0
   11.0456   -2.9774   18.2694 N   0  0  0  0  0  0  0  0  0  0  0  0
   10.4788   -3.0457   21.8593 C   0  0  0  0  0  0  0  0  0  0  0  0
    8.8693   -5.8099   18.4657 N   0  0  0  0  0  0  0  0  0  0  0  0
    8.9892   -0.7926   25.4573 C   0  0  0  0  0  0  0  0  0  0  0  0
   10.5677   -3.4462   20.5323 C   0  0  0  0  0  0  0  0  0  0  0  0
  1  8  1  0
  1 12  4  0
  1 14  4  0
  2  3  4  0
  2 18  4  0
  3 20  4  0
  3 22  4  0
  4 11  4  0
  4 21  4  0
  5  9  4  0
  5 16  4  0
  6 15  4  0
  6 16  4  0
  7 22  4  0
  7 26  4  0
  8 10  4  0
  8 25  4  0
  9 15  4  0
  9 17  1  0
 10 21  4  0
 11 25  4  0
 12 23  4  0
 13 20  4  0
 13 26  4  0
 14 19  4  0
 17 18  4  0
 17 24  4  0
 19 23  4  0
 20 24  4  0
 23 26  1  0
M  END
$$$$

 Created by Python create_sdf_string function

 26 30  0  0  0  0  0  0  0  0999 V2000
   10.0084   -1.8019   23.4945 C   0  0  0  0  0  0  0  0  0  0  0  0
   10.0005   -4.2520   16.5631 C   0  0  0  0  0  0  0  0  0  0  0  0
   10.2759   -4.0036   17.8845 C   0  0  0  0  0  0  0  0  0  0  0  0
    8.5652    1.5478   25.3778 N   0  0  0  0  0  0  0  0  0  0  0  0
    6.8048   -7.5457   17.8752 C   0  0  0  0  0  0  0  0  0  0  0  0
    6.1721   -8.2186   15.9886 N   0  0  0  0  0  0  0  0  0  0  0  0
   11.1764   -2.6600   19.5604 C   0  0  0  0  0  0  0  0  0  0  0  0
    9.5491   -0.6380   24.1912 C   0  0  0  0  0  0  0  0  0  0  0  0
    7.5337   -6.9256   16.9519 C   0  0  0  0  0  0  0  0  0  0  0  0
    9.6782    0.5671   23.5143 C   0  0  0  0  0  0  0  0  0  0  0  0
    8.4532    0.3482   26.0821 C   0  0  0  0  0  0  0  0  0  0  0  0
   10.4239   -1.7677   22.2230 N   0  0  0  0  0  0  0  0  0  0  0  0
    9.9468   -4.5953   20.1709 C   0  0  0  0  0  0  0  0  0  0  0  0
   10.0366   -3.0590   23.9864 N   0  0  0  0  0  0  0  0  0  0  0  0
    7.1191   -7.3636   15.7739 C   0  0  0  0  0  0  0  0  0  0  0  0
    5.9612   -8.3203   17.2732 N   0  0  0  0  0  0  0  0  0  0  0  0
    8.5296   -5.9814   17.1841 C   0  0  0  0  0  0  0  0  0  0  0  0
    9.1527   -5.2118   16.2116 C   0  0  0  0  0  0  0  0  0  0  0  0
   10.3364   -3.8368   22.9255 O   0  0  0  0  0  0  0  0  0  0  0  0
    9.6947   -4.8407   18.8534 C   0  0  0  0  0  0  0  0  0  0  0  0
    9.1596    1.7042   24.1381 C   0  0  0  0  0  0  0  0  0  0  0  0
   11.0456   -2.9774   18.2694 N   0  0  0  0  0  0  0  0  0  0  0  0
   10.4788   -3.0457   21.8593 C   0  0  0  0  0  0  0  0  0  0  0  0
    8.8693   -5.8099   18.4657 N   0  0  0  0  0  0  0  0  0  0  0  0
    8.9892   -0.7926   25.4573 C   0  0  0  0  0  0  0  0  0  0  0  0
   10.5677   -3.4462   20.5323 C   0  0  0  0  0  0  0  0  0  0  0  0
  1  8  1  0
  1 12  4  0
  1 14  4  0
  2  3  4  0
  2 18  4  0
  3 20  4  0
  3 22  4  0
  4 11  4  0
  4 21  4  0
  5  9  4  0
  5 16  4  0
  6 15  4  0
  6 16  4  0
  7 22  4  0
  7 26  4  0
  8 10  4  0
  8 25  4  0
  9 15  4  0
  9 17  1  0
 10 21  4  0
 11 25  4  0
 12 23  4  0
 13 20  4  0
 13 26  4  0
 14 19  4  0
 17 18  4  0
 17 24  4  0
 19 23  4  0
 20 24  4  0
 23 26  1  0
M  END
$$$$

 Created by Python create_sdf_string function

 26 30  0  0  0  0  0  0  0  0999 V2000
   10.0084   -1.8019   23.4945 C   0  0  0  0  0  0  0  0  0  0  0  0
   10.0005   -4.2520   16.5631 C   0  0  0  0  0  0  0  0  0  0  0  0
   10.2759   -4.0036   17.8845 C   0  0  0  0  0  0  0  0  0  0  0  0
    8.5652    1.5478   25.3778 N   0  0  0  0  0  0  0  0  0  0  0  0
    6.8048   -7.5457   17.8752 C   0  0  0  0  0  0  0  0  0  0  0  0
    6.1721   -8.2186   15.9886 N   0  0  0  0  0  0  0  0  0  0  0  0
   11.1764   -2.6600   19.5604 C   0  0  0  0  0  0  0  0  0  0  0  0
    9.5491   -0.6380   24.1912 C   0  0  0  0  0  0  0  0  0  0  0  0
    7.5337   -6.9256   16.9519 C   0  0  0  0  0  0  0  0  0  0  0  0
    9.6782    0.5671   23.5143 C   0  0  0  0  0  0  0  0  0  0  0  0
    8.4532    0.3482   26.0821 C   0  0  0  0  0  0  0  0  0  0  0  0
   10.4239   -1.7677   22.2230 N   0  0  0  0  0  0  0  0  0  0  0  0
    9.9468   -4.5953   20.1709 C   0  0  0  0  0  0  0  0  0  0  0  0
   10.0366   -3.0590   23.9864 N   0  0  0  0  0  0  0  0  0  0  0  0
    7.1191   -7.3636   15.7739 C   0  0  0  0  0  0  0  0  0  0  0  0
    5.9612   -8.3203   17.2732 N   0  0  0  0  0  0  0  0  0  0  0  0
    8.5296   -5.9814   17.1841 C   0  0  0  0  0  0  0  0  0  0  0  0
    9.1527   -5.2118   16.2116 C   0  0  0  0  0  0  0  0  0  0  0  0
   10.3364   -3.8368   22.9255 O   0  0  0  0  0  0  0  0  0  0  0  0
    9.6947   -4.8407   18.8534 C   0  0  0  0  0  0  0  0  0  0  0  0
    9.1596    1.7042   24.1381 C   0  0  0  0  0  0  0  0  0  0  0  0
   11.0456   -2.9774   18.2694 N   0  0  0  0  0  0  0  0  0  0  0  0
   10.4788   -3.0457   21.8593 C   0  0  0  0  0  0  0  0  0  0  0  0
    8.8693   -5.8099   18.4657 N   0  0  0  0  0  0  0  0  0  0  0  0
    8.9892   -0.7926   25.4573 C   0  0  0  0  0  0  0  0  0  0  0  0
   10.5677   -3.4462   20.5323 C   0  0  0  0  0  0  0  0  0  0  0  0
  1  8  1  0
  1 12  4  0
  1 14  4  0
  2  3  4  0
  2 18  4  0
  3 20  4  0
  3 22  4  0
  4 11  4  0
  4 21  4  0
  5  9  4  0
  5 16  4  0
  6 15  4  0
  6 16  4  0
  7 22  4  0
  7 26  4  0
  8 10  4  0
  8 25  4  0
  9 15  4  0
  9 17  1  0
 10 21  4  0
 11 25  4  0
 12 23  4  0
 13 20  4  0
 13 26  4  0
 14 19  4  0
 17 18  4  0
 17 24  4  0
 19 23  4  0
 20 24  4  0
 23 26  1  0
M  END
$$$$

 Created by Python create_sdf_string function

 26 30  0  0  0  0  0  0  0  0999 V2000
   10.0084   -1.8019   23.4945 C   0  0  0  0  0  0  0  0  0  0  0  0
   10.0005   -4.2520   16.5631 C   0  0  0  0  0  0  0  0  0  0  0  0
   10.2759   -4.0036   17.8845 C   0  0  0  0  0  0  0  0  0  0  0  0
    8.5652    1.5478   25.3778 N   0  0  0  0  0  0  0  0  0  0  0  0
    6.8048   -7.5457   17.8752 C   0  0  0  0  0  0  0  0  0  0  0  0
    6.1721   -8.2186   15.9886 N   0  0  0  0  0  0  0  0  0  0  0  0
   11.1764   -2.6600   19.5604 C   0  0  0  0  0  0  0  0  0  0  0  0
    9.5491   -0.6380   24.1912 C   0  0  0  0  0  0  0  0  0  0  0  0
    7.5337   -6.9256   16.9519 C   0  0  0  0  0  0  0  0  0  0  0  0
    9.6782    0.5671   23.5143 C   0  0  0  0  0  0  0  0  0  0  0  0
    8.4532    0.3482   26.0821 C   0  0  0  0  0  0  0  0  0  0  0  0
   10.4239   -1.7677   22.2230 N   0  0  0  0  0  0  0  0  0  0  0  0
    9.9468   -4.5953   20.1709 C   0  0  0  0  0  0  0  0  0  0  0  0
   10.0366   -3.0590   23.9864 N   0  0  0  0  0  0  0  0  0  0  0  0
    7.1191   -7.3636   15.7739 C   0  0  0  0  0  0  0  0  0  0  0  0
    5.9612   -8.3203   17.2732 N   0  0  0  0  0  0  0  0  0  0  0  0
    8.5296   -5.9814   17.1841 C   0  0  0  0  0  0  0  0  0  0  0  0
    9.1527   -5.2118   16.2116 C   0  0  0  0  0  0  0  0  0  0  0  0
   10.3364   -3.8368   22.9255 O   0  0  0  0  0  0  0  0  0  0  0  0
    9.6947   -4.8407   18.8534 C   0  0  0  0  0  0  0  0  0  0  0  0
    9.1596    1.7042   24.1381 C   0  0  0  0  0  0  0  0  0  0  0  0
   11.0456   -2.9774   18.2694 N   0  0  0  0  0  0  0  0  0  0  0  0
   10.4788   -3.0457   21.8593 C   0  0  0  0  0  0  0  0  0  0  0  0
    8.8693   -5.8099   18.4657 N   0  0  0  0  0  0  0  0  0  0  0  0
    8.9892   -0.7926   25.4573 C   0  0  0  0  0  0  0  0  0  0  0  0
   10.5677   -3.4462   20.5323 C   0  0  0  0  0  0  0  0  0  0  0  0
  1  8  1  0
  1 12  4  0
  1 14  4  0
  2  3  4  0
  2 18  4  0
  3 20  4  0
  3 22  4  0
  4 11  4  0
  4 21  4  0
  5  9  4  0
  5 16  4  0
  6 15  4  0
  6 16  4  0
  7 22  4  0
  7 26  4  0
  8 10  4  0
  8 25  4  0
  9 15  4  0
  9 17  1  0
 10 21  4  0
 11 25  4  0
 12 23  4  0
 13 20  4  0
 13 26  4  0
 14 19  4  0
 17 18  4  0
 17 24  4  0
 19 23  4  0
 20 24  4  0
 23 26  1  0
M  END
$$$$

 Created by Python create_sdf_string function

 26 30  0  0  0  0  0  0  0  0999 V2000
   10.0084   -1.8019   23.4945 C   0  0  0  0  0  0  0  0  0  0  0  0
   10.0005   -4.2520   16.5631 C   0  0  0  0  0  0  0  0  0  0  0  0
   10.2759   -4.0036   17.8845 C   0  0  0  0  0  0  0  0  0  0  0  0
    8.5652    1.5478   25.3778 N   0  0  0  0  0  0  0  0  0  0  0  0
    6.8048   -7.5457   17.8752 C   0  0  0  0  0  0  0  0  0  0  0  0
    6.1721   -8.2186   15.9886 N   0  0  0  0  0  0  0  0  0  0  0  0
   11.1764   -2.6600   19.5604 C   0  0  0  0  0  0  0  0  0  0  0  0
    9.5491   -0.6380   24.1912 C   0  0  0  0  0  0  0  0  0  0  0  0
    7.5337   -6.9256   16.9519 C   0  0  0  0  0  0  0  0  0  0  0  0
    9.6782    0.5671   23.5143 C   0  0  0  0  0  0  0  0  0  0  0  0
    8.4532    0.3482   26.0821 C   0  0  0  0  0  0  0  0  0  0  0  0
   10.4239   -1.7677   22.2230 N   0  0  0  0  0  0  0  0  0  0  0  0
    9.9468   -4.5953   20.1709 C   0  0  0  0  0  0  0  0  0  0  0  0
   10.0366   -3.0590   23.9864 N   0  0  0  0  0  0  0  0  0  0  0  0
    7.1191   -7.3636   15.7739 C   0  0  0  0  0  0  0  0  0  0  0  0
    5.9612   -8.3203   17.2732 N   0  0  0  0  0  0  0  0  0  0  0  0
    8.5296   -5.9814   17.1841 C   0  0  0  0  0  0  0  0  0  0  0  0
    9.1527   -5.2118   16.2116 C   0  0  0  0  0  0  0  0  0  0  0  0
   10.3364   -3.8368   22.9255 O   0  0  0  0  0  0  0  0  0  0  0  0
    9.6947   -4.8407   18.8534 C   0  0  0  0  0  0  0  0  0  0  0  0
    9.1596    1.7042   24.1381 C   0  0  0  0  0  0  0  0  0  0  0  0
   11.0456   -2.9774   18.2694 N   0  0  0  0  0  0  0  0  0  0  0  0
   10.4788   -3.0457   21.8593 C   0  0  0  0  0  0  0  0  0  0  0  0
    8.8693   -5.8099   18.4657 N   0  0  0  0  0  0  0  0  0  0  0  0
    8.9892   -0.7926   25.4573 C   0  0  0  0  0  0  0  0  0  0  0  0
   10.5677   -3.4462   20.5323 C   0  0  0  0  0  0  0  0  0  0  0  0
  1  8  1  0
  1 12  4  0
  1 14  4  0
  2  3  4  0
  2 18  4  0
  3 20  4  0
  3 22  4  0
  4 11  4  0
  4 21  4  0
  5  9  4  0
  5 16  4  0
  6 15  4  0
  6 16  4  0
  7 22  4  0
  7 26  4  0
  8 10  4  0
  8 25  4  0
  9 15  4  0
  9 17  1  0
 10 21  4  0
 11 25  4  0
 12 23  4  0
 13 20  4  0
 13 26  4  0
 14 19  4  0
 17 18  4  0
 17 24  4  0
 19 23  4  0
 20 24  4  0
 23 26  1  0
M  END
$$$$

 Created by Python create_sdf_string function

 26 30  0  0  0  0  0  0  0  0999 V2000
   10.0084   -1.8019   23.4945 C   0  0  0  0  0  0  0  0  0  0  0  0
   10.0005   -4.2520   16.5631 C   0  0  0  0  0  0  0  0  0  0  0  0
   10.2759   -4.0036   17.8845 C   0  0  0  0  0  0  0  0  0  0  0  0
    8.5652    1.5478   25.3778 N   0  0  0  0  0  0  0  0  0  0  0  0
    6.8048   -7.5457   17.8752 C   0  0  0  0  0  0  0  0  0  0  0  0
    6.1721   -8.2186   15.9886 N   0  0  0  0  0  0  0  0  0  0  0  0
   11.1764   -2.6600   19.5604 C   0  0  0  0  0  0  0  0  0  0  0  0
    9.5491   -0.6380   24.1912 C   0  0  0  0  0  0  0  0  0  0  0  0
    7.5337   -6.9256   16.9519 C   0  0  0  0  0  0  0  0  0  0  0  0
    9.6782    0.5671   23.5143 C   0  0  0  0  0  0  0  0  0  0  0  0
    8.4532    0.3482   26.0821 C   0  0  0  0  0  0  0  0  0  0  0  0
   10.4239   -1.7677   22.2230 N   0  0  0  0  0  0  0  0  0  0  0  0
    9.9468   -4.5953   20.1709 C   0  0  0  0  0  0  0  0  0  0  0  0
   10.0366   -3.0590   23.9864 N   0  0  0  0  0  0  0  0  0  0  0  0
    7.1191   -7.3636   15.7739 C   0  0  0  0  0  0  0  0  0  0  0  0
    5.9612   -8.3203   17.2732 N   0  0  0  0  0  0  0  0  0  0  0  0
    8.5296   -5.9814   17.1841 C   0  0  0  0  0  0  0  0  0  0  0  0
    9.1527   -5.2118   16.2116 C   0  0  0  0  0  0  0  0  0  0  0  0
   10.3364   -3.8368   22.9255 O   0  0  0  0  0  0  0  0  0  0  0  0
    9.6947   -4.8407   18.8534 C   0  0  0  0  0  0  0  0  0  0  0  0
    9.1596    1.7042   24.1381 C   0  0  0  0  0  0  0  0  0  0  0  0
   11.0456   -2.9774   18.2694 N   0  0  0  0  0  0  0  0  0  0  0  0
   10.4788   -3.0457   21.8593 C   0  0  0  0  0  0  0  0  0  0  0  0
    8.8693   -5.8099   18.4657 N   0  0  0  0  0  0  0  0  0  0  0  0
    8.9892   -0.7926   25.4573 C   0  0  0  0  0  0  0  0  0  0  0  0
   10.5677   -3.4462   20.5323 C   0  0  0  0  0  0  0  0  0  0  0  0
  1  8  1  0
  1 12  4  0
  1 14  4  0
  2  3  4  0
  2 18  4  0
  3 20  4  0
  3 22  4  0
  4 11  4  0
  4 21  4  0
  5  9  4  0
  5 16  4  0
  6 15  4  0
  6 16  4  0
  7 22  4  0
  7 26  4  0
  8 10  4  0
  8 25  4  0
  9 15  4  0
  9 17  1  0
 10 21  4  0
 11 25  4  0
 12 23  4  0
 13 20  4  0
 13 26  4  0
 14 19  4  0
 17 18  4  0
 17 24  4  0
 19 23  4  0
 20 24  4  0
 23 26  1  0
M  END
$$$$

 Created by Python create_sdf_string function

 26 30  0  0  0  0  0  0  0  0999 V2000
   10.0084   -1.8019   23.4945 C   0  0  0  0  0  0  0  0  0  0  0  0
   10.0005   -4.2520   16.5631 C   0  0  0  0  0  0  0  0  0  0  0  0
   10.2759   -4.0036   17.8845 C   0  0  0  0  0  0  0  0  0  0  0  0
    8.5652    1.5478   25.3778 N   0  0  0  0  0  0  0  0  0  0  0  0
    6.8048   -7.5457   17.8752 C   0  0  0  0  0  0  0  0  0  0  0  0
    6.1721   -8.2186   15.9886 N   0  0  0  0  0  0  0  0  0  0  0  0
   11.1764   -2.6600   19.5604 C   0  0  0  0  0  0  0  0  0  0  0  0
    9.5491   -0.6380   24.1912 C   0  0  0  0  0  0  0  0  0  0  0  0
    7.5337   -6.9256   16.9519 C   0  0  0  0  0  0  0  0  0  0  0  0
    9.6782    0.5671   23.5143 C   0  0  0  0  0  0  0  0  0  0  0  0
    8.4532    0.3482   26.0821 C   0  0  0  0  0  0  0  0  0  0  0  0
   10.4239   -1.7677   22.2230 N   0  0  0  0  0  0  0  0  0  0  0  0
    9.9468   -4.5953   20.1709 C   0  0  0  0  0  0  0  0  0  0  0  0
   10.0366   -3.0590   23.9864 N   0  0  0  0  0  0  0  0  0  0  0  0
    7.1191   -7.3636   15.7739 C   0  0  0  0  0  0  0  0  0  0  0  0
    5.9612   -8.3203   17.2732 N   0  0  0  0  0  0  0  0  0  0  0  0
    8.5296   -5.9814   17.1841 C   0  0  0  0  0  0  0  0  0  0  0  0
    9.1527   -5.2118   16.2116 C   0  0  0  0  0  0  0  0  0  0  0  0
   10.3364   -3.8368   22.9255 O   0  0  0  0  0  0  0  0  0  0  0  0
    9.6947   -4.8407   18.8534 C   0  0  0  0  0  0  0  0  0  0  0  0
    9.1596    1.7042   24.1381 C   0  0  0  0  0  0  0  0  0  0  0  0
   11.0456   -2.9774   18.2694 N   0  0  0  0  0  0  0  0  0  0  0  0
   10.4788   -3.0457   21.8593 C   0  0  0  0  0  0  0  0  0  0  0  0
    8.8693   -5.8099   18.4657 N   0  0  0  0  0  0  0  0  0  0  0  0
    8.9892   -0.7926   25.4573 C   0  0  0  0  0  0  0  0  0  0  0  0
   10.5677   -3.4462   20.5323 C   0  0  0  0  0  0  0  0  0  0  0  0
  1  8  1  0
  1 12  4  0
  1 14  4  0
  2  3  4  0
  2 18  4  0
  3 20  4  0
  3 22  4  0
  4 11  4  0
  4 21  4  0
  5  9  4  0
  5 16  4  0
  6 15  4  0
  6 16  4  0
  7 22  4  0
  7 26  4  0
  8 10  4  0
  8 25  4  0
  9 15  4  0
  9 17  1  0
 10 21  4  0
 11 25  4  0
 12 23  4  0
 13 20  4  0
 13 26  4  0
 14 19  4  0
 17 18  4  0
 17 24  4  0
 19 23  4  0
 20 24  4  0
 23 26  1  0
M  END
$$$$

 Created by Python create_sdf_string function

 26 30  0  0  0  0  0  0  0  0999 V2000
   10.0084   -1.8019   23.4945 C   0  0  0  0  0  0  0  0  0  0  0  0
   10.0005   -4.2520   16.5631 C   0  0  0  0  0  0  0  0  0  0  0  0
   10.2759   -4.0036   17.8845 C   0  0  0  0  0  0  0  0  0  0  0  0
    8.5652    1.5478   25.3778 N   0  0  0  0  0  0  0  0  0  0  0  0
    6.8048   -7.5457   17.8752 C   0  0  0  0  0  0  0  0  0  0  0  0
    6.1721   -8.2186   15.9886 N   0  0  0  0  0  0  0  0  0  0  0  0
   11.1764   -2.6600   19.5604 C   0  0  0  0  0  0  0  0  0  0  0  0
    9.5491   -0.6380   24.1912 C   0  0  0  0  0  0  0  0  0  0  0  0
    7.5337   -6.9256   16.9519 C   0  0  0  0  0  0  0  0  0  0  0  0
    9.6782    0.5671   23.5143 C   0  0  0  0  0  0  0  0  0  0  0  0
    8.4532    0.3482   26.0821 C   0  0  0  0  0  0  0  0  0  0  0  0
   10.4239   -1.7677   22.2230 N   0  0  0  0  0  0  0  0  0  0  0  0
    9.9468   -4.5953   20.1709 C   0  0  0  0  0  0  0  0  0  0  0  0
   10.0366   -3.0590   23.9864 N   0  0  0  0  0  0  0  0  0  0  0  0
    7.1191   -7.3636   15.7739 C   0  0  0  0  0  0  0  0  0  0  0  0
    5.9612   -8.3203   17.2732 N   0  0  0  0  0  0  0  0  0  0  0  0
    8.5296   -5.9814   17.1841 C   0  0  0  0  0  0  0  0  0  0  0  0
    9.1527   -5.2118   16.2116 C   0  0  0  0  0  0  0  0  0  0  0  0
   10.3364   -3.8368   22.9255 O   0  0  0  0  0  0  0  0  0  0  0  0
    9.6947   -4.8407   18.8534 C   0  0  0  0  0  0  0  0  0  0  0  0
    9.1596    1.7042   24.1381 C   0  0  0  0  0  0  0  0  0  0  0  0
   11.0456   -2.9774   18.2694 N   0  0  0  0  0  0  0  0  0  0  0  0
   10.4788   -3.0457   21.8593 C   0  0  0  0  0  0  0  0  0  0  0  0
    8.8693   -5.8099   18.4657 N   0  0  0  0  0  0  0  0  0  0  0  0
    8.9892   -0.7926   25.4573 C   0  0  0  0  0  0  0  0  0  0  0  0
   10.5677   -3.4462   20.5323 C   0  0  0  0  0  0  0  0  0  0  0  0
  1  8  1  0
  1 12  4  0
  1 14  4  0
  2  3  4  0
  2 18  4  0
  3 20  4  0
  3 22  4  0
  4 11  4  0
  4 21  4  0
  5  9  4  0
  5 16  4  0
  6 15  4  0
  6 16  4  0
  7 22  4  0
  7 26  4  0
  8 10  4  0
  8 25  4  0
  9 15  4  0
  9 17  1  0
 10 21  4  0
 11 25  4  0
 12 23  4  0
 13 20  4  0
 13 26  4  0
 14 19  4  0
 17 18  4  0
 17 24  4  0
 19 23  4  0
 20 24  4  0
 23 26  1  0
M  END
$$$$

 Created by Python create_sdf_string function

 26 30  0  0  0  0  0  0  0  0999 V2000
   10.0084   -1.8019   23.4945 C   0  0  0  0  0  0  0  0  0  0  0  0
   10.0005   -4.2520   16.5631 C   0  0  0  0  0  0  0  0  0  0  0  0
   10.2759   -4.0036   17.8845 C   0  0  0  0  0  0  0  0  0  0  0  0
    8.5652    1.5478   25.3778 N   0  0  0  0  0  0  0  0  0  0  0  0
    6.8048   -7.5457   17.8752 C   0  0  0  0  0  0  0  0  0  0  0  0
    6.1721   -8.2186   15.9886 N   0  0  0  0  0  0  0  0  0  0  0  0
   11.1764   -2.6600   19.5604 C   0  0  0  0  0  0  0  0  0  0  0  0
    9.5491   -0.6380   24.1912 C   0  0  0  0  0  0  0  0  0  0  0  0
    7.5337   -6.9256   16.9519 C   0  0  0  0  0  0  0  0  0  0  0  0
    9.6782    0.5671   23.5143 C   0  0  0  0  0  0  0  0  0  0  0  0
    8.4532    0.3482   26.0821 C   0  0  0  0  0  0  0  0  0  0  0  0
   10.4239   -1.7677   22.2230 N   0  0  0  0  0  0  0  0  0  0  0  0
    9.9468   -4.5953   20.1709 C   0  0  0  0  0  0  0  0  0  0  0  0
   10.0366   -3.0590   23.9864 N   0  0  0  0  0  0  0  0  0  0  0  0
    7.1191   -7.3636   15.7739 C   0  0  0  0  0  0  0  0  0  0  0  0
    5.9612   -8.3203   17.2732 N   0  0  0  0  0  0  0  0  0  0  0  0
    8.5296   -5.9814   17.1841 C   0  0  0  0  0  0  0  0  0  0  0  0
    9.1527   -5.2118   16.2116 C   0  0  0  0  0  0  0  0  0  0  0  0
   10.3364   -3.8368   22.9255 O   0  0  0  0  0  0  0  0  0  0  0  0
    9.6947   -4.8407   18.8534 C   0  0  0  0  0  0  0  0  0  0  0  0
    9.1596    1.7042   24.1381 C   0  0  0  0  0  0  0  0  0  0  0  0
   11.0456   -2.9774   18.2694 N   0  0  0  0  0  0  0  0  0  0  0  0
   10.4788   -3.0457   21.8593 C   0  0  0  0  0  0  0  0  0  0  0  0
    8.8693   -5.8099   18.4657 N   0  0  0  0  0  0  0  0  0  0  0  0
    8.9892   -0.7926   25.4573 C   0  0  0  0  0  0  0  0  0  0  0  0
   10.5677   -3.4462   20.5323 C   0  0  0  0  0  0  0  0  0  0  0  0
  1  8  1  0
  1 12  4  0
  1 14  4  0
  2  3  4  0
  2 18  4  0
  3 20  4  0
  3 22  4  0
  4 11  4  0
  4 21  4  0
  5  9  4  0
  5 16  4  0
  6 15  4  0
  6 16  4  0
  7 22  4  0
  7 26  4  0
  8 10  4  0
  8 25  4  0
  9 15  4  0
  9 17  1  0
 10 21  4  0
 11 25  4  0
 12 23  4  0
 13 20  4  0
 13 26  4  0
 14 19  4  0
 17 18  4  0
 17 24  4  0
 19 23  4  0
 20 24  4  0
 23 26  1  0
M  END
$$$$

 Created by Python create_sdf_string function

 26 30  0  0  0  0  0  0  0  0999 V2000
   10.0084   -1.8019   23.4945 C   0  0  0  0  0  0  0  0  0  0  0  0
   10.0005   -4.2520   16.5631 C   0  0  0  0  0  0  0  0  0  0  0  0
   10.2759   -4.0036   17.8845 C   0  0  0  0  0  0  0  0  0  0  0  0
    8.5652    1.5478   25.3778 N   0  0  0  0  0  0  0  0  0  0  0  0
    6.8048   -7.5457   17.8752 C   0  0  0  0  0  0  0  0  0  0  0  0
    6.1721   -8.2186   15.9886 N   0  0  0  0  0  0  0  0  0  0  0  0
   11.1764   -2.6600   19.5604 C   0  0  0  0  0  0  0  0  0  0  0  0
    9.5491   -0.6380   24.1912 C   0  0  0  0  0  0  0  0  0  0  0  0
    7.5337   -6.9256   16.9519 C   0  0  0  0  0  0  0  0  0  0  0  0
    9.6782    0.5671   23.5143 C   0  0  0  0  0  0  0  0  0  0  0  0
    8.4532    0.3482   26.0821 C   0  0  0  0  0  0  0  0  0  0  0  0
   10.4239   -1.7677   22.2230 N   0  0  0  0  0  0  0  0  0  0  0  0
    9.9468   -4.5953   20.1709 C   0  0  0  0  0  0  0  0  0  0  0  0
   10.0366   -3.0590   23.9864 N   0  0  0  0  0  0  0  0  0  0  0  0
    7.1191   -7.3636   15.7739 C   0  0  0  0  0  0  0  0  0  0  0  0
    5.9612   -8.3203   17.2732 N   0  0  0  0  0  0  0  0  0  0  0  0
    8.5296   -5.9814   17.1841 C   0  0  0  0  0  0  0  0  0  0  0  0
    9.1527   -5.2118   16.2116 C   0  0  0  0  0  0  0  0  0  0  0  0
   10.3364   -3.8368   22.9255 O   0  0  0  0  0  0  0  0  0  0  0  0
    9.6947   -4.8407   18.8534 C   0  0  0  0  0  0  0  0  0  0  0  0
    9.1596    1.7042   24.1381 C   0  0  0  0  0  0  0  0  0  0  0  0
   11.0456   -2.9774   18.2694 N   0  0  0  0  0  0  0  0  0  0  0  0
   10.4788   -3.0457   21.8593 C   0  0  0  0  0  0  0  0  0  0  0  0
    8.8693   -5.8099   18.4657 N   0  0  0  0  0  0  0  0  0  0  0  0
    8.9892   -0.7926   25.4573 C   0  0  0  0  0  0  0  0  0  0  0  0
   10.5677   -3.4462   20.5323 C   0  0  0  0  0  0  0  0  0  0  0  0
  1  8  1  0
  1 12  4  0
  1 14  4  0
  2  3  4  0
  2 18  4  0
  3 20  4  0
  3 22  4  0
  4 11  4  0
  4 21  4  0
  5  9  4  0
  5 16  4  0
  6 15  4  0
  6 16  4  0
  7 22  4  0
  7 26  4  0
  8 10  4  0
  8 25  4  0
  9 15  4  0
  9 17  1  0
 10 21  4  0
 11 25  4  0
 12 23  4  0
 13 20  4  0
 13 26  4  0
 14 19  4  0
 17 18  4  0
 17 24  4  0
 19 23  4  0
 20 24  4  0
 23 26  1  0
M  END
$$$$

 Created by Python create_sdf_string function

 26 30  0  0  0  0  0  0  0  0999 V2000
   10.0084   -1.8019   23.4945 C   0  0  0  0  0  0  0  0  0  0  0  0
   10.0005   -4.2520   16.5631 C   0  0  0  0  0  0  0  0  0  0  0  0
   10.2759   -4.0036   17.8845 C   0  0  0  0  0  0  0  0  0  0  0  0
    8.5652    1.5478   25.3778 N   0  0  0  0  0  0  0  0  0  0  0  0
    6.8048   -7.5457   17.8752 C   0  0  0  0  0  0  0  0  0  0  0  0
    6.1721   -8.2186   15.9886 N   0  0  0  0  0  0  0  0  0  0  0  0
   11.1764   -2.6600   19.5604 C   0  0  0  0  0  0  0  0  0  0  0  0
    9.5491   -0.6380   24.1912 C   0  0  0  0  0  0  0  0  0  0  0  0
    7.5337   -6.9256   16.9519 C   0  0  0  0  0  0  0  0  0  0  0  0
    9.6782    0.5671   23.5143 C   0  0  0  0  0  0  0  0  0  0  0  0
    8.4532    0.3482   26.0821 C   0  0  0  0  0  0  0  0  0  0  0  0
   10.4239   -1.7677   22.2230 N   0  0  0  0  0  0  0  0  0  0  0  0
    9.9468   -4.5953   20.1709 C   0  0  0  0  0  0  0  0  0  0  0  0
   10.0366   -3.0590   23.9864 N   0  0  0  0  0  0  0  0  0  0  0  0
    7.1191   -7.3636   15.7739 C   0  0  0  0  0  0  0  0  0  0  0  0
    5.9612   -8.3203   17.2732 N   0  0  0  0  0  0  0  0  0  0  0  0
    8.5296   -5.9814   17.1841 C   0  0  0  0  0  0  0  0  0  0  0  0
    9.1527   -5.2118   16.2116 C   0  0  0  0  0  0  0  0  0  0  0  0
   10.3364   -3.8368   22.9255 O   0  0  0  0  0  0  0  0  0  0  0  0
    9.6947   -4.8407   18.8534 C   0  0  0  0  0  0  0  0  0  0  0  0
    9.1596    1.7042   24.1381 C   0  0  0  0  0  0  0  0  0  0  0  0
   11.0456   -2.9774   18.2694 N   0  0  0  0  0  0  0  0  0  0  0  0
   10.4788   -3.0457   21.8593 C   0  0  0  0  0  0  0  0  0  0  0  0
    8.8693   -5.8099   18.4657 N   0  0  0  0  0  0  0  0  0  0  0  0
    8.9892   -0.7926   25.4573 C   0  0  0  0  0  0  0  0  0  0  0  0
   10.5677   -3.4462   20.5323 C   0  0  0  0  0  0  0  0  0  0  0  0
  1  8  1  0
  1 12  4  0
  1 14  4  0
  2  3  4  0
  2 18  4  0
  3 20  4  0
  3 22  4  0
  4 11  4  0
  4 21  4  0
  5  9  4  0
  5 16  4  0
  6 15  4  0
  6 16  4  0
  7 22  4  0
  7 26  4  0
  8 10  4  0
  8 25  4  0
  9 15  4  0
  9 17  1  0
 10 21  4  0
 11 25  4  0
 12 23  4  0
 13 20  4  0
 13 26  4  0
 14 19  4  0
 17 18  4  0
 17 24  4  0
 19 23  4  0
 20 24  4  0
 23 26  1  0
M  END
$$$$

 Created by Python create_sdf_string function

 26 30  0  0  0  0  0  0  0  0999 V2000
   10.0084   -1.8019   23.4945 C   0  0  0  0  0  0  0  0  0  0  0  0
   10.0005   -4.2520   16.5631 C   0  0  0  0  0  0  0  0  0  0  0  0
   10.2759   -4.0036   17.8845 C   0  0  0  0  0  0  0  0  0  0  0  0
    8.5652    1.5478   25.3778 N   0  0  0  0  0  0  0  0  0  0  0  0
    6.8048   -7.5457   17.8752 C   0  0  0  0  0  0  0  0  0  0  0  0
    6.1721   -8.2186   15.9886 N   0  0  0  0  0  0  0  0  0  0  0  0
   11.1764   -2.6600   19.5604 C   0  0  0  0  0  0  0  0  0  0  0  0
    9.5491   -0.6380   24.1912 C   0  0  0  0  0  0  0  0  0  0  0  0
    7.5337   -6.9256   16.9519 C   0  0  0  0  0  0  0  0  0  0  0  0
    9.6782    0.5671   23.5143 C   0  0  0  0  0  0  0  0  0  0  0  0
    8.4532    0.3482   26.0821 C   0  0  0  0  0  0  0  0  0  0  0  0
   10.4239   -1.7677   22.2230 N   0  0  0  0  0  0  0  0  0  0  0  0
    9.9468   -4.5953   20.1709 C   0  0  0  0  0  0  0  0  0  0  0  0
   10.0366   -3.0590   23.9864 N   0  0  0  0  0  0  0  0  0  0  0  0
    7.1191   -7.3636   15.7739 C   0  0  0  0  0  0  0  0  0  0  0  0
    5.9612   -8.3203   17.2732 N   0  0  0  0  0  0  0  0  0  0  0  0
    8.5296   -5.9814   17.1841 C   0  0  0  0  0  0  0  0  0  0  0  0
    9.1527   -5.2118   16.2116 C   0  0  0  0  0  0  0  0  0  0  0  0
   10.3364   -3.8368   22.9255 O   0  0  0  0  0  0  0  0  0  0  0  0
    9.6947   -4.8407   18.8534 C   0  0  0  0  0  0  0  0  0  0  0  0
    9.1596    1.7042   24.1381 C   0  0  0  0  0  0  0  0  0  0  0  0
   11.0456   -2.9774   18.2694 N   0  0  0  0  0  0  0  0  0  0  0  0
   10.4788   -3.0457   21.8593 C   0  0  0  0  0  0  0  0  0  0  0  0
    8.8693   -5.8099   18.4657 N   0  0  0  0  0  0  0  0  0  0  0  0
    8.9892   -0.7926   25.4573 C   0  0  0  0  0  0  0  0  0  0  0  0
   10.5677   -3.4462   20.5323 C   0  0  0  0  0  0  0  0  0  0  0  0
  1  8  1  0
  1 12  4  0
  1 14  4  0
  2  3  4  0
  2 18  4  0
  3 20  4  0
  3 22  4  0
  4 11  4  0
  4 21  4  0
  5  9  4  0
  5 16  4  0
  6 15  4  0
  6 16  4  0
  7 22  4  0
  7 26  4  0
  8 10  4  0
  8 25  4  0
  9 15  4  0
  9 17  1  0
 10 21  4  0
 11 25  4  0
 12 23  4  0
 13 20  4  0
 13 26  4  0
 14 19  4  0
 17 18  4  0
 17 24  4  0
 19 23  4  0
 20 24  4  0
 23 26  1  0
M  END
$$$$

 Created by Python create_sdf_string function

 26 30  0  0  0  0  0  0  0  0999 V2000
   10.0084   -1.8019   23.4945 C   0  0  0  0  0  0  0  0  0  0  0  0
   10.0005   -4.2520   16.5631 C   0  0  0  0  0  0  0  0  0  0  0  0
   10.2759   -4.0036   17.8845 C   0  0  0  0  0  0  0  0  0  0  0  0
    8.5652    1.5478   25.3778 N   0  0  0  0  0  0  0  0  0  0  0  0
    6.8048   -7.5457   17.8752 C   0  0  0  0  0  0  0  0  0  0  0  0
    6.1721   -8.2186   15.9886 N   0  0  0  0  0  0  0  0  0  0  0  0
   11.1764   -2.6600   19.5604 C   0  0  0  0  0  0  0  0  0  0  0  0
    9.5491   -0.6380   24.1912 C   0  0  0  0  0  0  0  0  0  0  0  0
    7.5337   -6.9256   16.9519 C   0  0  0  0  0  0  0  0  0  0  0  0
    9.6782    0.5671   23.5143 C   0  0  0  0  0  0  0  0  0  0  0  0
    8.4532    0.3482   26.0821 C   0  0  0  0  0  0  0  0  0  0  0  0
   10.4239   -1.7677   22.2230 N   0  0  0  0  0  0  0  0  0  0  0  0
    9.9468   -4.5953   20.1709 C   0  0  0  0  0  0  0  0  0  0  0  0
   10.0366   -3.0590   23.9864 N   0  0  0  0  0  0  0  0  0  0  0  0
    7.1191   -7.3636   15.7739 C   0  0  0  0  0  0  0  0  0  0  0  0
    5.9612   -8.3203   17.2732 N   0  0  0  0  0  0  0  0  0  0  0  0
    8.5296   -5.9814   17.1841 C   0  0  0  0  0  0  0  0  0  0  0  0
    9.1527   -5.2118   16.2116 C   0  0  0  0  0  0  0  0  0  0  0  0
   10.3364   -3.8368   22.9255 O   0  0  0  0  0  0  0  0  0  0  0  0
    9.6947   -4.8407   18.8534 C   0  0  0  0  0  0  0  0  0  0  0  0
    9.1596    1.7042   24.1381 C   0  0  0  0  0  0  0  0  0  0  0  0
   11.0456   -2.9774   18.2694 N   0  0  0  0  0  0  0  0  0  0  0  0
   10.4788   -3.0457   21.8593 C   0  0  0  0  0  0  0  0  0  0  0  0
    8.8693   -5.8099   18.4657 N   0  0  0  0  0  0  0  0  0  0  0  0
    8.9892   -0.7926   25.4573 C   0  0  0  0  0  0  0  0  0  0  0  0
   10.5677   -3.4462   20.5323 C   0  0  0  0  0  0  0  0  0  0  0  0
  1  8  1  0
  1 12  4  0
  1 14  4  0
  2  3  4  0
  2 18  4  0
  3 20  4  0
  3 22  4  0
  4 11  4  0
  4 21  4  0
  5  9  4  0
  5 16  4  0
  6 15  4  0
  6 16  4  0
  7 22  4  0
  7 26  4  0
  8 10  4  0
  8 25  4  0
  9 15  4  0
  9 17  1  0
 10 21  4  0
 11 25  4  0
 12 23  4  0
 13 20  4  0
 13 26  4  0
 14 19  4  0
 17 18  4  0
 17 24  4  0
 19 23  4  0
 20 24  4  0
 23 26  1  0
M  END
$$$$

 Created by Python create_sdf_string function

 26 30  0  0  0  0  0  0  0  0999 V2000
   10.0084   -1.8019   23.4945 C   0  0  0  0  0  0  0  0  0  0  0  0
   10.0005   -4.2520   16.5631 C   0  0  0  0  0  0  0  0  0  0  0  0
   10.2759   -4.0036   17.8845 C   0  0  0  0  0  0  0  0  0  0  0  0
    8.5652    1.5478   25.3778 N   0  0  0  0  0  0  0  0  0  0  0  0
    6.8048   -7.5457   17.8752 C   0  0  0  0  0  0  0  0  0  0  0  0
    6.1721   -8.2186   15.9886 N   0  0  0  0  0  0  0  0  0  0  0  0
   11.1764   -2.6600   19.5604 C   0  0  0  0  0  0  0  0  0  0  0  0
    9.5491   -0.6380   24.1912 C   0  0  0  0  0  0  0  0  0  0  0  0
    7.5337   -6.9256   16.9519 C   0  0  0  0  0  0  0  0  0  0  0  0
    9.6782    0.5671   23.5143 C   0  0  0  0  0  0  0  0  0  0  0  0
    8.4532    0.3482   26.0821 C   0  0  0  0  0  0  0  0  0  0  0  0
   10.4239   -1.7677   22.2230 N   0  0  0  0  0  0  0  0  0  0  0  0
    9.9468   -4.5953   20.1709 C   0  0  0  0  0  0  0  0  0  0  0  0
   10.0366   -3.0590   23.9864 N   0  0  0  0  0  0  0  0  0  0  0  0
    7.1191   -7.3636   15.7739 C   0  0  0  0  0  0  0  0  0  0  0  0
    5.9612   -8.3203   17.2732 N   0  0  0  0  0  0  0  0  0  0  0  0
    8.5296   -5.9814   17.1841 C   0  0  0  0  0  0  0  0  0  0  0  0
    9.1527   -5.2118   16.2116 C   0  0  0  0  0  0  0  0  0  0  0  0
   10.3364   -3.8368   22.9255 O   0  0  0  0  0  0  0  0  0  0  0  0
    9.6947   -4.8407   18.8534 C   0  0  0  0  0  0  0  0  0  0  0  0
    9.1596    1.7042   24.1381 C   0  0  0  0  0  0  0  0  0  0  0  0
   11.0456   -2.9774   18.2694 N   0  0  0  0  0  0  0  0  0  0  0  0
   10.4788   -3.0457   21.8593 C   0  0  0  0  0  0  0  0  0  0  0  0
    8.8693   -5.8099   18.4657 N   0  0  0  0  0  0  0  0  0  0  0  0
    8.9892   -0.7926   25.4573 C   0  0  0  0  0  0  0  0  0  0  0  0
   10.5677   -3.4462   20.5323 C   0  0  0  0  0  0  0  0  0  0  0  0
  1  8  1  0
  1 12  4  0
  1 14  4  0
  2  3  4  0
  2 18  4  0
  3 20  4  0
  3 22  4  0
  4 11  4  0
  4 21  4  0
  5  9  4  0
  5 16  4  0
  6 15  4  0
  6 16  4  0
  7 22  4  0
  7 26  4  0
  8 10  4  0
  8 25  4  0
  9 15  4  0
  9 17  1  0
 10 21  4  0
 11 25  4  0
 12 23  4  0
 13 20  4  0
 13 26  4  0
 14 19  4  0
 17 18  4  0
 17 24  4  0
 19 23  4  0
 20 24  4  0
 23 26  1  0
M  END
$$$$

 Created by Python create_sdf_string function

 26 30  0  0  0  0  0  0  0  0999 V2000
   10.0084   -1.8019   23.4945 C   0  0  0  0  0  0  0  0  0  0  0  0
   10.0005   -4.2520   16.5631 C   0  0  0  0  0  0  0  0  0  0  0  0
   10.2759   -4.0036   17.8845 C   0  0  0  0  0  0  0  0  0  0  0  0
    8.5652    1.5478   25.3778 N   0  0  0  0  0  0  0  0  0  0  0  0
    6.8048   -7.5457   17.8752 C   0  0  0  0  0  0  0  0  0  0  0  0
    6.1721   -8.2186   15.9886 N   0  0  0  0  0  0  0  0  0  0  0  0
   11.1764   -2.6600   19.5604 C   0  0  0  0  0  0  0  0  0  0  0  0
    9.5491   -0.6380   24.1912 C   0  0  0  0  0  0  0  0  0  0  0  0
    7.5337   -6.9256   16.9519 C   0  0  0  0  0  0  0  0  0  0  0  0
    9.6782    0.5671   23.5143 C   0  0  0  0  0  0  0  0  0  0  0  0
    8.4532    0.3482   26.0821 C   0  0  0  0  0  0  0  0  0  0  0  0
   10.4239   -1.7677   22.2230 N   0  0  0  0  0  0  0  0  0  0  0  0
    9.9468   -4.5953   20.1709 C   0  0  0  0  0  0  0  0  0  0  0  0
   10.0366   -3.0590   23.9864 N   0  0  0  0  0  0  0  0  0  0  0  0
    7.1191   -7.3636   15.7739 C   0  0  0  0  0  0  0  0  0  0  0  0
    5.9612   -8.3203   17.2732 N   0  0  0  0  0  0  0  0  0  0  0  0
    8.5296   -5.9814   17.1841 C   0  0  0  0  0  0  0  0  0  0  0  0
    9.1527   -5.2118   16.2116 C   0  0  0  0  0  0  0  0  0  0  0  0
   10.3364   -3.8368   22.9255 O   0  0  0  0  0  0  0  0  0  0  0  0
    9.6947   -4.8407   18.8534 C   0  0  0  0  0  0  0  0  0  0  0  0
    9.1596    1.7042   24.1381 C   0  0  0  0  0  0  0  0  0  0  0  0
   11.0456   -2.9774   18.2694 N   0  0  0  0  0  0  0  0  0  0  0  0
   10.4788   -3.0457   21.8593 C   0  0  0  0  0  0  0  0  0  0  0  0
    8.8693   -5.8099   18.4657 N   0  0  0  0  0  0  0  0  0  0  0  0
    8.9892   -0.7926   25.4573 C   0  0  0  0  0  0  0  0  0  0  0  0
   10.5677   -3.4462   20.5323 C   0  0  0  0  0  0  0  0  0  0  0  0
  1  8  1  0
  1 12  4  0
  1 14  4  0
  2  3  4  0
  2 18  4  0
  3 20  4  0
  3 22  4  0
  4 11  4  0
  4 21  4  0
  5  9  4  0
  5 16  4  0
  6 15  4  0
  6 16  4  0
  7 22  4  0
  7 26  4  0
  8 10  4  0
  8 25  4  0
  9 15  4  0
  9 17  1  0
 10 21  4  0
 11 25  4  0
 12 23  4  0
 13 20  4  0
 13 26  4  0
 14 19  4  0
 17 18  4  0
 17 24  4  0
 19 23  4  0
 20 24  4  0
 23 26  1  0
M  END
$$$$

 Created by Python create_sdf_string function

 26 30  0  0  0  0  0  0  0  0999 V2000
   10.0084   -1.8019   23.4945 C   0  0  0  0  0  0  0  0  0  0  0  0
   10.0005   -4.2520   16.5631 C   0  0  0  0  0  0  0  0  0  0  0  0
   10.2759   -4.0036   17.8845 C   0  0  0  0  0  0  0  0  0  0  0  0
    8.5652    1.5478   25.3778 N   0  0  0  0  0  0  0  0  0  0  0  0
    6.8048   -7.5457   17.8752 C   0  0  0  0  0  0  0  0  0  0  0  0
    6.1721   -8.2186   15.9886 N   0  0  0  0  0  0  0  0  0  0  0  0
   11.1764   -2.6600   19.5604 C   0  0  0  0  0  0  0  0  0  0  0  0
    9.5491   -0.6380   24.1912 C   0  0  0  0  0  0  0  0  0  0  0  0
    7.5337   -6.9256   16.9519 C   0  0  0  0  0  0  0  0  0  0  0  0
    9.6782    0.5671   23.5143 C   0  0  0  0  0  0  0  0  0  0  0  0
    8.4532    0.3482   26.0821 C   0  0  0  0  0  0  0  0  0  0  0  0
   10.4239   -1.7677   22.2230 N   0  0  0  0  0  0  0  0  0  0  0  0
    9.9468   -4.5953   20.1709 C   0  0  0  0  0  0  0  0  0  0  0  0
   10.0366   -3.0590   23.9864 N   0  0  0  0  0  0  0  0  0  0  0  0
    7.1191   -7.3636   15.7739 C   0  0  0  0  0  0  0  0  0  0  0  0
    5.9612   -8.3203   17.2732 N   0  0  0  0  0  0  0  0  0  0  0  0
    8.5296   -5.9814   17.1841 C   0  0  0  0  0  0  0  0  0  0  0  0
    9.1527   -5.2118   16.2116 C   0  0  0  0  0  0  0  0  0  0  0  0
   10.3364   -3.8368   22.9255 O   0  0  0  0  0  0  0  0  0  0  0  0
    9.6947   -4.8407   18.8534 C   0  0  0  0  0  0  0  0  0  0  0  0
    9.1596    1.7042   24.1381 C   0  0  0  0  0  0  0  0  0  0  0  0
   11.0456   -2.9774   18.2694 N   0  0  0  0  0  0  0  0  0  0  0  0
   10.4788   -3.0457   21.8593 C   0  0  0  0  0  0  0  0  0  0  0  0
    8.8693   -5.8099   18.4657 N   0  0  0  0  0  0  0  0  0  0  0  0
    8.9892   -0.7926   25.4573 C   0  0  0  0  0  0  0  0  0  0  0  0
   10.5677   -3.4462   20.5323 C   0  0  0  0  0  0  0  0  0  0  0  0
  1  8  1  0
  1 12  4  0
  1 14  4  0
  2  3  4  0
  2 18  4  0
  3 20  4  0
  3 22  4  0
  4 11  4  0
  4 21  4  0
  5  9  4  0
  5 16  4  0
  6 15  4  0
  6 16  4  0
  7 22  4  0
  7 26  4  0
  8 10  4  0
  8 25  4  0
  9 15  4  0
  9 17  1  0
 10 21  4  0
 11 25  4  0
 12 23  4  0
 13 20  4  0
 13 26  4  0
 14 19  4  0
 17 18  4  0
 17 24  4  0
 19 23  4  0
 20 24  4  0
 23 26  1  0
M  END
$$$$

 Created by Python create_sdf_string function

 26 30  0  0  0  0  0  0  0  0999 V2000
   10.0084   -1.8019   23.4945 C   0  0  0  0  0  0  0  0  0  0  0  0
   10.0005   -4.2520   16.5631 C   0  0  0  0  0  0  0  0  0  0  0  0
   10.2759   -4.0036   17.8845 C   0  0  0  0  0  0  0  0  0  0  0  0
    8.5652    1.5478   25.3778 N   0  0  0  0  0  0  0  0  0  0  0  0
    6.8048   -7.5457   17.8752 C   0  0  0  0  0  0  0  0  0  0  0  0
    6.1721   -8.2186   15.9886 N   0  0  0  0  0  0  0  0  0  0  0  0
   11.1764   -2.6600   19.5604 C   0  0  0  0  0  0  0  0  0  0  0  0
    9.5491   -0.6380   24.1912 C   0  0  0  0  0  0  0  0  0  0  0  0
    7.5337   -6.9256   16.9519 C   0  0  0  0  0  0  0  0  0  0  0  0
    9.6782    0.5671   23.5143 C   0  0  0  0  0  0  0  0  0  0  0  0
    8.4532    0.3482   26.0821 C   0  0  0  0  0  0  0  0  0  0  0  0
   10.4239   -1.7677   22.2230 N   0  0  0  0  0  0  0  0  0  0  0  0
    9.9468   -4.5953   20.1709 C   0  0  0  0  0  0  0  0  0  0  0  0
   10.0366   -3.0590   23.9864 N   0  0  0  0  0  0  0  0  0  0  0  0
    7.1191   -7.3636   15.7739 C   0  0  0  0  0  0  0  0  0  0  0  0
    5.9612   -8.3203   17.2732 N   0  0  0  0  0  0  0  0  0  0  0  0
    8.5296   -5.9814   17.1841 C   0  0  0  0  0  0  0  0  0  0  0  0
    9.1527   -5.2118   16.2116 C   0  0  0  0  0  0  0  0  0  0  0  0
   10.3364   -3.8368   22.9255 O   0  0  0  0  0  0  0  0  0  0  0  0
    9.6947   -4.8407   18.8534 C   0  0  0  0  0  0  0  0  0  0  0  0
    9.1596    1.7042   24.1381 C   0  0  0  0  0  0  0  0  0  0  0  0
   11.0456   -2.9774   18.2694 N   0  0  0  0  0  0  0  0  0  0  0  0
   10.4788   -3.0457   21.8593 C   0  0  0  0  0  0  0  0  0  0  0  0
    8.8693   -5.8099   18.4657 N   0  0  0  0  0  0  0  0  0  0  0  0
    8.9892   -0.7926   25.4573 C   0  0  0  0  0  0  0  0  0  0  0  0
   10.5677   -3.4462   20.5323 C   0  0  0  0  0  0  0  0  0  0  0  0
  1  8  1  0
  1 12  4  0
  1 14  4  0
  2  3  4  0
  2 18  4  0
  3 20  4  0
  3 22  4  0
  4 11  4  0
  4 21  4  0
  5  9  4  0
  5 16  4  0
  6 15  4  0
  6 16  4  0
  7 22  4  0
  7 26  4  0
  8 10  4  0
  8 25  4  0
  9 15  4  0
  9 17  1  0
 10 21  4  0
 11 25  4  0
 12 23  4  0
 13 20  4  0
 13 26  4  0
 14 19  4  0
 17 18  4  0
 17 24  4  0
 19 23  4  0
 20 24  4  0
 23 26  1  0
M  END
$$$$

 Created by Python create_sdf_string function

 26 30  0  0  0  0  0  0  0  0999 V2000
   10.0084   -1.8019   23.4945 C   0  0  0  0  0  0  0  0  0  0  0  0
   10.0005   -4.2520   16.5631 C   0  0  0  0  0  0  0  0  0  0  0  0
   10.2759   -4.0036   17.8845 C   0  0  0  0  0  0  0  0  0  0  0  0
    8.5652    1.5478   25.3778 N   0  0  0  0  0  0  0  0  0  0  0  0
    6.8048   -7.5457   17.8752 C   0  0  0  0  0  0  0  0  0  0  0  0
    6.1721   -8.2186   15.9886 N   0  0  0  0  0  0  0  0  0  0  0  0
   11.1764   -2.6600   19.5604 C   0  0  0  0  0  0  0  0  0  0  0  0
    9.5491   -0.6380   24.1912 C   0  0  0  0  0  0  0  0  0  0  0  0
    7.5337   -6.9256   16.9519 C   0  0  0  0  0  0  0  0  0  0  0  0
    9.6782    0.5671   23.5143 C   0  0  0  0  0  0  0  0  0  0  0  0
    8.4532    0.3482   26.0821 C   0  0  0  0  0  0  0  0  0  0  0  0
   10.4239   -1.7677   22.2230 N   0  0  0  0  0  0  0  0  0  0  0  0
    9.9468   -4.5953   20.1709 C   0  0  0  0  0  0  0  0  0  0  0  0
   10.0366   -3.0590   23.9864 N   0  0  0  0  0  0  0  0  0  0  0  0
    7.1191   -7.3636   15.7739 C   0  0  0  0  0  0  0  0  0  0  0  0
    5.9612   -8.3203   17.2732 N   0  0  0  0  0  0  0  0  0  0  0  0
    8.5296   -5.9814   17.1841 C   0  0  0  0  0  0  0  0  0  0  0  0
    9.1527   -5.2118   16.2116 C   0  0  0  0  0  0  0  0  0  0  0  0
   10.3364   -3.8368   22.9255 O   0  0  0  0  0  0  0  0  0  0  0  0
    9.6947   -4.8407   18.8534 C   0  0  0  0  0  0  0  0  0  0  0  0
    9.1596    1.7042   24.1381 C   0  0  0  0  0  0  0  0  0  0  0  0
   11.0456   -2.9774   18.2694 N   0  0  0  0  0  0  0  0  0  0  0  0
   10.4788   -3.0457   21.8593 C   0  0  0  0  0  0  0  0  0  0  0  0
    8.8693   -5.8099   18.4657 N   0  0  0  0  0  0  0  0  0  0  0  0
    8.9892   -0.7926   25.4573 C   0  0  0  0  0  0  0  0  0  0  0  0
   10.5677   -3.4462   20.5323 C   0  0  0  0  0  0  0  0  0  0  0  0
  1  8  1  0
  1 12  4  0
  1 14  4  0
  2  3  4  0
  2 18  4  0
  3 20  4  0
  3 22  4  0
  4 11  4  0
  4 21  4  0
  5  9  4  0
  5 16  4  0
  6 15  4  0
  6 16  4  0
  7 22  4  0
  7 26  4  0
  8 10  4  0
  8 25  4  0
  9 15  4  0
  9 17  1  0
 10 21  4  0
 11 25  4  0
 12 23  4  0
 13 20  4  0
 13 26  4  0
 14 19  4  0
 17 18  4  0
 17 24  4  0
 19 23  4  0
 20 24  4  0
 23 26  1  0
M  END
$$$$

 Created by Python create_sdf_string function

 26 30  0  0  0  0  0  0  0  0999 V2000
   10.0084   -1.8019   23.4945 C   0  0  0  0  0  0  0  0  0  0  0  0
   10.0005   -4.2520   16.5631 C   0  0  0  0  0  0  0  0  0  0  0  0
   10.2759   -4.0036   17.8845 C   0  0  0  0  0  0  0  0  0  0  0  0
    8.5652    1.5478   25.3778 N   0  0  0  0  0  0  0  0  0  0  0  0
    6.8048   -7.5457   17.8752 C   0  0  0  0  0  0  0  0  0  0  0  0
    6.1721   -8.2186   15.9886 N   0  0  0  0  0  0  0  0  0  0  0  0
   11.1764   -2.6600   19.5604 C   0  0  0  0  0  0  0  0  0  0  0  0
    9.5491   -0.6380   24.1912 C   0  0  0  0  0  0  0  0  0  0  0  0
    7.5337   -6.9256   16.9519 C   0  0  0  0  0  0  0  0  0  0  0  0
    9.6782    0.5671   23.5143 C   0  0  0  0  0  0  0  0  0  0  0  0
    8.4532    0.3482   26.0821 C   0  0  0  0  0  0  0  0  0  0  0  0
   10.4239   -1.7677   22.2230 N   0  0  0  0  0  0  0  0  0  0  0  0
    9.9468   -4.5953   20.1709 C   0  0  0  0  0  0  0  0  0  0  0  0
   10.0366   -3.0590   23.9864 N   0  0  0  0  0  0  0  0  0  0  0  0
    7.1191   -7.3636   15.7739 C   0  0  0  0  0  0  0  0  0  0  0  0
    5.9612   -8.3203   17.2732 N   0  0  0  0  0  0  0  0  0  0  0  0
    8.5296   -5.9814   17.1841 C   0  0  0  0  0  0  0  0  0  0  0  0
    9.1527   -5.2118   16.2116 C   0  0  0  0  0  0  0  0  0  0  0  0
   10.3364   -3.8368   22.9255 O   0  0  0  0  0  0  0  0  0  0  0  0
    9.6947   -4.8407   18.8534 C   0  0  0  0  0  0  0  0  0  0  0  0
    9.1596    1.7042   24.1381 C   0  0  0  0  0  0  0  0  0  0  0  0
   11.0456   -2.9774   18.2694 N   0  0  0  0  0  0  0  0  0  0  0  0
   10.4788   -3.0457   21.8593 C   0  0  0  0  0  0  0  0  0  0  0  0
    8.8693   -5.8099   18.4657 N   0  0  0  0  0  0  0  0  0  0  0  0
    8.9892   -0.7926   25.4573 C   0  0  0  0  0  0  0  0  0  0  0  0
   10.5677   -3.4462   20.5323 C   0  0  0  0  0  0  0  0  0  0  0  0
  1  8  1  0
  1 12  4  0
  1 14  4  0
  2  3  4  0
  2 18  4  0
  3 20  4  0
  3 22  4  0
  4 11  4  0
  4 21  4  0
  5  9  4  0
  5 16  4  0
  6 15  4  0
  6 16  4  0
  7 22  4  0
  7 26  4  0
  8 10  4  0
  8 25  4  0
  9 15  4  0
  9 17  1  0
 10 21  4  0
 11 25  4  0
 12 23  4  0
 13 20  4  0
 13 26  4  0
 14 19  4  0
 17 18  4  0
 17 24  4  0
 19 23  4  0
 20 24  4  0
 23 26  1  0
M  END
$$$$

 Created by Python create_sdf_string function

 26 30  0  0  0  0  0  0  0  0999 V2000
   10.0084   -1.8019   23.4945 C   0  0  0  0  0  0  0  0  0  0  0  0
   10.0005   -4.2520   16.5631 C   0  0  0  0  0  0  0  0  0  0  0  0
   10.2759   -4.0036   17.8845 C   0  0  0  0  0  0  0  0  0  0  0  0
    8.5652    1.5478   25.3778 N   0  0  0  0  0  0  0  0  0  0  0  0
    6.8048   -7.5457   17.8752 C   0  0  0  0  0  0  0  0  0  0  0  0
    6.1721   -8.2186   15.9886 N   0  0  0  0  0  0  0  0  0  0  0  0
   11.1764   -2.6600   19.5604 C   0  0  0  0  0  0  0  0  0  0  0  0
    9.5491   -0.6380   24.1912 C   0  0  0  0  0  0  0  0  0  0  0  0
    7.5337   -6.9256   16.9519 C   0  0  0  0  0  0  0  0  0  0  0  0
    9.6782    0.5671   23.5143 C   0  0  0  0  0  0  0  0  0  0  0  0
    8.4532    0.3482   26.0821 C   0  0  0  0  0  0  0  0  0  0  0  0
   10.4239   -1.7677   22.2230 N   0  0  0  0  0  0  0  0  0  0  0  0
    9.9468   -4.5953   20.1709 C   0  0  0  0  0  0  0  0  0  0  0  0
   10.0366   -3.0590   23.9864 N   0  0  0  0  0  0  0  0  0  0  0  0
    7.1191   -7.3636   15.7739 C   0  0  0  0  0  0  0  0  0  0  0  0
    5.9612   -8.3203   17.2732 N   0  0  0  0  0  0  0  0  0  0  0  0
    8.5296   -5.9814   17.1841 C   0  0  0  0  0  0  0  0  0  0  0  0
    9.1527   -5.2118   16.2116 C   0  0  0  0  0  0  0  0  0  0  0  0
   10.3364   -3.8368   22.9255 O   0  0  0  0  0  0  0  0  0  0  0  0
    9.6947   -4.8407   18.8534 C   0  0  0  0  0  0  0  0  0  0  0  0
    9.1596    1.7042   24.1381 C   0  0  0  0  0  0  0  0  0  0  0  0
   11.0456   -2.9774   18.2694 N   0  0  0  0  0  0  0  0  0  0  0  0
   10.4788   -3.0457   21.8593 C   0  0  0  0  0  0  0  0  0  0  0  0
    8.8693   -5.8099   18.4657 N   0  0  0  0  0  0  0  0  0  0  0  0
    8.9892   -0.7926   25.4573 C   0  0  0  0  0  0  0  0  0  0  0  0
   10.5677   -3.4462   20.5323 C   0  0  0  0  0  0  0  0  0  0  0  0
  1  8  1  0
  1 12  4  0
  1 14  4  0
  2  3  4  0
  2 18  4  0
  3 20  4  0
  3 22  4  0
  4 11  4  0
  4 21  4  0
  5  9  4  0
  5 16  4  0
  6 15  4  0
  6 16  4  0
  7 22  4  0
  7 26  4  0
  8 10  4  0
  8 25  4  0
  9 15  4  0
  9 17  1  0
 10 21  4  0
 11 25  4  0
 12 23  4  0
 13 20  4  0
 13 26  4  0
 14 19  4  0
 17 18  4  0
 17 24  4  0
 19 23  4  0
 20 24  4  0
 23 26  1  0
M  END
$$$$

 Created by Python create_sdf_string function

 26 30  0  0  0  0  0  0  0  0999 V2000
   10.0084   -1.8019   23.4945 C   0  0  0  0  0  0  0  0  0  0  0  0
   10.0005   -4.2520   16.5631 C   0  0  0  0  0  0  0  0  0  0  0  0
   10.2759   -4.0036   17.8845 C   0  0  0  0  0  0  0  0  0  0  0  0
    8.5652    1.5478   25.3778 N   0  0  0  0  0  0  0  0  0  0  0  0
    6.8048   -7.5457   17.8752 C   0  0  0  0  0  0  0  0  0  0  0  0
    6.1721   -8.2186   15.9886 N   0  0  0  0  0  0  0  0  0  0  0  0
   11.1764   -2.6600   19.5604 C   0  0  0  0  0  0  0  0  0  0  0  0
    9.5491   -0.6380   24.1912 C   0  0  0  0  0  0  0  0  0  0  0  0
    7.5337   -6.9256   16.9519 C   0  0  0  0  0  0  0  0  0  0  0  0
    9.6782    0.5671   23.5143 C   0  0  0  0  0  0  0  0  0  0  0  0
    8.4532    0.3482   26.0821 C   0  0  0  0  0  0  0  0  0  0  0  0
   10.4239   -1.7677   22.2230 N   0  0  0  0  0  0  0  0  0  0  0  0
    9.9468   -4.5953   20.1709 C   0  0  0  0  0  0  0  0  0  0  0  0
   10.0366   -3.0590   23.9864 N   0  0  0  0  0  0  0  0  0  0  0  0
    7.1191   -7.3636   15.7739 C   0  0  0  0  0  0  0  0  0  0  0  0
    5.9612   -8.3203   17.2732 N   0  0  0  0  0  0  0  0  0  0  0  0
    8.5296   -5.9814   17.1841 C   0  0  0  0  0  0  0  0  0  0  0  0
    9.1527   -5.2118   16.2116 C   0  0  0  0  0  0  0  0  0  0  0  0
   10.3364   -3.8368   22.9255 O   0  0  0  0  0  0  0  0  0  0  0  0
    9.6947   -4.8407   18.8534 C   0  0  0  0  0  0  0  0  0  0  0  0
    9.1596    1.7042   24.1381 C   0  0  0  0  0  0  0  0  0  0  0  0
   11.0456   -2.9774   18.2694 N   0  0  0  0  0  0  0  0  0  0  0  0
   10.4788   -3.0457   21.8593 C   0  0  0  0  0  0  0  0  0  0  0  0
    8.8693   -5.8099   18.4657 N   0  0  0  0  0  0  0  0  0  0  0  0
    8.9892   -0.7926   25.4573 C   0  0  0  0  0  0  0  0  0  0  0  0
   10.5677   -3.4462   20.5323 C   0  0  0  0  0  0  0  0  0  0  0  0
  1  8  1  0
  1 12  4  0
  1 14  4  0
  2  3  4  0
  2 18  4  0
  3 20  4  0
  3 22  4  0
  4 11  4  0
  4 21  4  0
  5  9  4  0
  5 16  4  0
  6 15  4  0
  6 16  4  0
  7 22  4  0
  7 26  4  0
  8 10  4  0
  8 25  4  0
  9 15  4  0
  9 17  1  0
 10 21  4  0
 11 25  4  0
 12 23  4  0
 13 20  4  0
 13 26  4  0
 14 19  4  0
 17 18  4  0
 17 24  4  0
 19 23  4  0
 20 24  4  0
 23 26  1  0
M  END
$$$$

 Created by Python create_sdf_string function

 26 30  0  0  0  0  0  0  0  0999 V2000
   10.0084   -1.8019   23.4945 C   0  0  0  0  0  0  0  0  0  0  0  0
   10.0005   -4.2520   16.5631 C   0  0  0  0  0  0  0  0  0  0  0  0
   10.2759   -4.0036   17.8845 C   0  0  0  0  0  0  0  0  0  0  0  0
    8.5652    1.5478   25.3778 N   0  0  0  0  0  0  0  0  0  0  0  0
    6.8048   -7.5457   17.8752 C   0  0  0  0  0  0  0  0  0  0  0  0
    6.1721   -8.2186   15.9886 N   0  0  0  0  0  0  0  0  0  0  0  0
   11.1764   -2.6600   19.5604 C   0  0  0  0  0  0  0  0  0  0  0  0
    9.5491   -0.6380   24.1912 C   0  0  0  0  0  0  0  0  0  0  0  0
    7.5337   -6.9256   16.9519 C   0  0  0  0  0  0  0  0  0  0  0  0
    9.6782    0.5671   23.5143 C   0  0  0  0  0  0  0  0  0  0  0  0
    8.4532    0.3482   26.0821 C   0  0  0  0  0  0  0  0  0  0  0  0
   10.4239   -1.7677   22.2230 N   0  0  0  0  0  0  0  0  0  0  0  0
    9.9468   -4.5953   20.1709 C   0  0  0  0  0  0  0  0  0  0  0  0
   10.0366   -3.0590   23.9864 N   0  0  0  0  0  0  0  0  0  0  0  0
    7.1191   -7.3636   15.7739 C   0  0  0  0  0  0  0  0  0  0  0  0
    5.9612   -8.3203   17.2732 N   0  0  0  0  0  0  0  0  0  0  0  0
    8.5296   -5.9814   17.1841 C   0  0  0  0  0  0  0  0  0  0  0  0
    9.1527   -5.2118   16.2116 C   0  0  0  0  0  0  0  0  0  0  0  0
   10.3364   -3.8368   22.9255 O   0  0  0  0  0  0  0  0  0  0  0  0
    9.6947   -4.8407   18.8534 C   0  0  0  0  0  0  0  0  0  0  0  0
    9.1596    1.7042   24.1381 C   0  0  0  0  0  0  0  0  0  0  0  0
   11.0456   -2.9774   18.2694 N   0  0  0  0  0  0  0  0  0  0  0  0
   10.4788   -3.0457   21.8593 C   0  0  0  0  0  0  0  0  0  0  0  0
    8.8693   -5.8099   18.4657 N   0  0  0  0  0  0  0  0  0  0  0  0
    8.9892   -0.7926   25.4573 C   0  0  0  0  0  0  0  0  0  0  0  0
   10.5677   -3.4462   20.5323 C   0  0  0  0  0  0  0  0  0  0  0  0
  1  8  1  0
  1 12  4  0
  1 14  4  0
  2  3  4  0
  2 18  4  0
  3 20  4  0
  3 22  4  0
  4 11  4  0
  4 21  4  0
  5  9  4  0
  5 16  4  0
  6 15  4  0
  6 16  4  0
  7 22  4  0
  7 26  4  0
  8 10  4  0
  8 25  4  0
  9 15  4  0
  9 17  1  0
 10 21  4  0
 11 25  4  0
 12 23  4  0
 13 20  4  0
 13 26  4  0
 14 19  4  0
 17 18  4  0
 17 24  4  0
 19 23  4  0
 20 24  4  0
 23 26  1  0
M  END
$$$$

 Created by Python create_sdf_string function

 26 30  0  0  0  0  0  0  0  0999 V2000
   10.0084   -1.8019   23.4945 C   0  0  0  0  0  0  0  0  0  0  0  0
   10.0005   -4.2520   16.5631 C   0  0  0  0  0  0  0  0  0  0  0  0
   10.2759   -4.0036   17.8845 C   0  0  0  0  0  0  0  0  0  0  0  0
    8.5652    1.5478   25.3778 N   0  0  0  0  0  0  0  0  0  0  0  0
    6.8048   -7.5457   17.8752 C   0  0  0  0  0  0  0  0  0  0  0  0
    6.1721   -8.2186   15.9886 N   0  0  0  0  0  0  0  0  0  0  0  0
   11.1764   -2.6600   19.5604 C   0  0  0  0  0  0  0  0  0  0  0  0
    9.5491   -0.6380   24.1912 C   0  0  0  0  0  0  0  0  0  0  0  0
    7.5337   -6.9256   16.9519 C   0  0  0  0  0  0  0  0  0  0  0  0
    9.6782    0.5671   23.5143 C   0  0  0  0  0  0  0  0  0  0  0  0
    8.4532    0.3482   26.0821 C   0  0  0  0  0  0  0  0  0  0  0  0
   10.4239   -1.7677   22.2230 N   0  0  0  0  0  0  0  0  0  0  0  0
    9.9468   -4.5953   20.1709 C   0  0  0  0  0  0  0  0  0  0  0  0
   10.0366   -3.0590   23.9864 N   0  0  0  0  0  0  0  0  0  0  0  0
    7.1191   -7.3636   15.7739 C   0  0  0  0  0  0  0  0  0  0  0  0
    5.9612   -8.3203   17.2732 N   0  0  0  0  0  0  0  0  0  0  0  0
    8.5296   -5.9814   17.1841 C   0  0  0  0  0  0  0  0  0  0  0  0
    9.1527   -5.2118   16.2116 C   0  0  0  0  0  0  0  0  0  0  0  0
   10.3364   -3.8368   22.9255 O   0  0  0  0  0  0  0  0  0  0  0  0
    9.6947   -4.8407   18.8534 C   0  0  0  0  0  0  0  0  0  0  0  0
    9.1596    1.7042   24.1381 C   0  0  0  0  0  0  0  0  0  0  0  0
   11.0456   -2.9774   18.2694 N   0  0  0  0  0  0  0  0  0  0  0  0
   10.4788   -3.0457   21.8593 C   0  0  0  0  0  0  0  0  0  0  0  0
    8.8693   -5.8099   18.4657 N   0  0  0  0  0  0  0  0  0  0  0  0
    8.9892   -0.7926   25.4573 C   0  0  0  0  0  0  0  0  0  0  0  0
   10.5677   -3.4462   20.5323 C   0  0  0  0  0  0  0  0  0  0  0  0
  1  8  1  0
  1 12  4  0
  1 14  4  0
  2  3  4  0
  2 18  4  0
  3 20  4  0
  3 22  4  0
  4 11  4  0
  4 21  4  0
  5  9  4  0
  5 16  4  0
  6 15  4  0
  6 16  4  0
  7 22  4  0
  7 26  4  0
  8 10  4  0
  8 25  4  0
  9 15  4  0
  9 17  1  0
 10 21  4  0
 11 25  4  0
 12 23  4  0
 13 20  4  0
 13 26  4  0
 14 19  4  0
 17 18  4  0
 17 24  4  0
 19 23  4  0
 20 24  4  0
 23 26  1  0
M  END
$$$$

 Created by Python create_sdf_string function

 26 30  0  0  0  0  0  0  0  0999 V2000
   10.0084   -1.8019   23.4945 C   0  0  0  0  0  0  0  0  0  0  0  0
   10.0005   -4.2520   16.5631 C   0  0  0  0  0  0  0  0  0  0  0  0
   10.2759   -4.0036   17.8845 C   0  0  0  0  0  0  0  0  0  0  0  0
    8.5652    1.5478   25.3778 N   0  0  0  0  0  0  0  0  0  0  0  0
    6.8048   -7.5457   17.8752 C   0  0  0  0  0  0  0  0  0  0  0  0
    6.1721   -8.2186   15.9886 N   0  0  0  0  0  0  0  0  0  0  0  0
   11.1764   -2.6600   19.5604 C   0  0  0  0  0  0  0  0  0  0  0  0
    9.5491   -0.6380   24.1912 C   0  0  0  0  0  0  0  0  0  0  0  0
    7.5337   -6.9256   16.9519 C   0  0  0  0  0  0  0  0  0  0  0  0
    9.6782    0.5671   23.5143 C   0  0  0  0  0  0  0  0  0  0  0  0
    8.4532    0.3482   26.0821 C   0  0  0  0  0  0  0  0  0  0  0  0
   10.4239   -1.7677   22.2230 N   0  0  0  0  0  0  0  0  0  0  0  0
    9.9468   -4.5953   20.1709 C   0  0  0  0  0  0  0  0  0  0  0  0
   10.0366   -3.0590   23.9864 N   0  0  0  0  0  0  0  0  0  0  0  0
    7.1191   -7.3636   15.7739 C   0  0  0  0  0  0  0  0  0  0  0  0
    5.9612   -8.3203   17.2732 N   0  0  0  0  0  0  0  0  0  0  0  0
    8.5296   -5.9814   17.1841 C   0  0  0  0  0  0  0  0  0  0  0  0
    9.1527   -5.2118   16.2116 C   0  0  0  0  0  0  0  0  0  0  0  0
   10.3364   -3.8368   22.9255 O   0  0  0  0  0  0  0  0  0  0  0  0
    9.6947   -4.8407   18.8534 C   0  0  0  0  0  0  0  0  0  0  0  0
    9.1596    1.7042   24.1381 C   0  0  0  0  0  0  0  0  0  0  0  0
   11.0456   -2.9774   18.2694 N   0  0  0  0  0  0  0  0  0  0  0  0
   10.4788   -3.0457   21.8593 C   0  0  0  0  0  0  0  0  0  0  0  0
    8.8693   -5.8099   18.4657 N   0  0  0  0  0  0  0  0  0  0  0  0
    8.9892   -0.7926   25.4573 C   0  0  0  0  0  0  0  0  0  0  0  0
   10.5677   -3.4462   20.5323 C   0  0  0  0  0  0  0  0  0  0  0  0
  1  8  1  0
  1 12  4  0
  1 14  4  0
  2  3  4  0
  2 18  4  0
  3 20  4  0
  3 22  4  0
  4 11  4  0
  4 21  4  0
  5  9  4  0
  5 16  4  0
  6 15  4  0
  6 16  4  0
  7 22  4  0
  7 26  4  0
  8 10  4  0
  8 25  4  0
  9 15  4  0
  9 17  1  0
 10 21  4  0
 11 25  4  0
 12 23  4  0
 13 20  4  0
 13 26  4  0
 14 19  4  0
 17 18  4  0
 17 24  4  0
 19 23  4  0
 20 24  4  0
 23 26  1  0
M  END
$$$$

 Created by Python create_sdf_string function

 26 30  0  0  0  0  0  0  0  0999 V2000
   10.0084   -1.8019   23.4945 C   0  0  0  0  0  0  0  0  0  0  0  0
   10.0005   -4.2520   16.5631 C   0  0  0  0  0  0  0  0  0  0  0  0
   10.2759   -4.0036   17.8845 C   0  0  0  0  0  0  0  0  0  0  0  0
    8.5652    1.5478   25.3778 N   0  0  0  0  0  0  0  0  0  0  0  0
    6.8048   -7.5457   17.8752 C   0  0  0  0  0  0  0  0  0  0  0  0
    6.1721   -8.2186   15.9886 N   0  0  0  0  0  0  0  0  0  0  0  0
   11.1764   -2.6600   19.5604 C   0  0  0  0  0  0  0  0  0  0  0  0
    9.5491   -0.6380   24.1912 C   0  0  0  0  0  0  0  0  0  0  0  0
    7.5337   -6.9256   16.9519 C   0  0  0  0  0  0  0  0  0  0  0  0
    9.6782    0.5671   23.5143 C   0  0  0  0  0  0  0  0  0  0  0  0
    8.4532    0.3482   26.0821 C   0  0  0  0  0  0  0  0  0  0  0  0
   10.4239   -1.7677   22.2230 N   0  0  0  0  0  0  0  0  0  0  0  0
    9.9468   -4.5953   20.1709 C   0  0  0  0  0  0  0  0  0  0  0  0
   10.0366   -3.0590   23.9864 N   0  0  0  0  0  0  0  0  0  0  0  0
    7.1191   -7.3636   15.7739 C   0  0  0  0  0  0  0  0  0  0  0  0
    5.9612   -8.3203   17.2732 N   0  0  0  0  0  0  0  0  0  0  0  0
    8.5296   -5.9814   17.1841 C   0  0  0  0  0  0  0  0  0  0  0  0
    9.1527   -5.2118   16.2116 C   0  0  0  0  0  0  0  0  0  0  0  0
   10.3364   -3.8368   22.9255 O   0  0  0  0  0  0  0  0  0  0  0  0
    9.6947   -4.8407   18.8534 C   0  0  0  0  0  0  0  0  0  0  0  0
    9.1596    1.7042   24.1381 C   0  0  0  0  0  0  0  0  0  0  0  0
   11.0456   -2.9774   18.2694 N   0  0  0  0  0  0  0  0  0  0  0  0
   10.4788   -3.0457   21.8593 C   0  0  0  0  0  0  0  0  0  0  0  0
    8.8693   -5.8099   18.4657 N   0  0  0  0  0  0  0  0  0  0  0  0
    8.9892   -0.7926   25.4573 C   0  0  0  0  0  0  0  0  0  0  0  0
   10.5677   -3.4462   20.5323 C   0  0  0  0  0  0  0  0  0  0  0  0
  1  8  1  0
  1 12  4  0
  1 14  4  0
  2  3  4  0
  2 18  4  0
  3 20  4  0
  3 22  4  0
  4 11  4  0
  4 21  4  0
  5  9  4  0
  5 16  4  0
  6 15  4  0
  6 16  4  0
  7 22  4  0
  7 26  4  0
  8 10  4  0
  8 25  4  0
  9 15  4  0
  9 17  1  0
 10 21  4  0
 11 25  4  0
 12 23  4  0
 13 20  4  0
 13 26  4  0
 14 19  4  0
 17 18  4  0
 17 24  4  0
 19 23  4  0
 20 24  4  0
 23 26  1  0
M  END
$$$$

 Created by Python create_sdf_string function

 26 30  0  0  0  0  0  0  0  0999 V2000
   10.0084   -1.8019   23.4945 C   0  0  0  0  0  0  0  0  0  0  0  0
   10.0005   -4.2520   16.5631 C   0  0  0  0  0  0  0  0  0  0  0  0
   10.2759   -4.0036   17.8845 C   0  0  0  0  0  0  0  0  0  0  0  0
    8.5652    1.5478   25.3778 N   0  0  0  0  0  0  0  0  0  0  0  0
    6.8048   -7.5457   17.8752 C   0  0  0  0  0  0  0  0  0  0  0  0
    6.1721   -8.2186   15.9886 N   0  0  0  0  0  0  0  0  0  0  0  0
   11.1764   -2.6600   19.5604 C   0  0  0  0  0  0  0  0  0  0  0  0
    9.5491   -0.6380   24.1912 C   0  0  0  0  0  0  0  0  0  0  0  0
    7.5337   -6.9256   16.9519 C   0  0  0  0  0  0  0  0  0  0  0  0
    9.6782    0.5671   23.5143 C   0  0  0  0  0  0  0  0  0  0  0  0
    8.4532    0.3482   26.0821 C   0  0  0  0  0  0  0  0  0  0  0  0
   10.4239   -1.7677   22.2230 N   0  0  0  0  0  0  0  0  0  0  0  0
    9.9468   -4.5953   20.1709 C   0  0  0  0  0  0  0  0  0  0  0  0
   10.0366   -3.0590   23.9864 N   0  0  0  0  0  0  0  0  0  0  0  0
    7.1191   -7.3636   15.7739 C   0  0  0  0  0  0  0  0  0  0  0  0
    5.9612   -8.3203   17.2732 N   0  0  0  0  0  0  0  0  0  0  0  0
    8.5296   -5.9814   17.1841 C   0  0  0  0  0  0  0  0  0  0  0  0
    9.1527   -5.2118   16.2116 C   0  0  0  0  0  0  0  0  0  0  0  0
   10.3364   -3.8368   22.9255 O   0  0  0  0  0  0  0  0  0  0  0  0
    9.6947   -4.8407   18.8534 C   0  0  0  0  0  0  0  0  0  0  0  0
    9.1596    1.7042   24.1381 C   0  0  0  0  0  0  0  0  0  0  0  0
   11.0456   -2.9774   18.2694 N   0  0  0  0  0  0  0  0  0  0  0  0
   10.4788   -3.0457   21.8593 C   0  0  0  0  0  0  0  0  0  0  0  0
    8.8693   -5.8099   18.4657 N   0  0  0  0  0  0  0  0  0  0  0  0
    8.9892   -0.7926   25.4573 C   0  0  0  0  0  0  0  0  0  0  0  0
   10.5677   -3.4462   20.5323 C   0  0  0  0  0  0  0  0  0  0  0  0
  1  8  1  0
  1 12  4  0
  1 14  4  0
  2  3  4  0
  2 18  4  0
  3 20  4  0
  3 22  4  0
  4 11  4  0
  4 21  4  0
  5  9  4  0
  5 16  4  0
  6 15  4  0
  6 16  4  0
  7 22  4  0
  7 26  4  0
  8 10  4  0
  8 25  4  0
  9 15  4  0
  9 17  1  0
 10 21  4  0
 11 25  4  0
 12 23  4  0
 13 20  4  0
 13 26  4  0
 14 19  4  0
 17 18  4  0
 17 24  4  0
 19 23  4  0
 20 24  4  0
 23 26  1  0
M  END
$$$$

 Created by Python create_sdf_string function

 26 30  0  0  0  0  0  0  0  0999 V2000
   10.0084   -1.8019   23.4945 C   0  0  0  0  0  0  0  0  0  0  0  0
   10.0005   -4.2520   16.5631 C   0  0  0  0  0  0  0  0  0  0  0  0
   10.2759   -4.0036   17.8845 C   0  0  0  0  0  0  0  0  0  0  0  0
    8.5652    1.5478   25.3778 N   0  0  0  0  0  0  0  0  0  0  0  0
    6.8048   -7.5457   17.8752 C   0  0  0  0  0  0  0  0  0  0  0  0
    6.1721   -8.2186   15.9886 N   0  0  0  0  0  0  0  0  0  0  0  0
   11.1764   -2.6600   19.5604 C   0  0  0  0  0  0  0  0  0  0  0  0
    9.5491   -0.6380   24.1912 C   0  0  0  0  0  0  0  0  0  0  0  0
    7.5337   -6.9256   16.9519 C   0  0  0  0  0  0  0  0  0  0  0  0
    9.6782    0.5671   23.5143 C   0  0  0  0  0  0  0  0  0  0  0  0
    8.4532    0.3482   26.0821 C   0  0  0  0  0  0  0  0  0  0  0  0
   10.4239   -1.7677   22.2230 N   0  0  0  0  0  0  0  0  0  0  0  0
    9.9468   -4.5953   20.1709 C   0  0  0  0  0  0  0  0  0  0  0  0
   10.0366   -3.0590   23.9864 N   0  0  0  0  0  0  0  0  0  0  0  0
    7.1191   -7.3636   15.7739 C   0  0  0  0  0  0  0  0  0  0  0  0
    5.9612   -8.3203   17.2732 N   0  0  0  0  0  0  0  0  0  0  0  0
    8.5296   -5.9814   17.1841 C   0  0  0  0  0  0  0  0  0  0  0  0
    9.1527   -5.2118   16.2116 C   0  0  0  0  0  0  0  0  0  0  0  0
   10.3364   -3.8368   22.9255 O   0  0  0  0  0  0  0  0  0  0  0  0
    9.6947   -4.8407   18.8534 C   0  0  0  0  0  0  0  0  0  0  0  0
    9.1596    1.7042   24.1381 C   0  0  0  0  0  0  0  0  0  0  0  0
   11.0456   -2.9774   18.2694 N   0  0  0  0  0  0  0  0  0  0  0  0
   10.4788   -3.0457   21.8593 C   0  0  0  0  0  0  0  0  0  0  0  0
    8.8693   -5.8099   18.4657 N   0  0  0  0  0  0  0  0  0  0  0  0
    8.9892   -0.7926   25.4573 C   0  0  0  0  0  0  0  0  0  0  0  0
   10.5677   -3.4462   20.5323 C   0  0  0  0  0  0  0  0  0  0  0  0
  1  8  1  0
  1 12  4  0
  1 14  4  0
  2  3  4  0
  2 18  4  0
  3 20  4  0
  3 22  4  0
  4 11  4  0
  4 21  4  0
  5  9  4  0
  5 16  4  0
  6 15  4  0
  6 16  4  0
  7 22  4  0
  7 26  4  0
  8 10  4  0
  8 25  4  0
  9 15  4  0
  9 17  1  0
 10 21  4  0
 11 25  4  0
 12 23  4  0
 13 20  4  0
 13 26  4  0
 14 19  4  0
 17 18  4  0
 17 24  4  0
 19 23  4  0
 20 24  4  0
 23 26  1  0
M  END
$$$$

 Created by Python create_sdf_string function

 26 30  0  0  0  0  0  0  0  0999 V2000
   10.0084   -1.8019   23.4945 C   0  0  0  0  0  0  0  0  0  0  0  0
   10.0005   -4.2520   16.5631 C   0  0  0  0  0  0  0  0  0  0  0  0
   10.2759   -4.0036   17.8845 C   0  0  0  0  0  0  0  0  0  0  0  0
    8.5652    1.5478   25.3778 N   0  0  0  0  0  0  0  0  0  0  0  0
    6.8048   -7.5457   17.8752 C   0  0  0  0  0  0  0  0  0  0  0  0
    6.1721   -8.2186   15.9886 N   0  0  0  0  0  0  0  0  0  0  0  0
   11.1764   -2.6600   19.5604 C   0  0  0  0  0  0  0  0  0  0  0  0
    9.5491   -0.6380   24.1912 C   0  0  0  0  0  0  0  0  0  0  0  0
    7.5337   -6.9256   16.9519 C   0  0  0  0  0  0  0  0  0  0  0  0
    9.6782    0.5671   23.5143 C   0  0  0  0  0  0  0  0  0  0  0  0
    8.4532    0.3482   26.0821 C   0  0  0  0  0  0  0  0  0  0  0  0
   10.4239   -1.7677   22.2230 N   0  0  0  0  0  0  0  0  0  0  0  0
    9.9468   -4.5953   20.1709 C   0  0  0  0  0  0  0  0  0  0  0  0
   10.0366   -3.0590   23.9864 N   0  0  0  0  0  0  0  0  0  0  0  0
    7.1191   -7.3636   15.7739 C   0  0  0  0  0  0  0  0  0  0  0  0
    5.9612   -8.3203   17.2732 N   0  0  0  0  0  0  0  0  0  0  0  0
    8.5296   -5.9814   17.1841 C   0  0  0  0  0  0  0  0  0  0  0  0
    9.1527   -5.2118   16.2116 C   0  0  0  0  0  0  0  0  0  0  0  0
   10.3364   -3.8368   22.9255 O   0  0  0  0  0  0  0  0  0  0  0  0
    9.6947   -4.8407   18.8534 C   0  0  0  0  0  0  0  0  0  0  0  0
    9.1596    1.7042   24.1381 C   0  0  0  0  0  0  0  0  0  0  0  0
   11.0456   -2.9774   18.2694 N   0  0  0  0  0  0  0  0  0  0  0  0
   10.4788   -3.0457   21.8593 C   0  0  0  0  0  0  0  0  0  0  0  0
    8.8693   -5.8099   18.4657 N   0  0  0  0  0  0  0  0  0  0  0  0
    8.9892   -0.7926   25.4573 C   0  0  0  0  0  0  0  0  0  0  0  0
   10.5677   -3.4462   20.5323 C   0  0  0  0  0  0  0  0  0  0  0  0
  1  8  1  0
  1 12  4  0
  1 14  4  0
  2  3  4  0
  2 18  4  0
  3 20  4  0
  3 22  4  0
  4 11  4  0
  4 21  4  0
  5  9  4  0
  5 16  4  0
  6 15  4  0
  6 16  4  0
  7 22  4  0
  7 26  4  0
  8 10  4  0
  8 25  4  0
  9 15  4  0
  9 17  1  0
 10 21  4  0
 11 25  4  0
 12 23  4  0
 13 20  4  0
 13 26  4  0
 14 19  4  0
 17 18  4  0
 17 24  4  0
 19 23  4  0
 20 24  4  0
 23 26  1  0
M  END
$$$$

 Created by Python create_sdf_string function

 26 30  0  0  0  0  0  0  0  0999 V2000
   10.0084   -1.8019   23.4945 C   0  0  0  0  0  0  0  0  0  0  0  0
   10.0005   -4.2520   16.5631 C   0  0  0  0  0  0  0  0  0  0  0  0
   10.2759   -4.0036   17.8845 C   0  0  0  0  0  0  0  0  0  0  0  0
    8.5652    1.5478   25.3778 N   0  0  0  0  0  0  0  0  0  0  0  0
    6.8048   -7.5457   17.8752 C   0  0  0  0  0  0  0  0  0  0  0  0
    6.1721   -8.2186   15.9886 N   0  0  0  0  0  0  0  0  0  0  0  0
   11.1764   -2.6600   19.5604 C   0  0  0  0  0  0  0  0  0  0  0  0
    9.5491   -0.6380   24.1912 C   0  0  0  0  0  0  0  0  0  0  0  0
    7.5337   -6.9256   16.9519 C   0  0  0  0  0  0  0  0  0  0  0  0
    9.6782    0.5671   23.5143 C   0  0  0  0  0  0  0  0  0  0  0  0
    8.4532    0.3482   26.0821 C   0  0  0  0  0  0  0  0  0  0  0  0
   10.4239   -1.7677   22.2230 N   0  0  0  0  0  0  0  0  0  0  0  0
    9.9468   -4.5953   20.1709 C   0  0  0  0  0  0  0  0  0  0  0  0
   10.0366   -3.0590   23.9864 N   0  0  0  0  0  0  0  0  0  0  0  0
    7.1191   -7.3636   15.7739 C   0  0  0  0  0  0  0  0  0  0  0  0
    5.9612   -8.3203   17.2732 N   0  0  0  0  0  0  0  0  0  0  0  0
    8.5296   -5.9814   17.1841 C   0  0  0  0  0  0  0  0  0  0  0  0
    9.1527   -5.2118   16.2116 C   0  0  0  0  0  0  0  0  0  0  0  0
   10.3364   -3.8368   22.9255 O   0  0  0  0  0  0  0  0  0  0  0  0
    9.6947   -4.8407   18.8534 C   0  0  0  0  0  0  0  0  0  0  0  0
    9.1596    1.7042   24.1381 C   0  0  0  0  0  0  0  0  0  0  0  0
   11.0456   -2.9774   18.2694 N   0  0  0  0  0  0  0  0  0  0  0  0
   10.4788   -3.0457   21.8593 C   0  0  0  0  0  0  0  0  0  0  0  0
    8.8693   -5.8099   18.4657 N   0  0  0  0  0  0  0  0  0  0  0  0
    8.9892   -0.7926   25.4573 C   0  0  0  0  0  0  0  0  0  0  0  0
   10.5677   -3.4462   20.5323 C   0  0  0  0  0  0  0  0  0  0  0  0
  1  8  1  0
  1 12  4  0
  1 14  4  0
  2  3  4  0
  2 18  4  0
  3 20  4  0
  3 22  4  0
  4 11  4  0
  4 21  4  0
  5  9  4  0
  5 16  4  0
  6 15  4  0
  6 16  4  0
  7 22  4  0
  7 26  4  0
  8 10  4  0
  8 25  4  0
  9 15  4  0
  9 17  1  0
 10 21  4  0
 11 25  4  0
 12 23  4  0
 13 20  4  0
 13 26  4  0
 14 19  4  0
 17 18  4  0
 17 24  4  0
 19 23  4  0
 20 24  4  0
 23 26  1  0
M  END
$$$$

 Created by Python create_sdf_string function

 26 30  0  0  0  0  0  0  0  0999 V2000
   10.0084   -1.8019   23.4945 C   0  0  0  0  0  0  0  0  0  0  0  0
   10.0005   -4.2520   16.5631 C   0  0  0  0  0  0  0  0  0  0  0  0
   10.2759   -4.0036   17.8845 C   0  0  0  0  0  0  0  0  0  0  0  0
    8.5652    1.5478   25.3778 N   0  0  0  0  0  0  0  0  0  0  0  0
    6.8048   -7.5457   17.8752 C   0  0  0  0  0  0  0  0  0  0  0  0
    6.1721   -8.2186   15.9886 N   0  0  0  0  0  0  0  0  0  0  0  0
   11.1764   -2.6600   19.5604 C   0  0  0  0  0  0  0  0  0  0  0  0
    9.5491   -0.6380   24.1912 C   0  0  0  0  0  0  0  0  0  0  0  0
    7.5337   -6.9256   16.9519 C   0  0  0  0  0  0  0  0  0  0  0  0
    9.6782    0.5671   23.5143 C   0  0  0  0  0  0  0  0  0  0  0  0
    8.4532    0.3482   26.0821 C   0  0  0  0  0  0  0  0  0  0  0  0
   10.4239   -1.7677   22.2230 N   0  0  0  0  0  0  0  0  0  0  0  0
    9.9468   -4.5953   20.1709 C   0  0  0  0  0  0  0  0  0  0  0  0
   10.0366   -3.0590   23.9864 N   0  0  0  0  0  0  0  0  0  0  0  0
    7.1191   -7.3636   15.7739 C   0  0  0  0  0  0  0  0  0  0  0  0
    5.9612   -8.3203   17.2732 N   0  0  0  0  0  0  0  0  0  0  0  0
    8.5296   -5.9814   17.1841 C   0  0  0  0  0  0  0  0  0  0  0  0
    9.1527   -5.2118   16.2116 C   0  0  0  0  0  0  0  0  0  0  0  0
   10.3364   -3.8368   22.9255 O   0  0  0  0  0  0  0  0  0  0  0  0
    9.6947   -4.8407   18.8534 C   0  0  0  0  0  0  0  0  0  0  0  0
    9.1596    1.7042   24.1381 C   0  0  0  0  0  0  0  0  0  0  0  0
   11.0456   -2.9774   18.2694 N   0  0  0  0  0  0  0  0  0  0  0  0
   10.4788   -3.0457   21.8593 C   0  0  0  0  0  0  0  0  0  0  0  0
    8.8693   -5.8099   18.4657 N   0  0  0  0  0  0  0  0  0  0  0  0
    8.9892   -0.7926   25.4573 C   0  0  0  0  0  0  0  0  0  0  0  0
   10.5677   -3.4462   20.5323 C   0  0  0  0  0  0  0  0  0  0  0  0
  1  8  1  0
  1 12  4  0
  1 14  4  0
  2  3  4  0
  2 18  4  0
  3 20  4  0
  3 22  4  0
  4 11  4  0
  4 21  4  0
  5  9  4  0
  5 16  4  0
  6 15  4  0
  6 16  4  0
  7 22  4  0
  7 26  4  0
  8 10  4  0
  8 25  4  0
  9 15  4  0
  9 17  1  0
 10 21  4  0
 11 25  4  0
 12 23  4  0
 13 20  4  0
 13 26  4  0
 14 19  4  0
 17 18  4  0
 17 24  4  0
 19 23  4  0
 20 24  4  0
 23 26  1  0
M  END
$$$$

 Created by Python create_sdf_string function

 26 30  0  0  0  0  0  0  0  0999 V2000
   10.0084   -1.8019   23.4945 C   0  0  0  0  0  0  0  0  0  0  0  0
   10.0005   -4.2520   16.5631 C   0  0  0  0  0  0  0  0  0  0  0  0
   10.2759   -4.0036   17.8845 C   0  0  0  0  0  0  0  0  0  0  0  0
    8.5652    1.5478   25.3778 N   0  0  0  0  0  0  0  0  0  0  0  0
    6.8048   -7.5457   17.8752 C   0  0  0  0  0  0  0  0  0  0  0  0
    6.1721   -8.2186   15.9886 N   0  0  0  0  0  0  0  0  0  0  0  0
   11.1764   -2.6600   19.5604 C   0  0  0  0  0  0  0  0  0  0  0  0
    9.5491   -0.6380   24.1912 C   0  0  0  0  0  0  0  0  0  0  0  0
    7.5337   -6.9256   16.9519 C   0  0  0  0  0  0  0  0  0  0  0  0
    9.6782    0.5671   23.5143 C   0  0  0  0  0  0  0  0  0  0  0  0
    8.4532    0.3482   26.0821 C   0  0  0  0  0  0  0  0  0  0  0  0
   10.4239   -1.7677   22.2230 N   0  0  0  0  0  0  0  0  0  0  0  0
    9.9468   -4.5953   20.1709 C   0  0  0  0  0  0  0  0  0  0  0  0
   10.0366   -3.0590   23.9864 N   0  0  0  0  0  0  0  0  0  0  0  0
    7.1191   -7.3636   15.7739 C   0  0  0  0  0  0  0  0  0  0  0  0
    5.9612   -8.3203   17.2732 N   0  0  0  0  0  0  0  0  0  0  0  0
    8.5296   -5.9814   17.1841 C   0  0  0  0  0  0  0  0  0  0  0  0
    9.1527   -5.2118   16.2116 C   0  0  0  0  0  0  0  0  0  0  0  0
   10.3364   -3.8368   22.9255 O   0  0  0  0  0  0  0  0  0  0  0  0
    9.6947   -4.8407   18.8534 C   0  0  0  0  0  0  0  0  0  0  0  0
    9.1596    1.7042   24.1381 C   0  0  0  0  0  0  0  0  0  0  0  0
   11.0456   -2.9774   18.2694 N   0  0  0  0  0  0  0  0  0  0  0  0
   10.4788   -3.0457   21.8593 C   0  0  0  0  0  0  0  0  0  0  0  0
    8.8693   -5.8099   18.4657 N   0  0  0  0  0  0  0  0  0  0  0  0
    8.9892   -0.7926   25.4573 C   0  0  0  0  0  0  0  0  0  0  0  0
   10.5677   -3.4462   20.5323 C   0  0  0  0  0  0  0  0  0  0  0  0
  1  8  1  0
  1 12  4  0
  1 14  4  0
  2  3  4  0
  2 18  4  0
  3 20  4  0
  3 22  4  0
  4 11  4  0
  4 21  4  0
  5  9  4  0
  5 16  4  0
  6 15  4  0
  6 16  4  0
  7 22  4  0
  7 26  4  0
  8 10  4  0
  8 25  4  0
  9 15  4  0
  9 17  1  0
 10 21  4  0
 11 25  4  0
 12 23  4  0
 13 20  4  0
 13 26  4  0
 14 19  4  0
 17 18  4  0
 17 24  4  0
 19 23  4  0
 20 24  4  0
 23 26  1  0
M  END
$$$$

 Created by Python create_sdf_string function

 26 30  0  0  0  0  0  0  0  0999 V2000
   10.0084   -1.8019   23.4945 C   0  0  0  0  0  0  0  0  0  0  0  0
   10.0005   -4.2520   16.5631 C   0  0  0  0  0  0  0  0  0  0  0  0
   10.2759   -4.0036   17.8845 C   0  0  0  0  0  0  0  0  0  0  0  0
    8.5652    1.5478   25.3778 N   0  0  0  0  0  0  0  0  0  0  0  0
    6.8048   -7.5457   17.8752 C   0  0  0  0  0  0  0  0  0  0  0  0
    6.1721   -8.2186   15.9886 N   0  0  0  0  0  0  0  0  0  0  0  0
   11.1764   -2.6600   19.5604 C   0  0  0  0  0  0  0  0  0  0  0  0
    9.5491   -0.6380   24.1912 C   0  0  0  0  0  0  0  0  0  0  0  0
    7.5337   -6.9256   16.9519 C   0  0  0  0  0  0  0  0  0  0  0  0
    9.6782    0.5671   23.5143 C   0  0  0  0  0  0  0  0  0  0  0  0
    8.4532    0.3482   26.0821 C   0  0  0  0  0  0  0  0  0  0  0  0
   10.4239   -1.7677   22.2230 N   0  0  0  0  0  0  0  0  0  0  0  0
    9.9468   -4.5953   20.1709 C   0  0  0  0  0  0  0  0  0  0  0  0
   10.0366   -3.0590   23.9864 N   0  0  0  0  0  0  0  0  0  0  0  0
    7.1191   -7.3636   15.7739 C   0  0  0  0  0  0  0  0  0  0  0  0
    5.9612   -8.3203   17.2732 N   0  0  0  0  0  0  0  0  0  0  0  0
    8.5296   -5.9814   17.1841 C   0  0  0  0  0  0  0  0  0  0  0  0
    9.1527   -5.2118   16.2116 C   0  0  0  0  0  0  0  0  0  0  0  0
   10.3364   -3.8368   22.9255 O   0  0  0  0  0  0  0  0  0  0  0  0
    9.6947   -4.8407   18.8534 C   0  0  0  0  0  0  0  0  0  0  0  0
    9.1596    1.7042   24.1381 C   0  0  0  0  0  0  0  0  0  0  0  0
   11.0456   -2.9774   18.2694 N   0  0  0  0  0  0  0  0  0  0  0  0
   10.4788   -3.0457   21.8593 C   0  0  0  0  0  0  0  0  0  0  0  0
    8.8693   -5.8099   18.4657 N   0  0  0  0  0  0  0  0  0  0  0  0
    8.9892   -0.7926   25.4573 C   0  0  0  0  0  0  0  0  0  0  0  0
   10.5677   -3.4462   20.5323 C   0  0  0  0  0  0  0  0  0  0  0  0
  1  8  1  0
  1 12  4  0
  1 14  4  0
  2  3  4  0
  2 18  4  0
  3 20  4  0
  3 22  4  0
  4 11  4  0
  4 21  4  0
  5  9  4  0
  5 16  4  0
  6 15  4  0
  6 16  4  0
  7 22  4  0
  7 26  4  0
  8 10  4  0
  8 25  4  0
  9 15  4  0
  9 17  1  0
 10 21  4  0
 11 25  4  0
 12 23  4  0
 13 20  4  0
 13 26  4  0
 14 19  4  0
 17 18  4  0
 17 24  4  0
 19 23  4  0
 20 24  4  0
 23 26  1  0
M  END
$$$$

 Created by Python create_sdf_string function

 26 30  0  0  0  0  0  0  0  0999 V2000
   10.0084   -1.8019   23.4945 C   0  0  0  0  0  0  0  0  0  0  0  0
   10.0005   -4.2520   16.5631 C   0  0  0  0  0  0  0  0  0  0  0  0
   10.2759   -4.0036   17.8845 C   0  0  0  0  0  0  0  0  0  0  0  0
    8.5652    1.5478   25.3778 N   0  0  0  0  0  0  0  0  0  0  0  0
    6.8048   -7.5457   17.8752 C   0  0  0  0  0  0  0  0  0  0  0  0
    6.1721   -8.2186   15.9886 N   0  0  0  0  0  0  0  0  0  0  0  0
   11.1764   -2.6600   19.5604 C   0  0  0  0  0  0  0  0  0  0  0  0
    9.5491   -0.6380   24.1912 C   0  0  0  0  0  0  0  0  0  0  0  0
    7.5337   -6.9256   16.9519 C   0  0  0  0  0  0  0  0  0  0  0  0
    9.6782    0.5671   23.5143 C   0  0  0  0  0  0  0  0  0  0  0  0
    8.4532    0.3482   26.0821 C   0  0  0  0  0  0  0  0  0  0  0  0
   10.4239   -1.7677   22.2230 N   0  0  0  0  0  0  0  0  0  0  0  0
    9.9468   -4.5953   20.1709 C   0  0  0  0  0  0  0  0  0  0  0  0
   10.0366   -3.0590   23.9864 N   0  0  0  0  0  0  0  0  0  0  0  0
    7.1191   -7.3636   15.7739 C   0  0  0  0  0  0  0  0  0  0  0  0
    5.9612   -8.3203   17.2732 N   0  0  0  0  0  0  0  0  0  0  0  0
    8.5296   -5.9814   17.1841 C   0  0  0  0  0  0  0  0  0  0  0  0
    9.1527   -5.2118   16.2116 C   0  0  0  0  0  0  0  0  0  0  0  0
   10.3364   -3.8368   22.9255 O   0  0  0  0  0  0  0  0  0  0  0  0
    9.6947   -4.8407   18.8534 C   0  0  0  0  0  0  0  0  0  0  0  0
    9.1596    1.7042   24.1381 C   0  0  0  0  0  0  0  0  0  0  0  0
   11.0456   -2.9774   18.2694 N   0  0  0  0  0  0  0  0  0  0  0  0
   10.4788   -3.0457   21.8593 C   0  0  0  0  0  0  0  0  0  0  0  0
    8.8693   -5.8099   18.4657 N   0  0  0  0  0  0  0  0  0  0  0  0
    8.9892   -0.7926   25.4573 C   0  0  0  0  0  0  0  0  0  0  0  0
   10.5677   -3.4462   20.5323 C   0  0  0  0  0  0  0  0  0  0  0  0
  1  8  1  0
  1 12  4  0
  1 14  4  0
  2  3  4  0
  2 18  4  0
  3 20  4  0
  3 22  4  0
  4 11  4  0
  4 21  4  0
  5  9  4  0
  5 16  4  0
  6 15  4  0
  6 16  4  0
  7 22  4  0
  7 26  4  0
  8 10  4  0
  8 25  4  0
  9 15  4  0
  9 17  1  0
 10 21  4  0
 11 25  4  0
 12 23  4  0
 13 20  4  0
 13 26  4  0
 14 19  4  0
 17 18  4  0
 17 24  4  0
 19 23  4  0
 20 24  4  0
 23 26  1  0
M  END
$$$$

 Created by Python create_sdf_string function

 26 30  0  0  0  0  0  0  0  0999 V2000
   10.0084   -1.8019   23.4945 C   0  0  0  0  0  0  0  0  0  0  0  0
   10.0005   -4.2520   16.5631 C   0  0  0  0  0  0  0  0  0  0  0  0
   10.2759   -4.0036   17.8845 C   0  0  0  0  0  0  0  0  0  0  0  0
    8.5652    1.5478   25.3778 N   0  0  0  0  0  0  0  0  0  0  0  0
    6.8048   -7.5457   17.8752 C   0  0  0  0  0  0  0  0  0  0  0  0
    6.1721   -8.2186   15.9886 N   0  0  0  0  0  0  0  0  0  0  0  0
   11.1764   -2.6600   19.5604 C   0  0  0  0  0  0  0  0  0  0  0  0
    9.5491   -0.6380   24.1912 C   0  0  0  0  0  0  0  0  0  0  0  0
    7.5337   -6.9256   16.9519 C   0  0  0  0  0  0  0  0  0  0  0  0
    9.6782    0.5671   23.5143 C   0  0  0  0  0  0  0  0  0  0  0  0
    8.4532    0.3482   26.0821 C   0  0  0  0  0  0  0  0  0  0  0  0
   10.4239   -1.7677   22.2230 N   0  0  0  0  0  0  0  0  0  0  0  0
    9.9468   -4.5953   20.1709 C   0  0  0  0  0  0  0  0  0  0  0  0
   10.0366   -3.0590   23.9864 N   0  0  0  0  0  0  0  0  0  0  0  0
    7.1191   -7.3636   15.7739 C   0  0  0  0  0  0  0  0  0  0  0  0
    5.9612   -8.3203   17.2732 N   0  0  0  0  0  0  0  0  0  0  0  0
    8.5296   -5.9814   17.1841 C   0  0  0  0  0  0  0  0  0  0  0  0
    9.1527   -5.2118   16.2116 C   0  0  0  0  0  0  0  0  0  0  0  0
   10.3364   -3.8368   22.9255 O   0  0  0  0  0  0  0  0  0  0  0  0
    9.6947   -4.8407   18.8534 C   0  0  0  0  0  0  0  0  0  0  0  0
    9.1596    1.7042   24.1381 C   0  0  0  0  0  0  0  0  0  0  0  0
   11.0456   -2.9774   18.2694 N   0  0  0  0  0  0  0  0  0  0  0  0
   10.4788   -3.0457   21.8593 C   0  0  0  0  0  0  0  0  0  0  0  0
    8.8693   -5.8099   18.4657 N   0  0  0  0  0  0  0  0  0  0  0  0
    8.9892   -0.7926   25.4573 C   0  0  0  0  0  0  0  0  0  0  0  0
   10.5677   -3.4462   20.5323 C   0  0  0  0  0  0  0  0  0  0  0  0
  1  8  1  0
  1 12  4  0
  1 14  4  0
  2  3  4  0
  2 18  4  0
  3 20  4  0
  3 22  4  0
  4 11  4  0
  4 21  4  0
  5  9  4  0
  5 16  4  0
  6 15  4  0
  6 16  4  0
  7 22  4  0
  7 26  4  0
  8 10  4  0
  8 25  4  0
  9 15  4  0
  9 17  1  0
 10 21  4  0
 11 25  4  0
 12 23  4  0
 13 20  4  0
 13 26  4  0
 14 19  4  0
 17 18  4  0
 17 24  4  0
 19 23  4  0
 20 24  4  0
 23 26  1  0
M  END
$$$$

 Created by Python create_sdf_string function

 26 30  0  0  0  0  0  0  0  0999 V2000
   10.0084   -1.8019   23.4945 C   0  0  0  0  0  0  0  0  0  0  0  0
   10.0005   -4.2520   16.5631 C   0  0  0  0  0  0  0  0  0  0  0  0
   10.2759   -4.0036   17.8845 C   0  0  0  0  0  0  0  0  0  0  0  0
    8.5652    1.5478   25.3778 N   0  0  0  0  0  0  0  0  0  0  0  0
    6.8048   -7.5457   17.8752 C   0  0  0  0  0  0  0  0  0  0  0  0
    6.1721   -8.2186   15.9886 N   0  0  0  0  0  0  0  0  0  0  0  0
   11.1764   -2.6600   19.5604 C   0  0  0  0  0  0  0  0  0  0  0  0
    9.5491   -0.6380   24.1912 C   0  0  0  0  0  0  0  0  0  0  0  0
    7.5337   -6.9256   16.9519 C   0  0  0  0  0  0  0  0  0  0  0  0
    9.6782    0.5671   23.5143 C   0  0  0  0  0  0  0  0  0  0  0  0
    8.4532    0.3482   26.0821 C   0  0  0  0  0  0  0  0  0  0  0  0
   10.4239   -1.7677   22.2230 N   0  0  0  0  0  0  0  0  0  0  0  0
    9.9468   -4.5953   20.1709 C   0  0  0  0  0  0  0  0  0  0  0  0
   10.0366   -3.0590   23.9864 N   0  0  0  0  0  0  0  0  0  0  0  0
    7.1191   -7.3636   15.7739 C   0  0  0  0  0  0  0  0  0  0  0  0
    5.9612   -8.3203   17.2732 N   0  0  0  0  0  0  0  0  0  0  0  0
    8.5296   -5.9814   17.1841 C   0  0  0  0  0  0  0  0  0  0  0  0
    9.1527   -5.2118   16.2116 C   0  0  0  0  0  0  0  0  0  0  0  0
   10.3364   -3.8368   22.9255 O   0  0  0  0  0  0  0  0  0  0  0  0
    9.6947   -4.8407   18.8534 C   0  0  0  0  0  0  0  0  0  0  0  0
    9.1596    1.7042   24.1381 C   0  0  0  0  0  0  0  0  0  0  0  0
   11.0456   -2.9774   18.2694 N   0  0  0  0  0  0  0  0  0  0  0  0
   10.4788   -3.0457   21.8593 C   0  0  0  0  0  0  0  0  0  0  0  0
    8.8693   -5.8099   18.4657 N   0  0  0  0  0  0  0  0  0  0  0  0
    8.9892   -0.7926   25.4573 C   0  0  0  0  0  0  0  0  0  0  0  0
   10.5677   -3.4462   20.5323 C   0  0  0  0  0  0  0  0  0  0  0  0
  1  8  1  0
  1 12  4  0
  1 14  4  0
  2  3  4  0
  2 18  4  0
  3 20  4  0
  3 22  4  0
  4 11  4  0
  4 21  4  0
  5  9  4  0
  5 16  4  0
  6 15  4  0
  6 16  4  0
  7 22  4  0
  7 26  4  0
  8 10  4  0
  8 25  4  0
  9 15  4  0
  9 17  1  0
 10 21  4  0
 11 25  4  0
 12 23  4  0
 13 20  4  0
 13 26  4  0
 14 19  4  0
 17 18  4  0
 17 24  4  0
 19 23  4  0
 20 24  4  0
 23 26  1  0
M  END
$$$$

 Created by Python create_sdf_string function

 26 30  0  0  0  0  0  0  0  0999 V2000
   10.0084   -1.8019   23.4945 C   0  0  0  0  0  0  0  0  0  0  0  0
   10.0005   -4.2520   16.5631 C   0  0  0  0  0  0  0  0  0  0  0  0
   10.2759   -4.0036   17.8845 C   0  0  0  0  0  0  0  0  0  0  0  0
    8.5652    1.5478   25.3778 N   0  0  0  0  0  0  0  0  0  0  0  0
    6.8048   -7.5457   17.8752 C   0  0  0  0  0  0  0  0  0  0  0  0
    6.1721   -8.2186   15.9886 N   0  0  0  0  0  0  0  0  0  0  0  0
   11.1764   -2.6600   19.5604 C   0  0  0  0  0  0  0  0  0  0  0  0
    9.5491   -0.6380   24.1912 C   0  0  0  0  0  0  0  0  0  0  0  0
    7.5337   -6.9256   16.9519 C   0  0  0  0  0  0  0  0  0  0  0  0
    9.6782    0.5671   23.5143 C   0  0  0  0  0  0  0  0  0  0  0  0
    8.4532    0.3482   26.0821 C   0  0  0  0  0  0  0  0  0  0  0  0
   10.4239   -1.7677   22.2230 N   0  0  0  0  0  0  0  0  0  0  0  0
    9.9468   -4.5953   20.1709 C   0  0  0  0  0  0  0  0  0  0  0  0
   10.0366   -3.0590   23.9864 N   0  0  0  0  0  0  0  0  0  0  0  0
    7.1191   -7.3636   15.7739 C   0  0  0  0  0  0  0  0  0  0  0  0
    5.9612   -8.3203   17.2732 N   0  0  0  0  0  0  0  0  0  0  0  0
    8.5296   -5.9814   17.1841 C   0  0  0  0  0  0  0  0  0  0  0  0
    9.1527   -5.2118   16.2116 C   0  0  0  0  0  0  0  0  0  0  0  0
   10.3364   -3.8368   22.9255 O   0  0  0  0  0  0  0  0  0  0  0  0
    9.6947   -4.8407   18.8534 C   0  0  0  0  0  0  0  0  0  0  0  0
    9.1596    1.7042   24.1381 C   0  0  0  0  0  0  0  0  0  0  0  0
   11.0456   -2.9774   18.2694 N   0  0  0  0  0  0  0  0  0  0  0  0
   10.4788   -3.0457   21.8593 C   0  0  0  0  0  0  0  0  0  0  0  0
    8.8693   -5.8099   18.4657 N   0  0  0  0  0  0  0  0  0  0  0  0
    8.9892   -0.7926   25.4573 C   0  0  0  0  0  0  0  0  0  0  0  0
   10.5677   -3.4462   20.5323 C   0  0  0  0  0  0  0  0  0  0  0  0
  1  8  1  0
  1 12  4  0
  1 14  4  0
  2  3  4  0
  2 18  4  0
  3 20  4  0
  3 22  4  0
  4 11  4  0
  4 21  4  0
  5  9  4  0
  5 16  4  0
  6 15  4  0
  6 16  4  0
  7 22  4  0
  7 26  4  0
  8 10  4  0
  8 25  4  0
  9 15  4  0
  9 17  1  0
 10 21  4  0
 11 25  4  0
 12 23  4  0
 13 20  4  0
 13 26  4  0
 14 19  4  0
 17 18  4  0
 17 24  4  0
 19 23  4  0
 20 24  4  0
 23 26  1  0
M  END
$$$$

 Created by Python create_sdf_string function

 26 30  0  0  0  0  0  0  0  0999 V2000
   10.0084   -1.8019   23.4945 C   0  0  0  0  0  0  0  0  0  0  0  0
   10.0005   -4.2520   16.5631 C   0  0  0  0  0  0  0  0  0  0  0  0
   10.2759   -4.0036   17.8845 C   0  0  0  0  0  0  0  0  0  0  0  0
    8.5652    1.5478   25.3778 N   0  0  0  0  0  0  0  0  0  0  0  0
    6.8048   -7.5457   17.8752 C   0  0  0  0  0  0  0  0  0  0  0  0
    6.1721   -8.2186   15.9886 N   0  0  0  0  0  0  0  0  0  0  0  0
   11.1764   -2.6600   19.5604 C   0  0  0  0  0  0  0  0  0  0  0  0
    9.5491   -0.6380   24.1912 C   0  0  0  0  0  0  0  0  0  0  0  0
    7.5337   -6.9256   16.9519 C   0  0  0  0  0  0  0  0  0  0  0  0
    9.6782    0.5671   23.5143 C   0  0  0  0  0  0  0  0  0  0  0  0
    8.4532    0.3482   26.0821 C   0  0  0  0  0  0  0  0  0  0  0  0
   10.4239   -1.7677   22.2230 N   0  0  0  0  0  0  0  0  0  0  0  0
    9.9468   -4.5953   20.1709 C   0  0  0  0  0  0  0  0  0  0  0  0
   10.0366   -3.0590   23.9864 N   0  0  0  0  0  0  0  0  0  0  0  0
    7.1191   -7.3636   15.7739 C   0  0  0  0  0  0  0  0  0  0  0  0
    5.9612   -8.3203   17.2732 N   0  0  0  0  0  0  0  0  0  0  0  0
    8.5296   -5.9814   17.1841 C   0  0  0  0  0  0  0  0  0  0  0  0
    9.1527   -5.2118   16.2116 C   0  0  0  0  0  0  0  0  0  0  0  0
   10.3364   -3.8368   22.9255 O   0  0  0  0  0  0  0  0  0  0  0  0
    9.6947   -4.8407   18.8534 C   0  0  0  0  0  0  0  0  0  0  0  0
    9.1596    1.7042   24.1381 C   0  0  0  0  0  0  0  0  0  0  0  0
   11.0456   -2.9774   18.2694 N   0  0  0  0  0  0  0  0  0  0  0  0
   10.4788   -3.0457   21.8593 C   0  0  0  0  0  0  0  0  0  0  0  0
    8.8693   -5.8099   18.4657 N   0  0  0  0  0  0  0  0  0  0  0  0
    8.9892   -0.7926   25.4573 C   0  0  0  0  0  0  0  0  0  0  0  0
   10.5677   -3.4462   20.5323 C   0  0  0  0  0  0  0  0  0  0  0  0
  1  8  1  0
  1 12  4  0
  1 14  4  0
  2  3  4  0
  2 18  4  0
  3 20  4  0
  3 22  4  0
  4 11  4  0
  4 21  4  0
  5  9  4  0
  5 16  4  0
  6 15  4  0
  6 16  4  0
  7 22  4  0
  7 26  4  0
  8 10  4  0
  8 25  4  0
  9 15  4  0
  9 17  1  0
 10 21  4  0
 11 25  4  0
 12 23  4  0
 13 20  4  0
 13 26  4  0
 14 19  4  0
 17 18  4  0
 17 24  4  0
 19 23  4  0
 20 24  4  0
 23 26  1  0
M  END
$$$$

 Created by Python create_sdf_string function

 26 30  0  0  0  0  0  0  0  0999 V2000
   10.0084   -1.8019   23.4945 C   0  0  0  0  0  0  0  0  0  0  0  0
   10.0005   -4.2520   16.5631 C   0  0  0  0  0  0  0  0  0  0  0  0
   10.2759   -4.0036   17.8845 C   0  0  0  0  0  0  0  0  0  0  0  0
    8.5652    1.5478   25.3778 N   0  0  0  0  0  0  0  0  0  0  0  0
    6.8048   -7.5457   17.8752 C   0  0  0  0  0  0  0  0  0  0  0  0
    6.1721   -8.2186   15.9886 N   0  0  0  0  0  0  0  0  0  0  0  0
   11.1764   -2.6600   19.5604 C   0  0  0  0  0  0  0  0  0  0  0  0
    9.5491   -0.6380   24.1912 C   0  0  0  0  0  0  0  0  0  0  0  0
    7.5337   -6.9256   16.9519 C   0  0  0  0  0  0  0  0  0  0  0  0
    9.6782    0.5671   23.5143 C   0  0  0  0  0  0  0  0  0  0  0  0
    8.4532    0.3482   26.0821 C   0  0  0  0  0  0  0  0  0  0  0  0
   10.4239   -1.7677   22.2230 N   0  0  0  0  0  0  0  0  0  0  0  0
    9.9468   -4.5953   20.1709 C   0  0  0  0  0  0  0  0  0  0  0  0
   10.0366   -3.0590   23.9864 N   0  0  0  0  0  0  0  0  0  0  0  0
    7.1191   -7.3636   15.7739 C   0  0  0  0  0  0  0  0  0  0  0  0
    5.9612   -8.3203   17.2732 N   0  0  0  0  0  0  0  0  0  0  0  0
    8.5296   -5.9814   17.1841 C   0  0  0  0  0  0  0  0  0  0  0  0
    9.1527   -5.2118   16.2116 C   0  0  0  0  0  0  0  0  0  0  0  0
   10.3364   -3.8368   22.9255 O   0  0  0  0  0  0  0  0  0  0  0  0
    9.6947   -4.8407   18.8534 C   0  0  0  0  0  0  0  0  0  0  0  0
    9.1596    1.7042   24.1381 C   0  0  0  0  0  0  0  0  0  0  0  0
   11.0456   -2.9774   18.2694 N   0  0  0  0  0  0  0  0  0  0  0  0
   10.4788   -3.0457   21.8593 C   0  0  0  0  0  0  0  0  0  0  0  0
    8.8693   -5.8099   18.4657 N   0  0  0  0  0  0  0  0  0  0  0  0
    8.9892   -0.7926   25.4573 C   0  0  0  0  0  0  0  0  0  0  0  0
   10.5677   -3.4462   20.5323 C   0  0  0  0  0  0  0  0  0  0  0  0
  1  8  1  0
  1 12  4  0
  1 14  4  0
  2  3  4  0
  2 18  4  0
  3 20  4  0
  3 22  4  0
  4 11  4  0
  4 21  4  0
  5  9  4  0
  5 16  4  0
  6 15  4  0
  6 16  4  0
  7 22  4  0
  7 26  4  0
  8 10  4  0
  8 25  4  0
  9 15  4  0
  9 17  1  0
 10 21  4  0
 11 25  4  0
 12 23  4  0
 13 20  4  0
 13 26  4  0
 14 19  4  0
 17 18  4  0
 17 24  4  0
 19 23  4  0
 20 24  4  0
 23 26  1  0
M  END
$$$$

 Created by Python create_sdf_string function

 26 30  0  0  0  0  0  0  0  0999 V2000
   10.0084   -1.8019   23.4945 C   0  0  0  0  0  0  0  0  0  0  0  0
   10.0005   -4.2520   16.5631 C   0  0  0  0  0  0  0  0  0  0  0  0
   10.2759   -4.0036   17.8845 C   0  0  0  0  0  0  0  0  0  0  0  0
    8.5652    1.5478   25.3778 N   0  0  0  0  0  0  0  0  0  0  0  0
    6.8048   -7.5457   17.8752 C   0  0  0  0  0  0  0  0  0  0  0  0
    6.1721   -8.2186   15.9886 N   0  0  0  0  0  0  0  0  0  0  0  0
   11.1764   -2.6600   19.5604 C   0  0  0  0  0  0  0  0  0  0  0  0
    9.5491   -0.6380   24.1912 C   0  0  0  0  0  0  0  0  0  0  0  0
    7.5337   -6.9256   16.9519 C   0  0  0  0  0  0  0  0  0  0  0  0
    9.6782    0.5671   23.5143 C   0  0  0  0  0  0  0  0  0  0  0  0
    8.4532    0.3482   26.0821 C   0  0  0  0  0  0  0  0  0  0  0  0
   10.4239   -1.7677   22.2230 N   0  0  0  0  0  0  0  0  0  0  0  0
    9.9468   -4.5953   20.1709 C   0  0  0  0  0  0  0  0  0  0  0  0
   10.0366   -3.0590   23.9864 N   0  0  0  0  0  0  0  0  0  0  0  0
    7.1191   -7.3636   15.7739 C   0  0  0  0  0  0  0  0  0  0  0  0
    5.9612   -8.3203   17.2732 N   0  0  0  0  0  0  0  0  0  0  0  0
    8.5296   -5.9814   17.1841 C   0  0  0  0  0  0  0  0  0  0  0  0
    9.1527   -5.2118   16.2116 C   0  0  0  0  0  0  0  0  0  0  0  0
   10.3364   -3.8368   22.9255 O   0  0  0  0  0  0  0  0  0  0  0  0
    9.6947   -4.8407   18.8534 C   0  0  0  0  0  0  0  0  0  0  0  0
    9.1596    1.7042   24.1381 C   0  0  0  0  0  0  0  0  0  0  0  0
   11.0456   -2.9774   18.2694 N   0  0  0  0  0  0  0  0  0  0  0  0
   10.4788   -3.0457   21.8593 C   0  0  0  0  0  0  0  0  0  0  0  0
    8.8693   -5.8099   18.4657 N   0  0  0  0  0  0  0  0  0  0  0  0
    8.9892   -0.7926   25.4573 C   0  0  0  0  0  0  0  0  0  0  0  0
   10.5677   -3.4462   20.5323 C   0  0  0  0  0  0  0  0  0  0  0  0
  1  8  1  0
  1 12  4  0
  1 14  4  0
  2  3  4  0
  2 18  4  0
  3 20  4  0
  3 22  4  0
  4 11  4  0
  4 21  4  0
  5  9  4  0
  5 16  4  0
  6 15  4  0
  6 16  4  0
  7 22  4  0
  7 26  4  0
  8 10  4  0
  8 25  4  0
  9 15  4  0
  9 17  1  0
 10 21  4  0
 11 25  4  0
 12 23  4  0
 13 20  4  0
 13 26  4  0
 14 19  4  0
 17 18  4  0
 17 24  4  0
 19 23  4  0
 20 24  4  0
 23 26  1  0
M  END
$$$$

 Created by Python create_sdf_string function

 26 30  0  0  0  0  0  0  0  0999 V2000
   10.0084   -1.8019   23.4945 C   0  0  0  0  0  0  0  0  0  0  0  0
   10.0005   -4.2520   16.5631 C   0  0  0  0  0  0  0  0  0  0  0  0
   10.2759   -4.0036   17.8845 C   0  0  0  0  0  0  0  0  0  0  0  0
    8.5652    1.5478   25.3778 N   0  0  0  0  0  0  0  0  0  0  0  0
    6.8048   -7.5457   17.8752 C   0  0  0  0  0  0  0  0  0  0  0  0
    6.1721   -8.2186   15.9886 N   0  0  0  0  0  0  0  0  0  0  0  0
   11.1764   -2.6600   19.5604 C   0  0  0  0  0  0  0  0  0  0  0  0
    9.5491   -0.6380   24.1912 C   0  0  0  0  0  0  0  0  0  0  0  0
    7.5337   -6.9256   16.9519 C   0  0  0  0  0  0  0  0  0  0  0  0
    9.6782    0.5671   23.5143 C   0  0  0  0  0  0  0  0  0  0  0  0
    8.4532    0.3482   26.0821 C   0  0  0  0  0  0  0  0  0  0  0  0
   10.4239   -1.7677   22.2230 N   0  0  0  0  0  0  0  0  0  0  0  0
    9.9468   -4.5953   20.1709 C   0  0  0  0  0  0  0  0  0  0  0  0
   10.0366   -3.0590   23.9864 N   0  0  0  0  0  0  0  0  0  0  0  0
    7.1191   -7.3636   15.7739 C   0  0  0  0  0  0  0  0  0  0  0  0
    5.9612   -8.3203   17.2732 N   0  0  0  0  0  0  0  0  0  0  0  0
    8.5296   -5.9814   17.1841 C   0  0  0  0  0  0  0  0  0  0  0  0
    9.1527   -5.2118   16.2116 C   0  0  0  0  0  0  0  0  0  0  0  0
   10.3364   -3.8368   22.9255 O   0  0  0  0  0  0  0  0  0  0  0  0
    9.6947   -4.8407   18.8534 C   0  0  0  0  0  0  0  0  0  0  0  0
    9.1596    1.7042   24.1381 C   0  0  0  0  0  0  0  0  0  0  0  0
   11.0456   -2.9774   18.2694 N   0  0  0  0  0  0  0  0  0  0  0  0
   10.4788   -3.0457   21.8593 C   0  0  0  0  0  0  0  0  0  0  0  0
    8.8693   -5.8099   18.4657 N   0  0  0  0  0  0  0  0  0  0  0  0
    8.9892   -0.7926   25.4573 C   0  0  0  0  0  0  0  0  0  0  0  0
   10.5677   -3.4462   20.5323 C   0  0  0  0  0  0  0  0  0  0  0  0
  1  8  1  0
  1 12  4  0
  1 14  4  0
  2  3  4  0
  2 18  4  0
  3 20  4  0
  3 22  4  0
  4 11  4  0
  4 21  4  0
  5  9  4  0
  5 16  4  0
  6 15  4  0
  6 16  4  0
  7 22  4  0
  7 26  4  0
  8 10  4  0
  8 25  4  0
  9 15  4  0
  9 17  1  0
 10 21  4  0
 11 25  4  0
 12 23  4  0
 13 20  4  0
 13 26  4  0
 14 19  4  0
 17 18  4  0
 17 24  4  0
 19 23  4  0
 20 24  4  0
 23 26  1  0
M  END
$$$$

 Created by Python create_sdf_string function

 26 30  0  0  0  0  0  0  0  0999 V2000
   10.0084   -1.8019   23.4945 C   0  0  0  0  0  0  0  0  0  0  0  0
   10.0005   -4.2520   16.5631 C   0  0  0  0  0  0  0  0  0  0  0  0
   10.2759   -4.0036   17.8845 C   0  0  0  0  0  0  0  0  0  0  0  0
    8.5652    1.5478   25.3778 N   0  0  0  0  0  0  0  0  0  0  0  0
    6.8048   -7.5457   17.8752 C   0  0  0  0  0  0  0  0  0  0  0  0
    6.1721   -8.2186   15.9886 N   0  0  0  0  0  0  0  0  0  0  0  0
   11.1764   -2.6600   19.5604 C   0  0  0  0  0  0  0  0  0  0  0  0
    9.5491   -0.6380   24.1912 C   0  0  0  0  0  0  0  0  0  0  0  0
    7.5337   -6.9256   16.9519 C   0  0  0  0  0  0  0  0  0  0  0  0
    9.6782    0.5671   23.5143 C   0  0  0  0  0  0  0  0  0  0  0  0
    8.4532    0.3482   26.0821 C   0  0  0  0  0  0  0  0  0  0  0  0
   10.4239   -1.7677   22.2230 N   0  0  0  0  0  0  0  0  0  0  0  0
    9.9468   -4.5953   20.1709 C   0  0  0  0  0  0  0  0  0  0  0  0
   10.0366   -3.0590   23.9864 N   0  0  0  0  0  0  0  0  0  0  0  0
    7.1191   -7.3636   15.7739 C   0  0  0  0  0  0  0  0  0  0  0  0
    5.9612   -8.3203   17.2732 N   0  0  0  0  0  0  0  0  0  0  0  0
    8.5296   -5.9814   17.1841 C   0  0  0  0  0  0  0  0  0  0  0  0
    9.1527   -5.2118   16.2116 C   0  0  0  0  0  0  0  0  0  0  0  0
   10.3364   -3.8368   22.9255 O   0  0  0  0  0  0  0  0  0  0  0  0
    9.6947   -4.8407   18.8534 C   0  0  0  0  0  0  0  0  0  0  0  0
    9.1596    1.7042   24.1381 C   0  0  0  0  0  0  0  0  0  0  0  0
   11.0456   -2.9774   18.2694 N   0  0  0  0  0  0  0  0  0  0  0  0
   10.4788   -3.0457   21.8593 C   0  0  0  0  0  0  0  0  0  0  0  0
    8.8693   -5.8099   18.4657 N   0  0  0  0  0  0  0  0  0  0  0  0
    8.9892   -0.7926   25.4573 C   0  0  0  0  0  0  0  0  0  0  0  0
   10.5677   -3.4462   20.5323 C   0  0  0  0  0  0  0  0  0  0  0  0
  1  8  1  0
  1 12  4  0
  1 14  4  0
  2  3  4  0
  2 18  4  0
  3 20  4  0
  3 22  4  0
  4 11  4  0
  4 21  4  0
  5  9  4  0
  5 16  4  0
  6 15  4  0
  6 16  4  0
  7 22  4  0
  7 26  4  0
  8 10  4  0
  8 25  4  0
  9 15  4  0
  9 17  1  0
 10 21  4  0
 11 25  4  0
 12 23  4  0
 13 20  4  0
 13 26  4  0
 14 19  4  0
 17 18  4  0
 17 24  4  0
 19 23  4  0
 20 24  4  0
 23 26  1  0
M  END
$$$$

 Created by Python create_sdf_string function

 26 30  0  0  0  0  0  0  0  0999 V2000
   10.0084   -1.8019   23.4945 C   0  0  0  0  0  0  0  0  0  0  0  0
   10.0005   -4.2520   16.5631 C   0  0  0  0  0  0  0  0  0  0  0  0
   10.2759   -4.0036   17.8845 C   0  0  0  0  0  0  0  0  0  0  0  0
    8.5652    1.5478   25.3778 N   0  0  0  0  0  0  0  0  0  0  0  0
    6.8048   -7.5457   17.8752 C   0  0  0  0  0  0  0  0  0  0  0  0
    6.1721   -8.2186   15.9886 N   0  0  0  0  0  0  0  0  0  0  0  0
   11.1764   -2.6600   19.5604 C   0  0  0  0  0  0  0  0  0  0  0  0
    9.5491   -0.6380   24.1912 C   0  0  0  0  0  0  0  0  0  0  0  0
    7.5337   -6.9256   16.9519 C   0  0  0  0  0  0  0  0  0  0  0  0
    9.6782    0.5671   23.5143 C   0  0  0  0  0  0  0  0  0  0  0  0
    8.4532    0.3482   26.0821 C   0  0  0  0  0  0  0  0  0  0  0  0
   10.4239   -1.7677   22.2230 N   0  0  0  0  0  0  0  0  0  0  0  0
    9.9468   -4.5953   20.1709 C   0  0  0  0  0  0  0  0  0  0  0  0
   10.0366   -3.0590   23.9864 N   0  0  0  0  0  0  0  0  0  0  0  0
    7.1191   -7.3636   15.7739 C   0  0  0  0  0  0  0  0  0  0  0  0
    5.9612   -8.3203   17.2732 N   0  0  0  0  0  0  0  0  0  0  0  0
    8.5296   -5.9814   17.1841 C   0  0  0  0  0  0  0  0  0  0  0  0
    9.1527   -5.2118   16.2116 C   0  0  0  0  0  0  0  0  0  0  0  0
   10.3364   -3.8368   22.9255 O   0  0  0  0  0  0  0  0  0  0  0  0
    9.6947   -4.8407   18.8534 C   0  0  0  0  0  0  0  0  0  0  0  0
    9.1596    1.7042   24.1381 C   0  0  0  0  0  0  0  0  0  0  0  0
   11.0456   -2.9774   18.2694 N   0  0  0  0  0  0  0  0  0  0  0  0
   10.4788   -3.0457   21.8593 C   0  0  0  0  0  0  0  0  0  0  0  0
    8.8693   -5.8099   18.4657 N   0  0  0  0  0  0  0  0  0  0  0  0
    8.9892   -0.7926   25.4573 C   0  0  0  0  0  0  0  0  0  0  0  0
   10.5677   -3.4462   20.5323 C   0  0  0  0  0  0  0  0  0  0  0  0
  1  8  1  0
  1 12  4  0
  1 14  4  0
  2  3  4  0
  2 18  4  0
  3 20  4  0
  3 22  4  0
  4 11  4  0
  4 21  4  0
  5  9  4  0
  5 16  4  0
  6 15  4  0
  6 16  4  0
  7 22  4  0
  7 26  4  0
  8 10  4  0
  8 25  4  0
  9 15  4  0
  9 17  1  0
 10 21  4  0
 11 25  4  0
 12 23  4  0
 13 20  4  0
 13 26  4  0
 14 19  4  0
 17 18  4  0
 17 24  4  0
 19 23  4  0
 20 24  4  0
 23 26  1  0
M  END
$$$$

 Created by Python create_sdf_string function

 26 30  0  0  0  0  0  0  0  0999 V2000
   10.0084   -1.8019   23.4945 C   0  0  0  0  0  0  0  0  0  0  0  0
   10.0005   -4.2520   16.5631 C   0  0  0  0  0  0  0  0  0  0  0  0
   10.2759   -4.0036   17.8845 C   0  0  0  0  0  0  0  0  0  0  0  0
    8.5652    1.5478   25.3778 N   0  0  0  0  0  0  0  0  0  0  0  0
    6.8048   -7.5457   17.8752 C   0  0  0  0  0  0  0  0  0  0  0  0
    6.1721   -8.2186   15.9886 N   0  0  0  0  0  0  0  0  0  0  0  0
   11.1764   -2.6600   19.5604 C   0  0  0  0  0  0  0  0  0  0  0  0
    9.5491   -0.6380   24.1912 C   0  0  0  0  0  0  0  0  0  0  0  0
    7.5337   -6.9256   16.9519 C   0  0  0  0  0  0  0  0  0  0  0  0
    9.6782    0.5671   23.5143 C   0  0  0  0  0  0  0  0  0  0  0  0
    8.4532    0.3482   26.0821 C   0  0  0  0  0  0  0  0  0  0  0  0
   10.4239   -1.7677   22.2230 N   0  0  0  0  0  0  0  0  0  0  0  0
    9.9468   -4.5953   20.1709 C   0  0  0  0  0  0  0  0  0  0  0  0
   10.0366   -3.0590   23.9864 N   0  0  0  0  0  0  0  0  0  0  0  0
    7.1191   -7.3636   15.7739 C   0  0  0  0  0  0  0  0  0  0  0  0
    5.9612   -8.3203   17.2732 N   0  0  0  0  0  0  0  0  0  0  0  0
    8.5296   -5.9814   17.1841 C   0  0  0  0  0  0  0  0  0  0  0  0
    9.1527   -5.2118   16.2116 C   0  0  0  0  0  0  0  0  0  0  0  0
   10.3364   -3.8368   22.9255 O   0  0  0  0  0  0  0  0  0  0  0  0
    9.6947   -4.8407   18.8534 C   0  0  0  0  0  0  0  0  0  0  0  0
    9.1596    1.7042   24.1381 C   0  0  0  0  0  0  0  0  0  0  0  0
   11.0456   -2.9774   18.2694 N   0  0  0  0  0  0  0  0  0  0  0  0
   10.4788   -3.0457   21.8593 C   0  0  0  0  0  0  0  0  0  0  0  0
    8.8693   -5.8099   18.4657 N   0  0  0  0  0  0  0  0  0  0  0  0
    8.9892   -0.7926   25.4573 C   0  0  0  0  0  0  0  0  0  0  0  0
   10.5677   -3.4462   20.5323 C   0  0  0  0  0  0  0  0  0  0  0  0
  1  8  1  0
  1 12  4  0
  1 14  4  0
  2  3  4  0
  2 18  4  0
  3 20  4  0
  3 22  4  0
  4 11  4  0
  4 21  4  0
  5  9  4  0
  5 16  4  0
  6 15  4  0
  6 16  4  0
  7 22  4  0
  7 26  4  0
  8 10  4  0
  8 25  4  0
  9 15  4  0
  9 17  1  0
 10 21  4  0
 11 25  4  0
 12 23  4  0
 13 20  4  0
 13 26  4  0
 14 19  4  0
 17 18  4  0
 17 24  4  0
 19 23  4  0
 20 24  4  0
 23 26  1  0
M  END
$$$$

 Created by Python create_sdf_string function

 26 30  0  0  0  0  0  0  0  0999 V2000
   10.0084   -1.8019   23.4945 C   0  0  0  0  0  0  0  0  0  0  0  0
   10.0005   -4.2520   16.5631 C   0  0  0  0  0  0  0  0  0  0  0  0
   10.2759   -4.0036   17.8845 C   0  0  0  0  0  0  0  0  0  0  0  0
    8.5652    1.5478   25.3778 N   0  0  0  0  0  0  0  0  0  0  0  0
    6.8048   -7.5457   17.8752 C   0  0  0  0  0  0  0  0  0  0  0  0
    6.1721   -8.2186   15.9886 N   0  0  0  0  0  0  0  0  0  0  0  0
   11.1764   -2.6600   19.5604 C   0  0  0  0  0  0  0  0  0  0  0  0
    9.5491   -0.6380   24.1912 C   0  0  0  0  0  0  0  0  0  0  0  0
    7.5337   -6.9256   16.9519 C   0  0  0  0  0  0  0  0  0  0  0  0
    9.6782    0.5671   23.5143 C   0  0  0  0  0  0  0  0  0  0  0  0
    8.4532    0.3482   26.0821 C   0  0  0  0  0  0  0  0  0  0  0  0
   10.4239   -1.7677   22.2230 N   0  0  0  0  0  0  0  0  0  0  0  0
    9.9468   -4.5953   20.1709 C   0  0  0  0  0  0  0  0  0  0  0  0
   10.0366   -3.0590   23.9864 N   0  0  0  0  0  0  0  0  0  0  0  0
    7.1191   -7.3636   15.7739 C   0  0  0  0  0  0  0  0  0  0  0  0
    5.9612   -8.3203   17.2732 N   0  0  0  0  0  0  0  0  0  0  0  0
    8.5296   -5.9814   17.1841 C   0  0  0  0  0  0  0  0  0  0  0  0
    9.1527   -5.2118   16.2116 C   0  0  0  0  0  0  0  0  0  0  0  0
   10.3364   -3.8368   22.9255 O   0  0  0  0  0  0  0  0  0  0  0  0
    9.6947   -4.8407   18.8534 C   0  0  0  0  0  0  0  0  0  0  0  0
    9.1596    1.7042   24.1381 C   0  0  0  0  0  0  0  0  0  0  0  0
   11.0456   -2.9774   18.2694 N   0  0  0  0  0  0  0  0  0  0  0  0
   10.4788   -3.0457   21.8593 C   0  0  0  0  0  0  0  0  0  0  0  0
    8.8693   -5.8099   18.4657 N   0  0  0  0  0  0  0  0  0  0  0  0
    8.9892   -0.7926   25.4573 C   0  0  0  0  0  0  0  0  0  0  0  0
   10.5677   -3.4462   20.5323 C   0  0  0  0  0  0  0  0  0  0  0  0
  1  8  1  0
  1 12  4  0
  1 14  4  0
  2  3  4  0
  2 18  4  0
  3 20  4  0
  3 22  4  0
  4 11  4  0
  4 21  4  0
  5  9  4  0
  5 16  4  0
  6 15  4  0
  6 16  4  0
  7 22  4  0
  7 26  4  0
  8 10  4  0
  8 25  4  0
  9 15  4  0
  9 17  1  0
 10 21  4  0
 11 25  4  0
 12 23  4  0
 13 20  4  0
 13 26  4  0
 14 19  4  0
 17 18  4  0
 17 24  4  0
 19 23  4  0
 20 24  4  0
 23 26  1  0
M  END
$$$$

 Created by Python create_sdf_string function

 26 30  0  0  0  0  0  0  0  0999 V2000
   10.0084   -1.8019   23.4945 C   0  0  0  0  0  0  0  0  0  0  0  0
   10.0005   -4.2520   16.5631 C   0  0  0  0  0  0  0  0  0  0  0  0
   10.2759   -4.0036   17.8845 C   0  0  0  0  0  0  0  0  0  0  0  0
    8.5652    1.5478   25.3778 N   0  0  0  0  0  0  0  0  0  0  0  0
    6.8048   -7.5457   17.8752 C   0  0  0  0  0  0  0  0  0  0  0  0
    6.1721   -8.2186   15.9886 N   0  0  0  0  0  0  0  0  0  0  0  0
   11.1764   -2.6600   19.5604 C   0  0  0  0  0  0  0  0  0  0  0  0
    9.5491   -0.6380   24.1912 C   0  0  0  0  0  0  0  0  0  0  0  0
    7.5337   -6.9256   16.9519 C   0  0  0  0  0  0  0  0  0  0  0  0
    9.6782    0.5671   23.5143 C   0  0  0  0  0  0  0  0  0  0  0  0
    8.4532    0.3482   26.0821 C   0  0  0  0  0  0  0  0  0  0  0  0
   10.4239   -1.7677   22.2230 N   0  0  0  0  0  0  0  0  0  0  0  0
    9.9468   -4.5953   20.1709 C   0  0  0  0  0  0  0  0  0  0  0  0
   10.0366   -3.0590   23.9864 N   0  0  0  0  0  0  0  0  0  0  0  0
    7.1191   -7.3636   15.7739 C   0  0  0  0  0  0  0  0  0  0  0  0
    5.9612   -8.3203   17.2732 N   0  0  0  0  0  0  0  0  0  0  0  0
    8.5296   -5.9814   17.1841 C   0  0  0  0  0  0  0  0  0  0  0  0
    9.1527   -5.2118   16.2116 C   0  0  0  0  0  0  0  0  0  0  0  0
   10.3364   -3.8368   22.9255 O   0  0  0  0  0  0  0  0  0  0  0  0
    9.6947   -4.8407   18.8534 C   0  0  0  0  0  0  0  0  0  0  0  0
    9.1596    1.7042   24.1381 C   0  0  0  0  0  0  0  0  0  0  0  0
   11.0456   -2.9774   18.2694 N   0  0  0  0  0  0  0  0  0  0  0  0
   10.4788   -3.0457   21.8593 C   0  0  0  0  0  0  0  0  0  0  0  0
    8.8693   -5.8099   18.4657 N   0  0  0  0  0  0  0  0  0  0  0  0
    8.9892   -0.7926   25.4573 C   0  0  0  0  0  0  0  0  0  0  0  0
   10.5677   -3.4462   20.5323 C   0  0  0  0  0  0  0  0  0  0  0  0
  1  8  1  0
  1 12  4  0
  1 14  4  0
  2  3  4  0
  2 18  4  0
  3 20  4  0
  3 22  4  0
  4 11  4  0
  4 21  4  0
  5  9  4  0
  5 16  4  0
  6 15  4  0
  6 16  4  0
  7 22  4  0
  7 26  4  0
  8 10  4  0
  8 25  4  0
  9 15  4  0
  9 17  1  0
 10 21  4  0
 11 25  4  0
 12 23  4  0
 13 20  4  0
 13 26  4  0
 14 19  4  0
 17 18  4  0
 17 24  4  0
 19 23  4  0
 20 24  4  0
 23 26  1  0
M  END
$$$$

 Created by Python create_sdf_string function

 26 30  0  0  0  0  0  0  0  0999 V2000
   10.0084   -1.8019   23.4945 C   0  0  0  0  0  0  0  0  0  0  0  0
   10.0005   -4.2520   16.5631 C   0  0  0  0  0  0  0  0  0  0  0  0
   10.2759   -4.0036   17.8845 C   0  0  0  0  0  0  0  0  0  0  0  0
    8.5652    1.5478   25.3778 N   0  0  0  0  0  0  0  0  0  0  0  0
    6.8048   -7.5457   17.8752 C   0  0  0  0  0  0  0  0  0  0  0  0
    6.1721   -8.2186   15.9886 N   0  0  0  0  0  0  0  0  0  0  0  0
   11.1764   -2.6600   19.5604 C   0  0  0  0  0  0  0  0  0  0  0  0
    9.5491   -0.6380   24.1912 C   0  0  0  0  0  0  0  0  0  0  0  0
    7.5337   -6.9256   16.9519 C   0  0  0  0  0  0  0  0  0  0  0  0
    9.6782    0.5671   23.5143 C   0  0  0  0  0  0  0  0  0  0  0  0
    8.4532    0.3482   26.0821 C   0  0  0  0  0  0  0  0  0  0  0  0
   10.4239   -1.7677   22.2230 N   0  0  0  0  0  0  0  0  0  0  0  0
    9.9468   -4.5953   20.1709 C   0  0  0  0  0  0  0  0  0  0  0  0
   10.0366   -3.0590   23.9864 N   0  0  0  0  0  0  0  0  0  0  0  0
    7.1191   -7.3636   15.7739 C   0  0  0  0  0  0  0  0  0  0  0  0
    5.9612   -8.3203   17.2732 N   0  0  0  0  0  0  0  0  0  0  0  0
    8.5296   -5.9814   17.1841 C   0  0  0  0  0  0  0  0  0  0  0  0
    9.1527   -5.2118   16.2116 C   0  0  0  0  0  0  0  0  0  0  0  0
   10.3364   -3.8368   22.9255 O   0  0  0  0  0  0  0  0  0  0  0  0
    9.6947   -4.8407   18.8534 C   0  0  0  0  0  0  0  0  0  0  0  0
    9.1596    1.7042   24.1381 C   0  0  0  0  0  0  0  0  0  0  0  0
   11.0456   -2.9774   18.2694 N   0  0  0  0  0  0  0  0  0  0  0  0
   10.4788   -3.0457   21.8593 C   0  0  0  0  0  0  0  0  0  0  0  0
    8.8693   -5.8099   18.4657 N   0  0  0  0  0  0  0  0  0  0  0  0
    8.9892   -0.7926   25.4573 C   0  0  0  0  0  0  0  0  0  0  0  0
   10.5677   -3.4462   20.5323 C   0  0  0  0  0  0  0  0  0  0  0  0
  1  8  1  0
  1 12  4  0
  1 14  4  0
  2  3  4  0
  2 18  4  0
  3 20  4  0
  3 22  4  0
  4 11  4  0
  4 21  4  0
  5  9  4  0
  5 16  4  0
  6 15  4  0
  6 16  4  0
  7 22  4  0
  7 26  4  0
  8 10  4  0
  8 25  4  0
  9 15  4  0
  9 17  1  0
 10 21  4  0
 11 25  4  0
 12 23  4  0
 13 20  4  0
 13 26  4  0
 14 19  4  0
 17 18  4  0
 17 24  4  0
 19 23  4  0
 20 24  4  0
 23 26  1  0
M  END
$$$$

 Created by Python create_sdf_string function

 26 30  0  0  0  0  0  0  0  0999 V2000
   10.0084   -1.8019   23.4945 C   0  0  0  0  0  0  0  0  0  0  0  0
   10.0005   -4.2520   16.5631 C   0  0  0  0  0  0  0  0  0  0  0  0
   10.2759   -4.0036   17.8845 C   0  0  0  0  0  0  0  0  0  0  0  0
    8.5652    1.5478   25.3778 N   0  0  0  0  0  0  0  0  0  0  0  0
    6.8048   -7.5457   17.8752 C   0  0  0  0  0  0  0  0  0  0  0  0
    6.1721   -8.2186   15.9886 N   0  0  0  0  0  0  0  0  0  0  0  0
   11.1764   -2.6600   19.5604 C   0  0  0  0  0  0  0  0  0  0  0  0
    9.5491   -0.6380   24.1912 C   0  0  0  0  0  0  0  0  0  0  0  0
    7.5337   -6.9256   16.9519 C   0  0  0  0  0  0  0  0  0  0  0  0
    9.6782    0.5671   23.5143 C   0  0  0  0  0  0  0  0  0  0  0  0
    8.4532    0.3482   26.0821 C   0  0  0  0  0  0  0  0  0  0  0  0
   10.4239   -1.7677   22.2230 N   0  0  0  0  0  0  0  0  0  0  0  0
    9.9468   -4.5953   20.1709 C   0  0  0  0  0  0  0  0  0  0  0  0
   10.0366   -3.0590   23.9864 N   0  0  0  0  0  0  0  0  0  0  0  0
    7.1191   -7.3636   15.7739 C   0  0  0  0  0  0  0  0  0  0  0  0
    5.9612   -8.3203   17.2732 N   0  0  0  0  0  0  0  0  0  0  0  0
    8.5296   -5.9814   17.1841 C   0  0  0  0  0  0  0  0  0  0  0  0
    9.1527   -5.2118   16.2116 C   0  0  0  0  0  0  0  0  0  0  0  0
   10.3364   -3.8368   22.9255 O   0  0  0  0  0  0  0  0  0  0  0  0
    9.6947   -4.8407   18.8534 C   0  0  0  0  0  0  0  0  0  0  0  0
    9.1596    1.7042   24.1381 C   0  0  0  0  0  0  0  0  0  0  0  0
   11.0456   -2.9774   18.2694 N   0  0  0  0  0  0  0  0  0  0  0  0
   10.4788   -3.0457   21.8593 C   0  0  0  0  0  0  0  0  0  0  0  0
    8.8693   -5.8099   18.4657 N   0  0  0  0  0  0  0  0  0  0  0  0
    8.9892   -0.7926   25.4573 C   0  0  0  0  0  0  0  0  0  0  0  0
   10.5677   -3.4462   20.5323 C   0  0  0  0  0  0  0  0  0  0  0  0
  1  8  1  0
  1 12  4  0
  1 14  4  0
  2  3  4  0
  2 18  4  0
  3 20  4  0
  3 22  4  0
  4 11  4  0
  4 21  4  0
  5  9  4  0
  5 16  4  0
  6 15  4  0
  6 16  4  0
  7 22  4  0
  7 26  4  0
  8 10  4  0
  8 25  4  0
  9 15  4  0
  9 17  1  0
 10 21  4  0
 11 25  4  0
 12 23  4  0
 13 20  4  0
 13 26  4  0
 14 19  4  0
 17 18  4  0
 17 24  4  0
 19 23  4  0
 20 24  4  0
 23 26  1  0
M  END
$$$$

 Created by Python create_sdf_string function

 26 30  0  0  0  0  0  0  0  0999 V2000
   10.0084   -1.8019   23.4945 C   0  0  0  0  0  0  0  0  0  0  0  0
   10.0005   -4.2520   16.5631 C   0  0  0  0  0  0  0  0  0  0  0  0
   10.2759   -4.0036   17.8845 C   0  0  0  0  0  0  0  0  0  0  0  0
    8.5652    1.5478   25.3778 N   0  0  0  0  0  0  0  0  0  0  0  0
    6.8048   -7.5457   17.8752 C   0  0  0  0  0  0  0  0  0  0  0  0
    6.1721   -8.2186   15.9886 N   0  0  0  0  0  0  0  0  0  0  0  0
   11.1764   -2.6600   19.5604 C   0  0  0  0  0  0  0  0  0  0  0  0
    9.5491   -0.6380   24.1912 C   0  0  0  0  0  0  0  0  0  0  0  0
    7.5337   -6.9256   16.9519 C   0  0  0  0  0  0  0  0  0  0  0  0
    9.6782    0.5671   23.5143 C   0  0  0  0  0  0  0  0  0  0  0  0
    8.4532    0.3482   26.0821 C   0  0  0  0  0  0  0  0  0  0  0  0
   10.4239   -1.7677   22.2230 N   0  0  0  0  0  0  0  0  0  0  0  0
    9.9468   -4.5953   20.1709 C   0  0  0  0  0  0  0  0  0  0  0  0
   10.0366   -3.0590   23.9864 N   0  0  0  0  0  0  0  0  0  0  0  0
    7.1191   -7.3636   15.7739 C   0  0  0  0  0  0  0  0  0  0  0  0
    5.9612   -8.3203   17.2732 N   0  0  0  0  0  0  0  0  0  0  0  0
    8.5296   -5.9814   17.1841 C   0  0  0  0  0  0  0  0  0  0  0  0
    9.1527   -5.2118   16.2116 C   0  0  0  0  0  0  0  0  0  0  0  0
   10.3364   -3.8368   22.9255 O   0  0  0  0  0  0  0  0  0  0  0  0
    9.6947   -4.8407   18.8534 C   0  0  0  0  0  0  0  0  0  0  0  0
    9.1596    1.7042   24.1381 C   0  0  0  0  0  0  0  0  0  0  0  0
   11.0456   -2.9774   18.2694 N   0  0  0  0  0  0  0  0  0  0  0  0
   10.4788   -3.0457   21.8593 C   0  0  0  0  0  0  0  0  0  0  0  0
    8.8693   -5.8099   18.4657 N   0  0  0  0  0  0  0  0  0  0  0  0
    8.9892   -0.7926   25.4573 C   0  0  0  0  0  0  0  0  0  0  0  0
   10.5677   -3.4462   20.5323 C   0  0  0  0  0  0  0  0  0  0  0  0
  1  8  1  0
  1 12  4  0
  1 14  4  0
  2  3  4  0
  2 18  4  0
  3 20  4  0
  3 22  4  0
  4 11  4  0
  4 21  4  0
  5  9  4  0
  5 16  4  0
  6 15  4  0
  6 16  4  0
  7 22  4  0
  7 26  4  0
  8 10  4  0
  8 25  4  0
  9 15  4  0
  9 17  1  0
 10 21  4  0
 11 25  4  0
 12 23  4  0
 13 20  4  0
 13 26  4  0
 14 19  4  0
 17 18  4  0
 17 24  4  0
 19 23  4  0
 20 24  4  0
 23 26  1  0
M  END
$$$$

 Created by Python create_sdf_string function

 26 30  0  0  0  0  0  0  0  0999 V2000
   10.0084   -1.8019   23.4945 C   0  0  0  0  0  0  0  0  0  0  0  0
   10.0005   -4.2520   16.5631 C   0  0  0  0  0  0  0  0  0  0  0  0
   10.2759   -4.0036   17.8845 C   0  0  0  0  0  0  0  0  0  0  0  0
    8.5652    1.5478   25.3778 N   0  0  0  0  0  0  0  0  0  0  0  0
    6.8048   -7.5457   17.8752 C   0  0  0  0  0  0  0  0  0  0  0  0
    6.1721   -8.2186   15.9886 N   0  0  0  0  0  0  0  0  0  0  0  0
   11.1764   -2.6600   19.5604 C   0  0  0  0  0  0  0  0  0  0  0  0
    9.5491   -0.6380   24.1912 C   0  0  0  0  0  0  0  0  0  0  0  0
    7.5337   -6.9256   16.9519 C   0  0  0  0  0  0  0  0  0  0  0  0
    9.6782    0.5671   23.5143 C   0  0  0  0  0  0  0  0  0  0  0  0
    8.4532    0.3482   26.0821 C   0  0  0  0  0  0  0  0  0  0  0  0
   10.4239   -1.7677   22.2230 N   0  0  0  0  0  0  0  0  0  0  0  0
    9.9468   -4.5953   20.1709 C   0  0  0  0  0  0  0  0  0  0  0  0
   10.0366   -3.0590   23.9864 N   0  0  0  0  0  0  0  0  0  0  0  0
    7.1191   -7.3636   15.7739 C   0  0  0  0  0  0  0  0  0  0  0  0
    5.9612   -8.3203   17.2732 N   0  0  0  0  0  0  0  0  0  0  0  0
    8.5296   -5.9814   17.1841 C   0  0  0  0  0  0  0  0  0  0  0  0
    9.1527   -5.2118   16.2116 C   0  0  0  0  0  0  0  0  0  0  0  0
   10.3364   -3.8368   22.9255 O   0  0  0  0  0  0  0  0  0  0  0  0
    9.6947   -4.8407   18.8534 C   0  0  0  0  0  0  0  0  0  0  0  0
    9.1596    1.7042   24.1381 C   0  0  0  0  0  0  0  0  0  0  0  0
   11.0456   -2.9774   18.2694 N   0  0  0  0  0  0  0  0  0  0  0  0
   10.4788   -3.0457   21.8593 C   0  0  0  0  0  0  0  0  0  0  0  0
    8.8693   -5.8099   18.4657 N   0  0  0  0  0  0  0  0  0  0  0  0
    8.9892   -0.7926   25.4573 C   0  0  0  0  0  0  0  0  0  0  0  0
   10.5677   -3.4462   20.5323 C   0  0  0  0  0  0  0  0  0  0  0  0
  1  8  1  0
  1 12  4  0
  1 14  4  0
  2  3  4  0
  2 18  4  0
  3 20  4  0
  3 22  4  0
  4 11  4  0
  4 21  4  0
  5  9  4  0
  5 16  4  0
  6 15  4  0
  6 16  4  0
  7 22  4  0
  7 26  4  0
  8 10  4  0
  8 25  4  0
  9 15  4  0
  9 17  1  0
 10 21  4  0
 11 25  4  0
 12 23  4  0
 13 20  4  0
 13 26  4  0
 14 19  4  0
 17 18  4  0
 17 24  4  0
 19 23  4  0
 20 24  4  0
 23 26  1  0
M  END
$$$$

 Created by Python create_sdf_string function

 26 30  0  0  0  0  0  0  0  0999 V2000
   10.0084   -1.8019   23.4945 C   0  0  0  0  0  0  0  0  0  0  0  0
   10.0005   -4.2520   16.5631 C   0  0  0  0  0  0  0  0  0  0  0  0
   10.2759   -4.0036   17.8845 C   0  0  0  0  0  0  0  0  0  0  0  0
    8.5652    1.5478   25.3778 N   0  0  0  0  0  0  0  0  0  0  0  0
    6.8048   -7.5457   17.8752 C   0  0  0  0  0  0  0  0  0  0  0  0
    6.1721   -8.2186   15.9886 N   0  0  0  0  0  0  0  0  0  0  0  0
   11.1764   -2.6600   19.5604 C   0  0  0  0  0  0  0  0  0  0  0  0
    9.5491   -0.6380   24.1912 C   0  0  0  0  0  0  0  0  0  0  0  0
    7.5337   -6.9256   16.9519 C   0  0  0  0  0  0  0  0  0  0  0  0
    9.6782    0.5671   23.5143 C   0  0  0  0  0  0  0  0  0  0  0  0
    8.4532    0.3482   26.0821 C   0  0  0  0  0  0  0  0  0  0  0  0
   10.4239   -1.7677   22.2230 N   0  0  0  0  0  0  0  0  0  0  0  0
    9.9468   -4.5953   20.1709 C   0  0  0  0  0  0  0  0  0  0  0  0
   10.0366   -3.0590   23.9864 N   0  0  0  0  0  0  0  0  0  0  0  0
    7.1191   -7.3636   15.7739 C   0  0  0  0  0  0  0  0  0  0  0  0
    5.9612   -8.3203   17.2732 N   0  0  0  0  0  0  0  0  0  0  0  0
    8.5296   -5.9814   17.1841 C   0  0  0  0  0  0  0  0  0  0  0  0
    9.1527   -5.2118   16.2116 C   0  0  0  0  0  0  0  0  0  0  0  0
   10.3364   -3.8368   22.9255 O   0  0  0  0  0  0  0  0  0  0  0  0
    9.6947   -4.8407   18.8534 C   0  0  0  0  0  0  0  0  0  0  0  0
    9.1596    1.7042   24.1381 C   0  0  0  0  0  0  0  0  0  0  0  0
   11.0456   -2.9774   18.2694 N   0  0  0  0  0  0  0  0  0  0  0  0
   10.4788   -3.0457   21.8593 C   0  0  0  0  0  0  0  0  0  0  0  0
    8.8693   -5.8099   18.4657 N   0  0  0  0  0  0  0  0  0  0  0  0
    8.9892   -0.7926   25.4573 C   0  0  0  0  0  0  0  0  0  0  0  0
   10.5677   -3.4462   20.5323 C   0  0  0  0  0  0  0  0  0  0  0  0
  1  8  1  0
  1 12  4  0
  1 14  4  0
  2  3  4  0
  2 18  4  0
  3 20  4  0
  3 22  4  0
  4 11  4  0
  4 21  4  0
  5  9  4  0
  5 16  4  0
  6 15  4  0
  6 16  4  0
  7 22  4  0
  7 26  4  0
  8 10  4  0
  8 25  4  0
  9 15  4  0
  9 17  1  0
 10 21  4  0
 11 25  4  0
 12 23  4  0
 13 20  4  0
 13 26  4  0
 14 19  4  0
 17 18  4  0
 17 24  4  0
 19 23  4  0
 20 24  4  0
 23 26  1  0
M  END
$$$$

 Created by Python create_sdf_string function

 26 30  0  0  0  0  0  0  0  0999 V2000
   10.0084   -1.8019   23.4945 C   0  0  0  0  0  0  0  0  0  0  0  0
   10.0005   -4.2520   16.5631 C   0  0  0  0  0  0  0  0  0  0  0  0
   10.2759   -4.0036   17.8845 C   0  0  0  0  0  0  0  0  0  0  0  0
    8.5652    1.5478   25.3778 N   0  0  0  0  0  0  0  0  0  0  0  0
    6.8048   -7.5457   17.8752 C   0  0  0  0  0  0  0  0  0  0  0  0
    6.1721   -8.2186   15.9886 N   0  0  0  0  0  0  0  0  0  0  0  0
   11.1764   -2.6600   19.5604 C   0  0  0  0  0  0  0  0  0  0  0  0
    9.5491   -0.6380   24.1912 C   0  0  0  0  0  0  0  0  0  0  0  0
    7.5337   -6.9256   16.9519 C   0  0  0  0  0  0  0  0  0  0  0  0
    9.6782    0.5671   23.5143 C   0  0  0  0  0  0  0  0  0  0  0  0
    8.4532    0.3482   26.0821 C   0  0  0  0  0  0  0  0  0  0  0  0
   10.4239   -1.7677   22.2230 N   0  0  0  0  0  0  0  0  0  0  0  0
    9.9468   -4.5953   20.1709 C   0  0  0  0  0  0  0  0  0  0  0  0
   10.0366   -3.0590   23.9864 N   0  0  0  0  0  0  0  0  0  0  0  0
    7.1191   -7.3636   15.7739 C   0  0  0  0  0  0  0  0  0  0  0  0
    5.9612   -8.3203   17.2732 N   0  0  0  0  0  0  0  0  0  0  0  0
    8.5296   -5.9814   17.1841 C   0  0  0  0  0  0  0  0  0  0  0  0
    9.1527   -5.2118   16.2116 C   0  0  0  0  0  0  0  0  0  0  0  0
   10.3364   -3.8368   22.9255 O   0  0  0  0  0  0  0  0  0  0  0  0
    9.6947   -4.8407   18.8534 C   0  0  0  0  0  0  0  0  0  0  0  0
    9.1596    1.7042   24.1381 C   0  0  0  0  0  0  0  0  0  0  0  0
   11.0456   -2.9774   18.2694 N   0  0  0  0  0  0  0  0  0  0  0  0
   10.4788   -3.0457   21.8593 C   0  0  0  0  0  0  0  0  0  0  0  0
    8.8693   -5.8099   18.4657 N   0  0  0  0  0  0  0  0  0  0  0  0
    8.9892   -0.7926   25.4573 C   0  0  0  0  0  0  0  0  0  0  0  0
   10.5677   -3.4462   20.5323 C   0  0  0  0  0  0  0  0  0  0  0  0
  1  8  1  0
  1 12  4  0
  1 14  4  0
  2  3  4  0
  2 18  4  0
  3 20  4  0
  3 22  4  0
  4 11  4  0
  4 21  4  0
  5  9  4  0
  5 16  4  0
  6 15  4  0
  6 16  4  0
  7 22  4  0
  7 26  4  0
  8 10  4  0
  8 25  4  0
  9 15  4  0
  9 17  1  0
 10 21  4  0
 11 25  4  0
 12 23  4  0
 13 20  4  0
 13 26  4  0
 14 19  4  0
 17 18  4  0
 17 24  4  0
 19 23  4  0
 20 24  4  0
 23 26  1  0
M  END
$$$$

 Created by Python create_sdf_string function

 26 30  0  0  0  0  0  0  0  0999 V2000
   10.0084   -1.8019   23.4945 C   0  0  0  0  0  0  0  0  0  0  0  0
   10.0005   -4.2520   16.5631 C   0  0  0  0  0  0  0  0  0  0  0  0
   10.2759   -4.0036   17.8845 C   0  0  0  0  0  0  0  0  0  0  0  0
    8.5652    1.5478   25.3778 N   0  0  0  0  0  0  0  0  0  0  0  0
    6.8048   -7.5457   17.8752 C   0  0  0  0  0  0  0  0  0  0  0  0
    6.1721   -8.2186   15.9886 N   0  0  0  0  0  0  0  0  0  0  0  0
   11.1764   -2.6600   19.5604 C   0  0  0  0  0  0  0  0  0  0  0  0
    9.5491   -0.6380   24.1912 C   0  0  0  0  0  0  0  0  0  0  0  0
    7.5337   -6.9256   16.9519 C   0  0  0  0  0  0  0  0  0  0  0  0
    9.6782    0.5671   23.5143 C   0  0  0  0  0  0  0  0  0  0  0  0
    8.4532    0.3482   26.0821 C   0  0  0  0  0  0  0  0  0  0  0  0
   10.4239   -1.7677   22.2230 N   0  0  0  0  0  0  0  0  0  0  0  0
    9.9468   -4.5953   20.1709 C   0  0  0  0  0  0  0  0  0  0  0  0
   10.0366   -3.0590   23.9864 N   0  0  0  0  0  0  0  0  0  0  0  0
    7.1191   -7.3636   15.7739 C   0  0  0  0  0  0  0  0  0  0  0  0
    5.9612   -8.3203   17.2732 N   0  0  0  0  0  0  0  0  0  0  0  0
    8.5296   -5.9814   17.1841 C   0  0  0  0  0  0  0  0  0  0  0  0
    9.1527   -5.2118   16.2116 C   0  0  0  0  0  0  0  0  0  0  0  0
   10.3364   -3.8368   22.9255 O   0  0  0  0  0  0  0  0  0  0  0  0
    9.6947   -4.8407   18.8534 C   0  0  0  0  0  0  0  0  0  0  0  0
    9.1596    1.7042   24.1381 C   0  0  0  0  0  0  0  0  0  0  0  0
   11.0456   -2.9774   18.2694 N   0  0  0  0  0  0  0  0  0  0  0  0
   10.4788   -3.0457   21.8593 C   0  0  0  0  0  0  0  0  0  0  0  0
    8.8693   -5.8099   18.4657 N   0  0  0  0  0  0  0  0  0  0  0  0
    8.9892   -0.7926   25.4573 C   0  0  0  0  0  0  0  0  0  0  0  0
   10.5677   -3.4462   20.5323 C   0  0  0  0  0  0  0  0  0  0  0  0
  1  8  1  0
  1 12  4  0
  1 14  4  0
  2  3  4  0
  2 18  4  0
  3 20  4  0
  3 22  4  0
  4 11  4  0
  4 21  4  0
  5  9  4  0
  5 16  4  0
  6 15  4  0
  6 16  4  0
  7 22  4  0
  7 26  4  0
  8 10  4  0
  8 25  4  0
  9 15  4  0
  9 17  1  0
 10 21  4  0
 11 25  4  0
 12 23  4  0
 13 20  4  0
 13 26  4  0
 14 19  4  0
 17 18  4  0
 17 24  4  0
 19 23  4  0
 20 24  4  0
 23 26  1  0
M  END
$$$$

 Created by Python create_sdf_string function

 26 30  0  0  0  0  0  0  0  0999 V2000
   10.0084   -1.8019   23.4945 C   0  0  0  0  0  0  0  0  0  0  0  0
   10.0005   -4.2520   16.5631 C   0  0  0  0  0  0  0  0  0  0  0  0
   10.2759   -4.0036   17.8845 C   0  0  0  0  0  0  0  0  0  0  0  0
    8.5652    1.5478   25.3778 N   0  0  0  0  0  0  0  0  0  0  0  0
    6.8048   -7.5457   17.8752 C   0  0  0  0  0  0  0  0  0  0  0  0
    6.1721   -8.2186   15.9886 N   0  0  0  0  0  0  0  0  0  0  0  0
   11.1764   -2.6600   19.5604 C   0  0  0  0  0  0  0  0  0  0  0  0
    9.5491   -0.6380   24.1912 C   0  0  0  0  0  0  0  0  0  0  0  0
    7.5337   -6.9256   16.9519 C   0  0  0  0  0  0  0  0  0  0  0  0
    9.6782    0.5671   23.5143 C   0  0  0  0  0  0  0  0  0  0  0  0
    8.4532    0.3482   26.0821 C   0  0  0  0  0  0  0  0  0  0  0  0
   10.4239   -1.7677   22.2230 N   0  0  0  0  0  0  0  0  0  0  0  0
    9.9468   -4.5953   20.1709 C   0  0  0  0  0  0  0  0  0  0  0  0
   10.0366   -3.0590   23.9864 N   0  0  0  0  0  0  0  0  0  0  0  0
    7.1191   -7.3636   15.7739 C   0  0  0  0  0  0  0  0  0  0  0  0
    5.9612   -8.3203   17.2732 N   0  0  0  0  0  0  0  0  0  0  0  0
    8.5296   -5.9814   17.1841 C   0  0  0  0  0  0  0  0  0  0  0  0
    9.1527   -5.2118   16.2116 C   0  0  0  0  0  0  0  0  0  0  0  0
   10.3364   -3.8368   22.9255 O   0  0  0  0  0  0  0  0  0  0  0  0
    9.6947   -4.8407   18.8534 C   0  0  0  0  0  0  0  0  0  0  0  0
    9.1596    1.7042   24.1381 C   0  0  0  0  0  0  0  0  0  0  0  0
   11.0456   -2.9774   18.2694 N   0  0  0  0  0  0  0  0  0  0  0  0
   10.4788   -3.0457   21.8593 C   0  0  0  0  0  0  0  0  0  0  0  0
    8.8693   -5.8099   18.4657 N   0  0  0  0  0  0  0  0  0  0  0  0
    8.9892   -0.7926   25.4573 C   0  0  0  0  0  0  0  0  0  0  0  0
   10.5677   -3.4462   20.5323 C   0  0  0  0  0  0  0  0  0  0  0  0
  1  8  1  0
  1 12  4  0
  1 14  4  0
  2  3  4  0
  2 18  4  0
  3 20  4  0
  3 22  4  0
  4 11  4  0
  4 21  4  0
  5  9  4  0
  5 16  4  0
  6 15  4  0
  6 16  4  0
  7 22  4  0
  7 26  4  0
  8 10  4  0
  8 25  4  0
  9 15  4  0
  9 17  1  0
 10 21  4  0
 11 25  4  0
 12 23  4  0
 13 20  4  0
 13 26  4  0
 14 19  4  0
 17 18  4  0
 17 24  4  0
 19 23  4  0
 20 24  4  0
 23 26  1  0
M  END
$$$$

 Created by Python create_sdf_string function

 26 30  0  0  0  0  0  0  0  0999 V2000
   10.0084   -1.8019   23.4945 C   0  0  0  0  0  0  0  0  0  0  0  0
   10.0005   -4.2520   16.5631 C   0  0  0  0  0  0  0  0  0  0  0  0
   10.2759   -4.0036   17.8845 C   0  0  0  0  0  0  0  0  0  0  0  0
    8.5652    1.5478   25.3778 N   0  0  0  0  0  0  0  0  0  0  0  0
    6.8048   -7.5457   17.8752 C   0  0  0  0  0  0  0  0  0  0  0  0
    6.1721   -8.2186   15.9886 N   0  0  0  0  0  0  0  0  0  0  0  0
   11.1764   -2.6600   19.5604 C   0  0  0  0  0  0  0  0  0  0  0  0
    9.5491   -0.6380   24.1912 C   0  0  0  0  0  0  0  0  0  0  0  0
    7.5337   -6.9256   16.9519 C   0  0  0  0  0  0  0  0  0  0  0  0
    9.6782    0.5671   23.5143 C   0  0  0  0  0  0  0  0  0  0  0  0
    8.4532    0.3482   26.0821 C   0  0  0  0  0  0  0  0  0  0  0  0
   10.4239   -1.7677   22.2230 N   0  0  0  0  0  0  0  0  0  0  0  0
    9.9468   -4.5953   20.1709 C   0  0  0  0  0  0  0  0  0  0  0  0
   10.0366   -3.0590   23.9864 N   0  0  0  0  0  0  0  0  0  0  0  0
    7.1191   -7.3636   15.7739 C   0  0  0  0  0  0  0  0  0  0  0  0
    5.9612   -8.3203   17.2732 N   0  0  0  0  0  0  0  0  0  0  0  0
    8.5296   -5.9814   17.1841 C   0  0  0  0  0  0  0  0  0  0  0  0
    9.1527   -5.2118   16.2116 C   0  0  0  0  0  0  0  0  0  0  0  0
   10.3364   -3.8368   22.9255 O   0  0  0  0  0  0  0  0  0  0  0  0
    9.6947   -4.8407   18.8534 C   0  0  0  0  0  0  0  0  0  0  0  0
    9.1596    1.7042   24.1381 C   0  0  0  0  0  0  0  0  0  0  0  0
   11.0456   -2.9774   18.2694 N   0  0  0  0  0  0  0  0  0  0  0  0
   10.4788   -3.0457   21.8593 C   0  0  0  0  0  0  0  0  0  0  0  0
    8.8693   -5.8099   18.4657 N   0  0  0  0  0  0  0  0  0  0  0  0
    8.9892   -0.7926   25.4573 C   0  0  0  0  0  0  0  0  0  0  0  0
   10.5677   -3.4462   20.5323 C   0  0  0  0  0  0  0  0  0  0  0  0
  1  8  1  0
  1 12  4  0
  1 14  4  0
  2  3  4  0
  2 18  4  0
  3 20  4  0
  3 22  4  0
  4 11  4  0
  4 21  4  0
  5  9  4  0
  5 16  4  0
  6 15  4  0
  6 16  4  0
  7 22  4  0
  7 26  4  0
  8 10  4  0
  8 25  4  0
  9 15  4  0
  9 17  1  0
 10 21  4  0
 11 25  4  0
 12 23  4  0
 13 20  4  0
 13 26  4  0
 14 19  4  0
 17 18  4  0
 17 24  4  0
 19 23  4  0
 20 24  4  0
 23 26  1  0
M  END
$$$$

 Created by Python create_sdf_string function

 26 30  0  0  0  0  0  0  0  0999 V2000
   10.0084   -1.8019   23.4945 C   0  0  0  0  0  0  0  0  0  0  0  0
   10.0005   -4.2520   16.5631 C   0  0  0  0  0  0  0  0  0  0  0  0
   10.2759   -4.0036   17.8845 C   0  0  0  0  0  0  0  0  0  0  0  0
    8.5652    1.5478   25.3778 N   0  0  0  0  0  0  0  0  0  0  0  0
    6.8048   -7.5457   17.8752 C   0  0  0  0  0  0  0  0  0  0  0  0
    6.1721   -8.2186   15.9886 N   0  0  0  0  0  0  0  0  0  0  0  0
   11.1764   -2.6600   19.5604 C   0  0  0  0  0  0  0  0  0  0  0  0
    9.5491   -0.6380   24.1912 C   0  0  0  0  0  0  0  0  0  0  0  0
    7.5337   -6.9256   16.9519 C   0  0  0  0  0  0  0  0  0  0  0  0
    9.6782    0.5671   23.5143 C   0  0  0  0  0  0  0  0  0  0  0  0
    8.4532    0.3482   26.0821 C   0  0  0  0  0  0  0  0  0  0  0  0
   10.4239   -1.7677   22.2230 N   0  0  0  0  0  0  0  0  0  0  0  0
    9.9468   -4.5953   20.1709 C   0  0  0  0  0  0  0  0  0  0  0  0
   10.0366   -3.0590   23.9864 N   0  0  0  0  0  0  0  0  0  0  0  0
    7.1191   -7.3636   15.7739 C   0  0  0  0  0  0  0  0  0  0  0  0
    5.9612   -8.3203   17.2732 N   0  0  0  0  0  0  0  0  0  0  0  0
    8.5296   -5.9814   17.1841 C   0  0  0  0  0  0  0  0  0  0  0  0
    9.1527   -5.2118   16.2116 C   0  0  0  0  0  0  0  0  0  0  0  0
   10.3364   -3.8368   22.9255 O   0  0  0  0  0  0  0  0  0  0  0  0
    9.6947   -4.8407   18.8534 C   0  0  0  0  0  0  0  0  0  0  0  0
    9.1596    1.7042   24.1381 C   0  0  0  0  0  0  0  0  0  0  0  0
   11.0456   -2.9774   18.2694 N   0  0  0  0  0  0  0  0  0  0  0  0
   10.4788   -3.0457   21.8593 C   0  0  0  0  0  0  0  0  0  0  0  0
    8.8693   -5.8099   18.4657 N   0  0  0  0  0  0  0  0  0  0  0  0
    8.9892   -0.7926   25.4573 C   0  0  0  0  0  0  0  0  0  0  0  0
   10.5677   -3.4462   20.5323 C   0  0  0  0  0  0  0  0  0  0  0  0
  1  8  1  0
  1 12  4  0
  1 14  4  0
  2  3  4  0
  2 18  4  0
  3 20  4  0
  3 22  4  0
  4 11  4  0
  4 21  4  0
  5  9  4  0
  5 16  4  0
  6 15  4  0
  6 16  4  0
  7 22  4  0
  7 26  4  0
  8 10  4  0
  8 25  4  0
  9 15  4  0
  9 17  1  0
 10 21  4  0
 11 25  4  0
 12 23  4  0
 13 20  4  0
 13 26  4  0
 14 19  4  0
 17 18  4  0
 17 24  4  0
 19 23  4  0
 20 24  4  0
 23 26  1  0
M  END
$$$$

 Created by Python create_sdf_string function

 26 30  0  0  0  0  0  0  0  0999 V2000
   10.0084   -1.8019   23.4945 C   0  0  0  0  0  0  0  0  0  0  0  0
   10.0005   -4.2520   16.5631 C   0  0  0  0  0  0  0  0  0  0  0  0
   10.2759   -4.0036   17.8845 C   0  0  0  0  0  0  0  0  0  0  0  0
    8.5652    1.5478   25.3778 N   0  0  0  0  0  0  0  0  0  0  0  0
    6.8048   -7.5457   17.8752 C   0  0  0  0  0  0  0  0  0  0  0  0
    6.1721   -8.2186   15.9886 N   0  0  0  0  0  0  0  0  0  0  0  0
   11.1764   -2.6600   19.5604 C   0  0  0  0  0  0  0  0  0  0  0  0
    9.5491   -0.6380   24.1912 C   0  0  0  0  0  0  0  0  0  0  0  0
    7.5337   -6.9256   16.9519 C   0  0  0  0  0  0  0  0  0  0  0  0
    9.6782    0.5671   23.5143 C   0  0  0  0  0  0  0  0  0  0  0  0
    8.4532    0.3482   26.0821 C   0  0  0  0  0  0  0  0  0  0  0  0
   10.4239   -1.7677   22.2230 N   0  0  0  0  0  0  0  0  0  0  0  0
    9.9468   -4.5953   20.1709 C   0  0  0  0  0  0  0  0  0  0  0  0
   10.0366   -3.0590   23.9864 N   0  0  0  0  0  0  0  0  0  0  0  0
    7.1191   -7.3636   15.7739 C   0  0  0  0  0  0  0  0  0  0  0  0
    5.9612   -8.3203   17.2732 N   0  0  0  0  0  0  0  0  0  0  0  0
    8.5296   -5.9814   17.1841 C   0  0  0  0  0  0  0  0  0  0  0  0
    9.1527   -5.2118   16.2116 C   0  0  0  0  0  0  0  0  0  0  0  0
   10.3364   -3.8368   22.9255 O   0  0  0  0  0  0  0  0  0  0  0  0
    9.6947   -4.8407   18.8534 C   0  0  0  0  0  0  0  0  0  0  0  0
    9.1596    1.7042   24.1381 C   0  0  0  0  0  0  0  0  0  0  0  0
   11.0456   -2.9774   18.2694 N   0  0  0  0  0  0  0  0  0  0  0  0
   10.4788   -3.0457   21.8593 C   0  0  0  0  0  0  0  0  0  0  0  0
    8.8693   -5.8099   18.4657 N   0  0  0  0  0  0  0  0  0  0  0  0
    8.9892   -0.7926   25.4573 C   0  0  0  0  0  0  0  0  0  0  0  0
   10.5677   -3.4462   20.5323 C   0  0  0  0  0  0  0  0  0  0  0  0
  1  8  1  0
  1 12  4  0
  1 14  4  0
  2  3  4  0
  2 18  4  0
  3 20  4  0
  3 22  4  0
  4 11  4  0
  4 21  4  0
  5  9  4  0
  5 16  4  0
  6 15  4  0
  6 16  4  0
  7 22  4  0
  7 26  4  0
  8 10  4  0
  8 25  4  0
  9 15  4  0
  9 17  1  0
 10 21  4  0
 11 25  4  0
 12 23  4  0
 13 20  4  0
 13 26  4  0
 14 19  4  0
 17 18  4  0
 17 24  4  0
 19 23  4  0
 20 24  4  0
 23 26  1  0
M  END
$$$$

 Created by Python create_sdf_string function

 26 30  0  0  0  0  0  0  0  0999 V2000
   10.0084   -1.8019   23.4945 C   0  0  0  0  0  0  0  0  0  0  0  0
   10.0005   -4.2520   16.5631 C   0  0  0  0  0  0  0  0  0  0  0  0
   10.2759   -4.0036   17.8845 C   0  0  0  0  0  0  0  0  0  0  0  0
    8.5652    1.5478   25.3778 N   0  0  0  0  0  0  0  0  0  0  0  0
    6.8048   -7.5457   17.8752 C   0  0  0  0  0  0  0  0  0  0  0  0
    6.1721   -8.2186   15.9886 N   0  0  0  0  0  0  0  0  0  0  0  0
   11.1764   -2.6600   19.5604 C   0  0  0  0  0  0  0  0  0  0  0  0
    9.5491   -0.6380   24.1912 C   0  0  0  0  0  0  0  0  0  0  0  0
    7.5337   -6.9256   16.9519 C   0  0  0  0  0  0  0  0  0  0  0  0
    9.6782    0.5671   23.5143 C   0  0  0  0  0  0  0  0  0  0  0  0
    8.4532    0.3482   26.0821 C   0  0  0  0  0  0  0  0  0  0  0  0
   10.4239   -1.7677   22.2230 N   0  0  0  0  0  0  0  0  0  0  0  0
    9.9468   -4.5953   20.1709 C   0  0  0  0  0  0  0  0  0  0  0  0
   10.0366   -3.0590   23.9864 N   0  0  0  0  0  0  0  0  0  0  0  0
    7.1191   -7.3636   15.7739 C   0  0  0  0  0  0  0  0  0  0  0  0
    5.9612   -8.3203   17.2732 N   0  0  0  0  0  0  0  0  0  0  0  0
    8.5296   -5.9814   17.1841 C   0  0  0  0  0  0  0  0  0  0  0  0
    9.1527   -5.2118   16.2116 C   0  0  0  0  0  0  0  0  0  0  0  0
   10.3364   -3.8368   22.9255 O   0  0  0  0  0  0  0  0  0  0  0  0
    9.6947   -4.8407   18.8534 C   0  0  0  0  0  0  0  0  0  0  0  0
    9.1596    1.7042   24.1381 C   0  0  0  0  0  0  0  0  0  0  0  0
   11.0456   -2.9774   18.2694 N   0  0  0  0  0  0  0  0  0  0  0  0
   10.4788   -3.0457   21.8593 C   0  0  0  0  0  0  0  0  0  0  0  0
    8.8693   -5.8099   18.4657 N   0  0  0  0  0  0  0  0  0  0  0  0
    8.9892   -0.7926   25.4573 C   0  0  0  0  0  0  0  0  0  0  0  0
   10.5677   -3.4462   20.5323 C   0  0  0  0  0  0  0  0  0  0  0  0
  1  8  1  0
  1 12  4  0
  1 14  4  0
  2  3  4  0
  2 18  4  0
  3 20  4  0
  3 22  4  0
  4 11  4  0
  4 21  4  0
  5  9  4  0
  5 16  4  0
  6 15  4  0
  6 16  4  0
  7 22  4  0
  7 26  4  0
  8 10  4  0
  8 25  4  0
  9 15  4  0
  9 17  1  0
 10 21  4  0
 11 25  4  0
 12 23  4  0
 13 20  4  0
 13 26  4  0
 14 19  4  0
 17 18  4  0
 17 24  4  0
 19 23  4  0
 20 24  4  0
 23 26  1  0
M  END
$$$$

 Created by Python create_sdf_string function

 26 30  0  0  0  0  0  0  0  0999 V2000
   10.0084   -1.8019   23.4945 C   0  0  0  0  0  0  0  0  0  0  0  0
   10.0005   -4.2520   16.5631 C   0  0  0  0  0  0  0  0  0  0  0  0
   10.2759   -4.0036   17.8845 C   0  0  0  0  0  0  0  0  0  0  0  0
    8.5652    1.5478   25.3778 N   0  0  0  0  0  0  0  0  0  0  0  0
    6.8048   -7.5457   17.8752 C   0  0  0  0  0  0  0  0  0  0  0  0
    6.1721   -8.2186   15.9886 N   0  0  0  0  0  0  0  0  0  0  0  0
   11.1764   -2.6600   19.5604 C   0  0  0  0  0  0  0  0  0  0  0  0
    9.5491   -0.6380   24.1912 C   0  0  0  0  0  0  0  0  0  0  0  0
    7.5337   -6.9256   16.9519 C   0  0  0  0  0  0  0  0  0  0  0  0
    9.6782    0.5671   23.5143 C   0  0  0  0  0  0  0  0  0  0  0  0
    8.4532    0.3482   26.0821 C   0  0  0  0  0  0  0  0  0  0  0  0
   10.4239   -1.7677   22.2230 N   0  0  0  0  0  0  0  0  0  0  0  0
    9.9468   -4.5953   20.1709 C   0  0  0  0  0  0  0  0  0  0  0  0
   10.0366   -3.0590   23.9864 N   0  0  0  0  0  0  0  0  0  0  0  0
    7.1191   -7.3636   15.7739 C   0  0  0  0  0  0  0  0  0  0  0  0
    5.9612   -8.3203   17.2732 N   0  0  0  0  0  0  0  0  0  0  0  0
    8.5296   -5.9814   17.1841 C   0  0  0  0  0  0  0  0  0  0  0  0
    9.1527   -5.2118   16.2116 C   0  0  0  0  0  0  0  0  0  0  0  0
   10.3364   -3.8368   22.9255 O   0  0  0  0  0  0  0  0  0  0  0  0
    9.6947   -4.8407   18.8534 C   0  0  0  0  0  0  0  0  0  0  0  0
    9.1596    1.7042   24.1381 C   0  0  0  0  0  0  0  0  0  0  0  0
   11.0456   -2.9774   18.2694 N   0  0  0  0  0  0  0  0  0  0  0  0
   10.4788   -3.0457   21.8593 C   0  0  0  0  0  0  0  0  0  0  0  0
    8.8693   -5.8099   18.4657 N   0  0  0  0  0  0  0  0  0  0  0  0
    8.9892   -0.7926   25.4573 C   0  0  0  0  0  0  0  0  0  0  0  0
   10.5677   -3.4462   20.5323 C   0  0  0  0  0  0  0  0  0  0  0  0
  1  8  1  0
  1 12  4  0
  1 14  4  0
  2  3  4  0
  2 18  4  0
  3 20  4  0
  3 22  4  0
  4 11  4  0
  4 21  4  0
  5  9  4  0
  5 16  4  0
  6 15  4  0
  6 16  4  0
  7 22  4  0
  7 26  4  0
  8 10  4  0
  8 25  4  0
  9 15  4  0
  9 17  1  0
 10 21  4  0
 11 25  4  0
 12 23  4  0
 13 20  4  0
 13 26  4  0
 14 19  4  0
 17 18  4  0
 17 24  4  0
 19 23  4  0
 20 24  4  0
 23 26  1  0
M  END
$$$$

 Created by Python create_sdf_string function

 26 30  0  0  0  0  0  0  0  0999 V2000
   10.0084   -1.8019   23.4945 C   0  0  0  0  0  0  0  0  0  0  0  0
   10.0005   -4.2520   16.5631 C   0  0  0  0  0  0  0  0  0  0  0  0
   10.2759   -4.0036   17.8845 C   0  0  0  0  0  0  0  0  0  0  0  0
    8.5652    1.5478   25.3778 N   0  0  0  0  0  0  0  0  0  0  0  0
    6.8048   -7.5457   17.8752 C   0  0  0  0  0  0  0  0  0  0  0  0
    6.1721   -8.2186   15.9886 N   0  0  0  0  0  0  0  0  0  0  0  0
   11.1764   -2.6600   19.5604 C   0  0  0  0  0  0  0  0  0  0  0  0
    9.5491   -0.6380   24.1912 C   0  0  0  0  0  0  0  0  0  0  0  0
    7.5337   -6.9256   16.9519 C   0  0  0  0  0  0  0  0  0  0  0  0
    9.6782    0.5671   23.5143 C   0  0  0  0  0  0  0  0  0  0  0  0
    8.4532    0.3482   26.0821 C   0  0  0  0  0  0  0  0  0  0  0  0
   10.4239   -1.7677   22.2230 N   0  0  0  0  0  0  0  0  0  0  0  0
    9.9468   -4.5953   20.1709 C   0  0  0  0  0  0  0  0  0  0  0  0
   10.0366   -3.0590   23.9864 N   0  0  0  0  0  0  0  0  0  0  0  0
    7.1191   -7.3636   15.7739 C   0  0  0  0  0  0  0  0  0  0  0  0
    5.9612   -8.3203   17.2732 N   0  0  0  0  0  0  0  0  0  0  0  0
    8.5296   -5.9814   17.1841 C   0  0  0  0  0  0  0  0  0  0  0  0
    9.1527   -5.2118   16.2116 C   0  0  0  0  0  0  0  0  0  0  0  0
   10.3364   -3.8368   22.9255 O   0  0  0  0  0  0  0  0  0  0  0  0
    9.6947   -4.8407   18.8534 C   0  0  0  0  0  0  0  0  0  0  0  0
    9.1596    1.7042   24.1381 C   0  0  0  0  0  0  0  0  0  0  0  0
   11.0456   -2.9774   18.2694 N   0  0  0  0  0  0  0  0  0  0  0  0
   10.4788   -3.0457   21.8593 C   0  0  0  0  0  0  0  0  0  0  0  0
    8.8693   -5.8099   18.4657 N   0  0  0  0  0  0  0  0  0  0  0  0
    8.9892   -0.7926   25.4573 C   0  0  0  0  0  0  0  0  0  0  0  0
   10.5677   -3.4462   20.5323 C   0  0  0  0  0  0  0  0  0  0  0  0
  1  8  1  0
  1 12  4  0
  1 14  4  0
  2  3  4  0
  2 18  4  0
  3 20  4  0
  3 22  4  0
  4 11  4  0
  4 21  4  0
  5  9  4  0
  5 16  4  0
  6 15  4  0
  6 16  4  0
  7 22  4  0
  7 26  4  0
  8 10  4  0
  8 25  4  0
  9 15  4  0
  9 17  1  0
 10 21  4  0
 11 25  4  0
 12 23  4  0
 13 20  4  0
 13 26  4  0
 14 19  4  0
 17 18  4  0
 17 24  4  0
 19 23  4  0
 20 24  4  0
 23 26  1  0
M  END
$$$$

 Created by Python create_sdf_string function

 26 30  0  0  0  0  0  0  0  0999 V2000
   10.0084   -1.8019   23.4945 C   0  0  0  0  0  0  0  0  0  0  0  0
   10.0005   -4.2520   16.5631 C   0  0  0  0  0  0  0  0  0  0  0  0
   10.2759   -4.0036   17.8845 C   0  0  0  0  0  0  0  0  0  0  0  0
    8.5652    1.5478   25.3778 N   0  0  0  0  0  0  0  0  0  0  0  0
    6.8048   -7.5457   17.8752 C   0  0  0  0  0  0  0  0  0  0  0  0
    6.1721   -8.2186   15.9886 N   0  0  0  0  0  0  0  0  0  0  0  0
   11.1764   -2.6600   19.5604 C   0  0  0  0  0  0  0  0  0  0  0  0
    9.5491   -0.6380   24.1912 C   0  0  0  0  0  0  0  0  0  0  0  0
    7.5337   -6.9256   16.9519 C   0  0  0  0  0  0  0  0  0  0  0  0
    9.6782    0.5671   23.5143 C   0  0  0  0  0  0  0  0  0  0  0  0
    8.4532    0.3482   26.0821 C   0  0  0  0  0  0  0  0  0  0  0  0
   10.4239   -1.7677   22.2230 N   0  0  0  0  0  0  0  0  0  0  0  0
    9.9468   -4.5953   20.1709 C   0  0  0  0  0  0  0  0  0  0  0  0
   10.0366   -3.0590   23.9864 N   0  0  0  0  0  0  0  0  0  0  0  0
    7.1191   -7.3636   15.7739 C   0  0  0  0  0  0  0  0  0  0  0  0
    5.9612   -8.3203   17.2732 N   0  0  0  0  0  0  0  0  0  0  0  0
    8.5296   -5.9814   17.1841 C   0  0  0  0  0  0  0  0  0  0  0  0
    9.1527   -5.2118   16.2116 C   0  0  0  0  0  0  0  0  0  0  0  0
   10.3364   -3.8368   22.9255 O   0  0  0  0  0  0  0  0  0  0  0  0
    9.6947   -4.8407   18.8534 C   0  0  0  0  0  0  0  0  0  0  0  0
    9.1596    1.7042   24.1381 C   0  0  0  0  0  0  0  0  0  0  0  0
   11.0456   -2.9774   18.2694 N   0  0  0  0  0  0  0  0  0  0  0  0
   10.4788   -3.0457   21.8593 C   0  0  0  0  0  0  0  0  0  0  0  0
    8.8693   -5.8099   18.4657 N   0  0  0  0  0  0  0  0  0  0  0  0
    8.9892   -0.7926   25.4573 C   0  0  0  0  0  0  0  0  0  0  0  0
   10.5677   -3.4462   20.5323 C   0  0  0  0  0  0  0  0  0  0  0  0
  1  8  1  0
  1 12  4  0
  1 14  4  0
  2  3  4  0
  2 18  4  0
  3 20  4  0
  3 22  4  0
  4 11  4  0
  4 21  4  0
  5  9  4  0
  5 16  4  0
  6 15  4  0
  6 16  4  0
  7 22  4  0
  7 26  4  0
  8 10  4  0
  8 25  4  0
  9 15  4  0
  9 17  1  0
 10 21  4  0
 11 25  4  0
 12 23  4  0
 13 20  4  0
 13 26  4  0
 14 19  4  0
 17 18  4  0
 17 24  4  0
 19 23  4  0
 20 24  4  0
 23 26  1  0
M  END
$$$$

 Created by Python create_sdf_string function

 26 30  0  0  0  0  0  0  0  0999 V2000
   10.0084   -1.8019   23.4945 C   0  0  0  0  0  0  0  0  0  0  0  0
   10.0005   -4.2520   16.5631 C   0  0  0  0  0  0  0  0  0  0  0  0
   10.2759   -4.0036   17.8845 C   0  0  0  0  0  0  0  0  0  0  0  0
    8.5652    1.5478   25.3778 N   0  0  0  0  0  0  0  0  0  0  0  0
    6.8048   -7.5457   17.8752 C   0  0  0  0  0  0  0  0  0  0  0  0
    6.1721   -8.2186   15.9886 N   0  0  0  0  0  0  0  0  0  0  0  0
   11.1764   -2.6600   19.5604 C   0  0  0  0  0  0  0  0  0  0  0  0
    9.5491   -0.6380   24.1912 C   0  0  0  0  0  0  0  0  0  0  0  0
    7.5337   -6.9256   16.9519 C   0  0  0  0  0  0  0  0  0  0  0  0
    9.6782    0.5671   23.5143 C   0  0  0  0  0  0  0  0  0  0  0  0
    8.4532    0.3482   26.0821 C   0  0  0  0  0  0  0  0  0  0  0  0
   10.4239   -1.7677   22.2230 N   0  0  0  0  0  0  0  0  0  0  0  0
    9.9468   -4.5953   20.1709 C   0  0  0  0  0  0  0  0  0  0  0  0
   10.0366   -3.0590   23.9864 N   0  0  0  0  0  0  0  0  0  0  0  0
    7.1191   -7.3636   15.7739 C   0  0  0  0  0  0  0  0  0  0  0  0
    5.9612   -8.3203   17.2732 N   0  0  0  0  0  0  0  0  0  0  0  0
    8.5296   -5.9814   17.1841 C   0  0  0  0  0  0  0  0  0  0  0  0
    9.1527   -5.2118   16.2116 C   0  0  0  0  0  0  0  0  0  0  0  0
   10.3364   -3.8368   22.9255 O   0  0  0  0  0  0  0  0  0  0  0  0
    9.6947   -4.8407   18.8534 C   0  0  0  0  0  0  0  0  0  0  0  0
    9.1596    1.7042   24.1381 C   0  0  0  0  0  0  0  0  0  0  0  0
   11.0456   -2.9774   18.2694 N   0  0  0  0  0  0  0  0  0  0  0  0
   10.4788   -3.0457   21.8593 C   0  0  0  0  0  0  0  0  0  0  0  0
    8.8693   -5.8099   18.4657 N   0  0  0  0  0  0  0  0  0  0  0  0
    8.9892   -0.7926   25.4573 C   0  0  0  0  0  0  0  0  0  0  0  0
   10.5677   -3.4462   20.5323 C   0  0  0  0  0  0  0  0  0  0  0  0
  1  8  1  0
  1 12  4  0
  1 14  4  0
  2  3  4  0
  2 18  4  0
  3 20  4  0
  3 22  4  0
  4 11  4  0
  4 21  4  0
  5  9  4  0
  5 16  4  0
  6 15  4  0
  6 16  4  0
  7 22  4  0
  7 26  4  0
  8 10  4  0
  8 25  4  0
  9 15  4  0
  9 17  1  0
 10 21  4  0
 11 25  4  0
 12 23  4  0
 13 20  4  0
 13 26  4  0
 14 19  4  0
 17 18  4  0
 17 24  4  0
 19 23  4  0
 20 24  4  0
 23 26  1  0
M  END
$$$$

 Created by Python create_sdf_string function

 26 30  0  0  0  0  0  0  0  0999 V2000
   10.0084   -1.8019   23.4945 C   0  0  0  0  0  0  0  0  0  0  0  0
   10.0005   -4.2520   16.5631 C   0  0  0  0  0  0  0  0  0  0  0  0
   10.2759   -4.0036   17.8845 C   0  0  0  0  0  0  0  0  0  0  0  0
    8.5652    1.5478   25.3778 N   0  0  0  0  0  0  0  0  0  0  0  0
    6.8048   -7.5457   17.8752 C   0  0  0  0  0  0  0  0  0  0  0  0
    6.1721   -8.2186   15.9886 N   0  0  0  0  0  0  0  0  0  0  0  0
   11.1764   -2.6600   19.5604 C   0  0  0  0  0  0  0  0  0  0  0  0
    9.5491   -0.6380   24.1912 C   0  0  0  0  0  0  0  0  0  0  0  0
    7.5337   -6.9256   16.9519 C   0  0  0  0  0  0  0  0  0  0  0  0
    9.6782    0.5671   23.5143 C   0  0  0  0  0  0  0  0  0  0  0  0
    8.4532    0.3482   26.0821 C   0  0  0  0  0  0  0  0  0  0  0  0
   10.4239   -1.7677   22.2230 N   0  0  0  0  0  0  0  0  0  0  0  0
    9.9468   -4.5953   20.1709 C   0  0  0  0  0  0  0  0  0  0  0  0
   10.0366   -3.0590   23.9864 N   0  0  0  0  0  0  0  0  0  0  0  0
    7.1191   -7.3636   15.7739 C   0  0  0  0  0  0  0  0  0  0  0  0
    5.9612   -8.3203   17.2732 N   0  0  0  0  0  0  0  0  0  0  0  0
    8.5296   -5.9814   17.1841 C   0  0  0  0  0  0  0  0  0  0  0  0
    9.1527   -5.2118   16.2116 C   0  0  0  0  0  0  0  0  0  0  0  0
   10.3364   -3.8368   22.9255 O   0  0  0  0  0  0  0  0  0  0  0  0
    9.6947   -4.8407   18.8534 C   0  0  0  0  0  0  0  0  0  0  0  0
    9.1596    1.7042   24.1381 C   0  0  0  0  0  0  0  0  0  0  0  0
   11.0456   -2.9774   18.2694 N   0  0  0  0  0  0  0  0  0  0  0  0
   10.4788   -3.0457   21.8593 C   0  0  0  0  0  0  0  0  0  0  0  0
    8.8693   -5.8099   18.4657 N   0  0  0  0  0  0  0  0  0  0  0  0
    8.9892   -0.7926   25.4573 C   0  0  0  0  0  0  0  0  0  0  0  0
   10.5677   -3.4462   20.5323 C   0  0  0  0  0  0  0  0  0  0  0  0
  1  8  1  0
  1 12  4  0
  1 14  4  0
  2  3  4  0
  2 18  4  0
  3 20  4  0
  3 22  4  0
  4 11  4  0
  4 21  4  0
  5  9  4  0
  5 16  4  0
  6 15  4  0
  6 16  4  0
  7 22  4  0
  7 26  4  0
  8 10  4  0
  8 25  4  0
  9 15  4  0
  9 17  1  0
 10 21  4  0
 11 25  4  0
 12 23  4  0
 13 20  4  0
 13 26  4  0
 14 19  4  0
 17 18  4  0
 17 24  4  0
 19 23  4  0
 20 24  4  0
 23 26  1  0
M  END
$$$$

 Created by Python create_sdf_string function

 26 30  0  0  0  0  0  0  0  0999 V2000
   10.0084   -1.8019   23.4945 C   0  0  0  0  0  0  0  0  0  0  0  0
   10.0005   -4.2520   16.5631 C   0  0  0  0  0  0  0  0  0  0  0  0
   10.2759   -4.0036   17.8845 C   0  0  0  0  0  0  0  0  0  0  0  0
    8.5652    1.5478   25.3778 N   0  0  0  0  0  0  0  0  0  0  0  0
    6.8048   -7.5457   17.8752 C   0  0  0  0  0  0  0  0  0  0  0  0
    6.1721   -8.2186   15.9886 N   0  0  0  0  0  0  0  0  0  0  0  0
   11.1764   -2.6600   19.5604 C   0  0  0  0  0  0  0  0  0  0  0  0
    9.5491   -0.6380   24.1912 C   0  0  0  0  0  0  0  0  0  0  0  0
    7.5337   -6.9256   16.9519 C   0  0  0  0  0  0  0  0  0  0  0  0
    9.6782    0.5671   23.5143 C   0  0  0  0  0  0  0  0  0  0  0  0
    8.4532    0.3482   26.0821 C   0  0  0  0  0  0  0  0  0  0  0  0
   10.4239   -1.7677   22.2230 N   0  0  0  0  0  0  0  0  0  0  0  0
    9.9468   -4.5953   20.1709 C   0  0  0  0  0  0  0  0  0  0  0  0
   10.0366   -3.0590   23.9864 N   0  0  0  0  0  0  0  0  0  0  0  0
    7.1191   -7.3636   15.7739 C   0  0  0  0  0  0  0  0  0  0  0  0
    5.9612   -8.3203   17.2732 N   0  0  0  0  0  0  0  0  0  0  0  0
    8.5296   -5.9814   17.1841 C   0  0  0  0  0  0  0  0  0  0  0  0
    9.1527   -5.2118   16.2116 C   0  0  0  0  0  0  0  0  0  0  0  0
   10.3364   -3.8368   22.9255 O   0  0  0  0  0  0  0  0  0  0  0  0
    9.6947   -4.8407   18.8534 C   0  0  0  0  0  0  0  0  0  0  0  0
    9.1596    1.7042   24.1381 C   0  0  0  0  0  0  0  0  0  0  0  0
   11.0456   -2.9774   18.2694 N   0  0  0  0  0  0  0  0  0  0  0  0
   10.4788   -3.0457   21.8593 C   0  0  0  0  0  0  0  0  0  0  0  0
    8.8693   -5.8099   18.4657 N   0  0  0  0  0  0  0  0  0  0  0  0
    8.9892   -0.7926   25.4573 C   0  0  0  0  0  0  0  0  0  0  0  0
   10.5677   -3.4462   20.5323 C   0  0  0  0  0  0  0  0  0  0  0  0
  1  8  1  0
  1 12  4  0
  1 14  4  0
  2  3  4  0
  2 18  4  0
  3 20  4  0
  3 22  4  0
  4 11  4  0
  4 21  4  0
  5  9  4  0
  5 16  4  0
  6 15  4  0
  6 16  4  0
  7 22  4  0
  7 26  4  0
  8 10  4  0
  8 25  4  0
  9 15  4  0
  9 17  1  0
 10 21  4  0
 11 25  4  0
 12 23  4  0
 13 20  4  0
 13 26  4  0
 14 19  4  0
 17 18  4  0
 17 24  4  0
 19 23  4  0
 20 24  4  0
 23 26  1  0
M  END
$$$$

 Created by Python create_sdf_string function

 26 30  0  0  0  0  0  0  0  0999 V2000
   10.0084   -1.8019   23.4945 C   0  0  0  0  0  0  0  0  0  0  0  0
   10.0005   -4.2520   16.5631 C   0  0  0  0  0  0  0  0  0  0  0  0
   10.2759   -4.0036   17.8845 C   0  0  0  0  0  0  0  0  0  0  0  0
    8.5652    1.5478   25.3778 N   0  0  0  0  0  0  0  0  0  0  0  0
    6.8048   -7.5457   17.8752 C   0  0  0  0  0  0  0  0  0  0  0  0
    6.1721   -8.2186   15.9886 N   0  0  0  0  0  0  0  0  0  0  0  0
   11.1764   -2.6600   19.5604 C   0  0  0  0  0  0  0  0  0  0  0  0
    9.5491   -0.6380   24.1912 C   0  0  0  0  0  0  0  0  0  0  0  0
    7.5337   -6.9256   16.9519 C   0  0  0  0  0  0  0  0  0  0  0  0
    9.6782    0.5671   23.5143 C   0  0  0  0  0  0  0  0  0  0  0  0
    8.4532    0.3482   26.0821 C   0  0  0  0  0  0  0  0  0  0  0  0
   10.4239   -1.7677   22.2230 N   0  0  0  0  0  0  0  0  0  0  0  0
    9.9468   -4.5953   20.1709 C   0  0  0  0  0  0  0  0  0  0  0  0
   10.0366   -3.0590   23.9864 N   0  0  0  0  0  0  0  0  0  0  0  0
    7.1191   -7.3636   15.7739 C   0  0  0  0  0  0  0  0  0  0  0  0
    5.9612   -8.3203   17.2732 N   0  0  0  0  0  0  0  0  0  0  0  0
    8.5296   -5.9814   17.1841 C   0  0  0  0  0  0  0  0  0  0  0  0
    9.1527   -5.2118   16.2116 C   0  0  0  0  0  0  0  0  0  0  0  0
   10.3364   -3.8368   22.9255 O   0  0  0  0  0  0  0  0  0  0  0  0
    9.6947   -4.8407   18.8534 C   0  0  0  0  0  0  0  0  0  0  0  0
    9.1596    1.7042   24.1381 C   0  0  0  0  0  0  0  0  0  0  0  0
   11.0456   -2.9774   18.2694 N   0  0  0  0  0  0  0  0  0  0  0  0
   10.4788   -3.0457   21.8593 C   0  0  0  0  0  0  0  0  0  0  0  0
    8.8693   -5.8099   18.4657 N   0  0  0  0  0  0  0  0  0  0  0  0
    8.9892   -0.7926   25.4573 C   0  0  0  0  0  0  0  0  0  0  0  0
   10.5677   -3.4462   20.5323 C   0  0  0  0  0  0  0  0  0  0  0  0
  1  8  1  0
  1 12  4  0
  1 14  4  0
  2  3  4  0
  2 18  4  0
  3 20  4  0
  3 22  4  0
  4 11  4  0
  4 21  4  0
  5  9  4  0
  5 16  4  0
  6 15  4  0
  6 16  4  0
  7 22  4  0
  7 26  4  0
  8 10  4  0
  8 25  4  0
  9 15  4  0
  9 17  1  0
 10 21  4  0
 11 25  4  0
 12 23  4  0
 13 20  4  0
 13 26  4  0
 14 19  4  0
 17 18  4  0
 17 24  4  0
 19 23  4  0
 20 24  4  0
 23 26  1  0
M  END
$$$$

 Created by Python create_sdf_string function

 26 30  0  0  0  0  0  0  0  0999 V2000
   10.0084   -1.8019   23.4945 C   0  0  0  0  0  0  0  0  0  0  0  0
   10.0005   -4.2520   16.5631 C   0  0  0  0  0  0  0  0  0  0  0  0
   10.2759   -4.0036   17.8845 C   0  0  0  0  0  0  0  0  0  0  0  0
    8.5652    1.5478   25.3778 N   0  0  0  0  0  0  0  0  0  0  0  0
    6.8048   -7.5457   17.8752 C   0  0  0  0  0  0  0  0  0  0  0  0
    6.1721   -8.2186   15.9886 N   0  0  0  0  0  0  0  0  0  0  0  0
   11.1764   -2.6600   19.5604 C   0  0  0  0  0  0  0  0  0  0  0  0
    9.5491   -0.6380   24.1912 C   0  0  0  0  0  0  0  0  0  0  0  0
    7.5337   -6.9256   16.9519 C   0  0  0  0  0  0  0  0  0  0  0  0
    9.6782    0.5671   23.5143 C   0  0  0  0  0  0  0  0  0  0  0  0
    8.4532    0.3482   26.0821 C   0  0  0  0  0  0  0  0  0  0  0  0
   10.4239   -1.7677   22.2230 N   0  0  0  0  0  0  0  0  0  0  0  0
    9.9468   -4.5953   20.1709 C   0  0  0  0  0  0  0  0  0  0  0  0
   10.0366   -3.0590   23.9864 N   0  0  0  0  0  0  0  0  0  0  0  0
    7.1191   -7.3636   15.7739 C   0  0  0  0  0  0  0  0  0  0  0  0
    5.9612   -8.3203   17.2732 N   0  0  0  0  0  0  0  0  0  0  0  0
    8.5296   -5.9814   17.1841 C   0  0  0  0  0  0  0  0  0  0  0  0
    9.1527   -5.2118   16.2116 C   0  0  0  0  0  0  0  0  0  0  0  0
   10.3364   -3.8368   22.9255 O   0  0  0  0  0  0  0  0  0  0  0  0
    9.6947   -4.8407   18.8534 C   0  0  0  0  0  0  0  0  0  0  0  0
    9.1596    1.7042   24.1381 C   0  0  0  0  0  0  0  0  0  0  0  0
   11.0456   -2.9774   18.2694 N   0  0  0  0  0  0  0  0  0  0  0  0
   10.4788   -3.0457   21.8593 C   0  0  0  0  0  0  0  0  0  0  0  0
    8.8693   -5.8099   18.4657 N   0  0  0  0  0  0  0  0  0  0  0  0
    8.9892   -0.7926   25.4573 C   0  0  0  0  0  0  0  0  0  0  0  0
   10.5677   -3.4462   20.5323 C   0  0  0  0  0  0  0  0  0  0  0  0
  1  8  1  0
  1 12  4  0
  1 14  4  0
  2  3  4  0
  2 18  4  0
  3 20  4  0
  3 22  4  0
  4 11  4  0
  4 21  4  0
  5  9  4  0
  5 16  4  0
  6 15  4  0
  6 16  4  0
  7 22  4  0
  7 26  4  0
  8 10  4  0
  8 25  4  0
  9 15  4  0
  9 17  1  0
 10 21  4  0
 11 25  4  0
 12 23  4  0
 13 20  4  0
 13 26  4  0
 14 19  4  0
 17 18  4  0
 17 24  4  0
 19 23  4  0
 20 24  4  0
 23 26  1  0
M  END
$$$$

 Created by Python create_sdf_string function

 26 30  0  0  0  0  0  0  0  0999 V2000
   10.0084   -1.8019   23.4945 C   0  0  0  0  0  0  0  0  0  0  0  0
   10.0005   -4.2520   16.5631 C   0  0  0  0  0  0  0  0  0  0  0  0
   10.2759   -4.0036   17.8845 C   0  0  0  0  0  0  0  0  0  0  0  0
    8.5652    1.5478   25.3778 N   0  0  0  0  0  0  0  0  0  0  0  0
    6.8048   -7.5457   17.8752 C   0  0  0  0  0  0  0  0  0  0  0  0
    6.1721   -8.2186   15.9886 N   0  0  0  0  0  0  0  0  0  0  0  0
   11.1764   -2.6600   19.5604 C   0  0  0  0  0  0  0  0  0  0  0  0
    9.5491   -0.6380   24.1912 C   0  0  0  0  0  0  0  0  0  0  0  0
    7.5337   -6.9256   16.9519 C   0  0  0  0  0  0  0  0  0  0  0  0
    9.6782    0.5671   23.5143 C   0  0  0  0  0  0  0  0  0  0  0  0
    8.4532    0.3482   26.0821 C   0  0  0  0  0  0  0  0  0  0  0  0
   10.4239   -1.7677   22.2230 N   0  0  0  0  0  0  0  0  0  0  0  0
    9.9468   -4.5953   20.1709 C   0  0  0  0  0  0  0  0  0  0  0  0
   10.0366   -3.0590   23.9864 N   0  0  0  0  0  0  0  0  0  0  0  0
    7.1191   -7.3636   15.7739 C   0  0  0  0  0  0  0  0  0  0  0  0
    5.9612   -8.3203   17.2732 N   0  0  0  0  0  0  0  0  0  0  0  0
    8.5296   -5.9814   17.1841 C   0  0  0  0  0  0  0  0  0  0  0  0
    9.1527   -5.2118   16.2116 C   0  0  0  0  0  0  0  0  0  0  0  0
   10.3364   -3.8368   22.9255 O   0  0  0  0  0  0  0  0  0  0  0  0
    9.6947   -4.8407   18.8534 C   0  0  0  0  0  0  0  0  0  0  0  0
    9.1596    1.7042   24.1381 C   0  0  0  0  0  0  0  0  0  0  0  0
   11.0456   -2.9774   18.2694 N   0  0  0  0  0  0  0  0  0  0  0  0
   10.4788   -3.0457   21.8593 C   0  0  0  0  0  0  0  0  0  0  0  0
    8.8693   -5.8099   18.4657 N   0  0  0  0  0  0  0  0  0  0  0  0
    8.9892   -0.7926   25.4573 C   0  0  0  0  0  0  0  0  0  0  0  0
   10.5677   -3.4462   20.5323 C   0  0  0  0  0  0  0  0  0  0  0  0
  1  8  1  0
  1 12  4  0
  1 14  4  0
  2  3  4  0
  2 18  4  0
  3 20  4  0
  3 22  4  0
  4 11  4  0
  4 21  4  0
  5  9  4  0
  5 16  4  0
  6 15  4  0
  6 16  4  0
  7 22  4  0
  7 26  4  0
  8 10  4  0
  8 25  4  0
  9 15  4  0
  9 17  1  0
 10 21  4  0
 11 25  4  0
 12 23  4  0
 13 20  4  0
 13 26  4  0
 14 19  4  0
 17 18  4  0
 17 24  4  0
 19 23  4  0
 20 24  4  0
 23 26  1  0
M  END
$$$$

 Created by Python create_sdf_string function

 26 30  0  0  0  0  0  0  0  0999 V2000
   10.0084   -1.8019   23.4945 C   0  0  0  0  0  0  0  0  0  0  0  0
   10.0005   -4.2520   16.5631 C   0  0  0  0  0  0  0  0  0  0  0  0
   10.2759   -4.0036   17.8845 C   0  0  0  0  0  0  0  0  0  0  0  0
    8.5652    1.5478   25.3778 N   0  0  0  0  0  0  0  0  0  0  0  0
    6.8048   -7.5457   17.8752 C   0  0  0  0  0  0  0  0  0  0  0  0
    6.1721   -8.2186   15.9886 N   0  0  0  0  0  0  0  0  0  0  0  0
   11.1764   -2.6600   19.5604 C   0  0  0  0  0  0  0  0  0  0  0  0
    9.5491   -0.6380   24.1912 C   0  0  0  0  0  0  0  0  0  0  0  0
    7.5337   -6.9256   16.9519 C   0  0  0  0  0  0  0  0  0  0  0  0
    9.6782    0.5671   23.5143 C   0  0  0  0  0  0  0  0  0  0  0  0
    8.4532    0.3482   26.0821 C   0  0  0  0  0  0  0  0  0  0  0  0
   10.4239   -1.7677   22.2230 N   0  0  0  0  0  0  0  0  0  0  0  0
    9.9468   -4.5953   20.1709 C   0  0  0  0  0  0  0  0  0  0  0  0
   10.0366   -3.0590   23.9864 N   0  0  0  0  0  0  0  0  0  0  0  0
    7.1191   -7.3636   15.7739 C   0  0  0  0  0  0  0  0  0  0  0  0
    5.9612   -8.3203   17.2732 N   0  0  0  0  0  0  0  0  0  0  0  0
    8.5296   -5.9814   17.1841 C   0  0  0  0  0  0  0  0  0  0  0  0
    9.1527   -5.2118   16.2116 C   0  0  0  0  0  0  0  0  0  0  0  0
   10.3364   -3.8368   22.9255 O   0  0  0  0  0  0  0  0  0  0  0  0
    9.6947   -4.8407   18.8534 C   0  0  0  0  0  0  0  0  0  0  0  0
    9.1596    1.7042   24.1381 C   0  0  0  0  0  0  0  0  0  0  0  0
   11.0456   -2.9774   18.2694 N   0  0  0  0  0  0  0  0  0  0  0  0
   10.4788   -3.0457   21.8593 C   0  0  0  0  0  0  0  0  0  0  0  0
    8.8693   -5.8099   18.4657 N   0  0  0  0  0  0  0  0  0  0  0  0
    8.9892   -0.7926   25.4573 C   0  0  0  0  0  0  0  0  0  0  0  0
   10.5677   -3.4462   20.5323 C   0  0  0  0  0  0  0  0  0  0  0  0
  1  8  1  0
  1 12  4  0
  1 14  4  0
  2  3  4  0
  2 18  4  0
  3 20  4  0
  3 22  4  0
  4 11  4  0
  4 21  4  0
  5  9  4  0
  5 16  4  0
  6 15  4  0
  6 16  4  0
  7 22  4  0
  7 26  4  0
  8 10  4  0
  8 25  4  0
  9 15  4  0
  9 17  1  0
 10 21  4  0
 11 25  4  0
 12 23  4  0
 13 20  4  0
 13 26  4  0
 14 19  4  0
 17 18  4  0
 17 24  4  0
 19 23  4  0
 20 24  4  0
 23 26  1  0
M  END
$$$$

 Created by Python create_sdf_string function

 26 30  0  0  0  0  0  0  0  0999 V2000
   10.0084   -1.8019   23.4945 C   0  0  0  0  0  0  0  0  0  0  0  0
   10.0005   -4.2520   16.5631 C   0  0  0  0  0  0  0  0  0  0  0  0
   10.2759   -4.0036   17.8845 C   0  0  0  0  0  0  0  0  0  0  0  0
    8.5652    1.5478   25.3778 N   0  0  0  0  0  0  0  0  0  0  0  0
    6.8048   -7.5457   17.8752 C   0  0  0  0  0  0  0  0  0  0  0  0
    6.1721   -8.2186   15.9886 N   0  0  0  0  0  0  0  0  0  0  0  0
   11.1764   -2.6600   19.5604 C   0  0  0  0  0  0  0  0  0  0  0  0
    9.5491   -0.6380   24.1912 C   0  0  0  0  0  0  0  0  0  0  0  0
    7.5337   -6.9256   16.9519 C   0  0  0  0  0  0  0  0  0  0  0  0
    9.6782    0.5671   23.5143 C   0  0  0  0  0  0  0  0  0  0  0  0
    8.4532    0.3482   26.0821 C   0  0  0  0  0  0  0  0  0  0  0  0
   10.4239   -1.7677   22.2230 N   0  0  0  0  0  0  0  0  0  0  0  0
    9.9468   -4.5953   20.1709 C   0  0  0  0  0  0  0  0  0  0  0  0
   10.0366   -3.0590   23.9864 N   0  0  0  0  0  0  0  0  0  0  0  0
    7.1191   -7.3636   15.7739 C   0  0  0  0  0  0  0  0  0  0  0  0
    5.9612   -8.3203   17.2732 N   0  0  0  0  0  0  0  0  0  0  0  0
    8.5296   -5.9814   17.1841 C   0  0  0  0  0  0  0  0  0  0  0  0
    9.1527   -5.2118   16.2116 C   0  0  0  0  0  0  0  0  0  0  0  0
   10.3364   -3.8368   22.9255 O   0  0  0  0  0  0  0  0  0  0  0  0
    9.6947   -4.8407   18.8534 C   0  0  0  0  0  0  0  0  0  0  0  0
    9.1596    1.7042   24.1381 C   0  0  0  0  0  0  0  0  0  0  0  0
   11.0456   -2.9774   18.2694 N   0  0  0  0  0  0  0  0  0  0  0  0
   10.4788   -3.0457   21.8593 C   0  0  0  0  0  0  0  0  0  0  0  0
    8.8693   -5.8099   18.4657 N   0  0  0  0  0  0  0  0  0  0  0  0
    8.9892   -0.7926   25.4573 C   0  0  0  0  0  0  0  0  0  0  0  0
   10.5677   -3.4462   20.5323 C   0  0  0  0  0  0  0  0  0  0  0  0
  1  8  1  0
  1 12  4  0
  1 14  4  0
  2  3  4  0
  2 18  4  0
  3 20  4  0
  3 22  4  0
  4 11  4  0
  4 21  4  0
  5  9  4  0
  5 16  4  0
  6 15  4  0
  6 16  4  0
  7 22  4  0
  7 26  4  0
  8 10  4  0
  8 25  4  0
  9 15  4  0
  9 17  1  0
 10 21  4  0
 11 25  4  0
 12 23  4  0
 13 20  4  0
 13 26  4  0
 14 19  4  0
 17 18  4  0
 17 24  4  0
 19 23  4  0
 20 24  4  0
 23 26  1  0
M  END
$$$$

 Created by Python create_sdf_string function

 26 30  0  0  0  0  0  0  0  0999 V2000
   10.0084   -1.8019   23.4945 C   0  0  0  0  0  0  0  0  0  0  0  0
   10.0005   -4.2520   16.5631 C   0  0  0  0  0  0  0  0  0  0  0  0
   10.2759   -4.0036   17.8845 C   0  0  0  0  0  0  0  0  0  0  0  0
    8.5652    1.5478   25.3778 N   0  0  0  0  0  0  0  0  0  0  0  0
    6.8048   -7.5457   17.8752 C   0  0  0  0  0  0  0  0  0  0  0  0
    6.1721   -8.2186   15.9886 N   0  0  0  0  0  0  0  0  0  0  0  0
   11.1764   -2.6600   19.5604 C   0  0  0  0  0  0  0  0  0  0  0  0
    9.5491   -0.6380   24.1912 C   0  0  0  0  0  0  0  0  0  0  0  0
    7.5337   -6.9256   16.9519 C   0  0  0  0  0  0  0  0  0  0  0  0
    9.6782    0.5671   23.5143 C   0  0  0  0  0  0  0  0  0  0  0  0
    8.4532    0.3482   26.0821 C   0  0  0  0  0  0  0  0  0  0  0  0
   10.4239   -1.7677   22.2230 N   0  0  0  0  0  0  0  0  0  0  0  0
    9.9468   -4.5953   20.1709 C   0  0  0  0  0  0  0  0  0  0  0  0
   10.0366   -3.0590   23.9864 N   0  0  0  0  0  0  0  0  0  0  0  0
    7.1191   -7.3636   15.7739 C   0  0  0  0  0  0  0  0  0  0  0  0
    5.9612   -8.3203   17.2732 N   0  0  0  0  0  0  0  0  0  0  0  0
    8.5296   -5.9814   17.1841 C   0  0  0  0  0  0  0  0  0  0  0  0
    9.1527   -5.2118   16.2116 C   0  0  0  0  0  0  0  0  0  0  0  0
   10.3364   -3.8368   22.9255 O   0  0  0  0  0  0  0  0  0  0  0  0
    9.6947   -4.8407   18.8534 C   0  0  0  0  0  0  0  0  0  0  0  0
    9.1596    1.7042   24.1381 C   0  0  0  0  0  0  0  0  0  0  0  0
   11.0456   -2.9774   18.2694 N   0  0  0  0  0  0  0  0  0  0  0  0
   10.4788   -3.0457   21.8593 C   0  0  0  0  0  0  0  0  0  0  0  0
    8.8693   -5.8099   18.4657 N   0  0  0  0  0  0  0  0  0  0  0  0
    8.9892   -0.7926   25.4573 C   0  0  0  0  0  0  0  0  0  0  0  0
   10.5677   -3.4462   20.5323 C   0  0  0  0  0  0  0  0  0  0  0  0
  1  8  1  0
  1 12  4  0
  1 14  4  0
  2  3  4  0
  2 18  4  0
  3 20  4  0
  3 22  4  0
  4 11  4  0
  4 21  4  0
  5  9  4  0
  5 16  4  0
  6 15  4  0
  6 16  4  0
  7 22  4  0
  7 26  4  0
  8 10  4  0
  8 25  4  0
  9 15  4  0
  9 17  1  0
 10 21  4  0
 11 25  4  0
 12 23  4  0
 13 20  4  0
 13 26  4  0
 14 19  4  0
 17 18  4  0
 17 24  4  0
 19 23  4  0
 20 24  4  0
 23 26  1  0
M  END
$$$$

 Created by Python create_sdf_string function

 26 30  0  0  0  0  0  0  0  0999 V2000
   10.0084   -1.8019   23.4945 C   0  0  0  0  0  0  0  0  0  0  0  0
   10.0005   -4.2520   16.5631 C   0  0  0  0  0  0  0  0  0  0  0  0
   10.2759   -4.0036   17.8845 C   0  0  0  0  0  0  0  0  0  0  0  0
    8.5652    1.5478   25.3778 N   0  0  0  0  0  0  0  0  0  0  0  0
    6.8048   -7.5457   17.8752 C   0  0  0  0  0  0  0  0  0  0  0  0
    6.1721   -8.2186   15.9886 N   0  0  0  0  0  0  0  0  0  0  0  0
   11.1764   -2.6600   19.5604 C   0  0  0  0  0  0  0  0  0  0  0  0
    9.5491   -0.6380   24.1912 C   0  0  0  0  0  0  0  0  0  0  0  0
    7.5337   -6.9256   16.9519 C   0  0  0  0  0  0  0  0  0  0  0  0
    9.6782    0.5671   23.5143 C   0  0  0  0  0  0  0  0  0  0  0  0
    8.4532    0.3482   26.0821 C   0  0  0  0  0  0  0  0  0  0  0  0
   10.4239   -1.7677   22.2230 N   0  0  0  0  0  0  0  0  0  0  0  0
    9.9468   -4.5953   20.1709 C   0  0  0  0  0  0  0  0  0  0  0  0
   10.0366   -3.0590   23.9864 N   0  0  0  0  0  0  0  0  0  0  0  0
    7.1191   -7.3636   15.7739 C   0  0  0  0  0  0  0  0  0  0  0  0
    5.9612   -8.3203   17.2732 N   0  0  0  0  0  0  0  0  0  0  0  0
    8.5296   -5.9814   17.1841 C   0  0  0  0  0  0  0  0  0  0  0  0
    9.1527   -5.2118   16.2116 C   0  0  0  0  0  0  0  0  0  0  0  0
   10.3364   -3.8368   22.9255 O   0  0  0  0  0  0  0  0  0  0  0  0
    9.6947   -4.8407   18.8534 C   0  0  0  0  0  0  0  0  0  0  0  0
    9.1596    1.7042   24.1381 C   0  0  0  0  0  0  0  0  0  0  0  0
   11.0456   -2.9774   18.2694 N   0  0  0  0  0  0  0  0  0  0  0  0
   10.4788   -3.0457   21.8593 C   0  0  0  0  0  0  0  0  0  0  0  0
    8.8693   -5.8099   18.4657 N   0  0  0  0  0  0  0  0  0  0  0  0
    8.9892   -0.7926   25.4573 C   0  0  0  0  0  0  0  0  0  0  0  0
   10.5677   -3.4462   20.5323 C   0  0  0  0  0  0  0  0  0  0  0  0
  1  8  1  0
  1 12  4  0
  1 14  4  0
  2  3  4  0
  2 18  4  0
  3 20  4  0
  3 22  4  0
  4 11  4  0
  4 21  4  0
  5  9  4  0
  5 16  4  0
  6 15  4  0
  6 16  4  0
  7 22  4  0
  7 26  4  0
  8 10  4  0
  8 25  4  0
  9 15  4  0
  9 17  1  0
 10 21  4  0
 11 25  4  0
 12 23  4  0
 13 20  4  0
 13 26  4  0
 14 19  4  0
 17 18  4  0
 17 24  4  0
 19 23  4  0
 20 24  4  0
 23 26  1  0
M  END
$$$$

 Created by Python create_sdf_string function

 26 30  0  0  0  0  0  0  0  0999 V2000
   10.0084   -1.8019   23.4945 C   0  0  0  0  0  0  0  0  0  0  0  0
   10.0005   -4.2520   16.5631 C   0  0  0  0  0  0  0  0  0  0  0  0
   10.2759   -4.0036   17.8845 C   0  0  0  0  0  0  0  0  0  0  0  0
    8.5652    1.5478   25.3778 N   0  0  0  0  0  0  0  0  0  0  0  0
    6.8048   -7.5457   17.8752 C   0  0  0  0  0  0  0  0  0  0  0  0
    6.1721   -8.2186   15.9886 N   0  0  0  0  0  0  0  0  0  0  0  0
   11.1764   -2.6600   19.5604 C   0  0  0  0  0  0  0  0  0  0  0  0
    9.5491   -0.6380   24.1912 C   0  0  0  0  0  0  0  0  0  0  0  0
    7.5337   -6.9256   16.9519 C   0  0  0  0  0  0  0  0  0  0  0  0
    9.6782    0.5671   23.5143 C   0  0  0  0  0  0  0  0  0  0  0  0
    8.4532    0.3482   26.0821 C   0  0  0  0  0  0  0  0  0  0  0  0
   10.4239   -1.7677   22.2230 N   0  0  0  0  0  0  0  0  0  0  0  0
    9.9468   -4.5953   20.1709 C   0  0  0  0  0  0  0  0  0  0  0  0
   10.0366   -3.0590   23.9864 N   0  0  0  0  0  0  0  0  0  0  0  0
    7.1191   -7.3636   15.7739 C   0  0  0  0  0  0  0  0  0  0  0  0
    5.9612   -8.3203   17.2732 N   0  0  0  0  0  0  0  0  0  0  0  0
    8.5296   -5.9814   17.1841 C   0  0  0  0  0  0  0  0  0  0  0  0
    9.1527   -5.2118   16.2116 C   0  0  0  0  0  0  0  0  0  0  0  0
   10.3364   -3.8368   22.9255 O   0  0  0  0  0  0  0  0  0  0  0  0
    9.6947   -4.8407   18.8534 C   0  0  0  0  0  0  0  0  0  0  0  0
    9.1596    1.7042   24.1381 C   0  0  0  0  0  0  0  0  0  0  0  0
   11.0456   -2.9774   18.2694 N   0  0  0  0  0  0  0  0  0  0  0  0
   10.4788   -3.0457   21.8593 C   0  0  0  0  0  0  0  0  0  0  0  0
    8.8693   -5.8099   18.4657 N   0  0  0  0  0  0  0  0  0  0  0  0
    8.9892   -0.7926   25.4573 C   0  0  0  0  0  0  0  0  0  0  0  0
   10.5677   -3.4462   20.5323 C   0  0  0  0  0  0  0  0  0  0  0  0
  1  8  1  0
  1 12  4  0
  1 14  4  0
  2  3  4  0
  2 18  4  0
  3 20  4  0
  3 22  4  0
  4 11  4  0
  4 21  4  0
  5  9  4  0
  5 16  4  0
  6 15  4  0
  6 16  4  0
  7 22  4  0
  7 26  4  0
  8 10  4  0
  8 25  4  0
  9 15  4  0
  9 17  1  0
 10 21  4  0
 11 25  4  0
 12 23  4  0
 13 20  4  0
 13 26  4  0
 14 19  4  0
 17 18  4  0
 17 24  4  0
 19 23  4  0
 20 24  4  0
 23 26  1  0
M  END
$$$$

 Created by Python create_sdf_string function

 26 30  0  0  0  0  0  0  0  0999 V2000
   10.0084   -1.8019   23.4945 C   0  0  0  0  0  0  0  0  0  0  0  0
   10.0005   -4.2520   16.5631 C   0  0  0  0  0  0  0  0  0  0  0  0
   10.2759   -4.0036   17.8845 C   0  0  0  0  0  0  0  0  0  0  0  0
    8.5652    1.5478   25.3778 N   0  0  0  0  0  0  0  0  0  0  0  0
    6.8048   -7.5457   17.8752 C   0  0  0  0  0  0  0  0  0  0  0  0
    6.1721   -8.2186   15.9886 N   0  0  0  0  0  0  0  0  0  0  0  0
   11.1764   -2.6600   19.5604 C   0  0  0  0  0  0  0  0  0  0  0  0
    9.5491   -0.6380   24.1912 C   0  0  0  0  0  0  0  0  0  0  0  0
    7.5337   -6.9256   16.9519 C   0  0  0  0  0  0  0  0  0  0  0  0
    9.6782    0.5671   23.5143 C   0  0  0  0  0  0  0  0  0  0  0  0
    8.4532    0.3482   26.0821 C   0  0  0  0  0  0  0  0  0  0  0  0
   10.4239   -1.7677   22.2230 N   0  0  0  0  0  0  0  0  0  0  0  0
    9.9468   -4.5953   20.1709 C   0  0  0  0  0  0  0  0  0  0  0  0
   10.0366   -3.0590   23.9864 N   0  0  0  0  0  0  0  0  0  0  0  0
    7.1191   -7.3636   15.7739 C   0  0  0  0  0  0  0  0  0  0  0  0
    5.9612   -8.3203   17.2732 N   0  0  0  0  0  0  0  0  0  0  0  0
    8.5296   -5.9814   17.1841 C   0  0  0  0  0  0  0  0  0  0  0  0
    9.1527   -5.2118   16.2116 C   0  0  0  0  0  0  0  0  0  0  0  0
   10.3364   -3.8368   22.9255 O   0  0  0  0  0  0  0  0  0  0  0  0
    9.6947   -4.8407   18.8534 C   0  0  0  0  0  0  0  0  0  0  0  0
    9.1596    1.7042   24.1381 C   0  0  0  0  0  0  0  0  0  0  0  0
   11.0456   -2.9774   18.2694 N   0  0  0  0  0  0  0  0  0  0  0  0
   10.4788   -3.0457   21.8593 C   0  0  0  0  0  0  0  0  0  0  0  0
    8.8693   -5.8099   18.4657 N   0  0  0  0  0  0  0  0  0  0  0  0
    8.9892   -0.7926   25.4573 C   0  0  0  0  0  0  0  0  0  0  0  0
   10.5677   -3.4462   20.5323 C   0  0  0  0  0  0  0  0  0  0  0  0
  1  8  1  0
  1 12  4  0
  1 14  4  0
  2  3  4  0
  2 18  4  0
  3 20  4  0
  3 22  4  0
  4 11  4  0
  4 21  4  0
  5  9  4  0
  5 16  4  0
  6 15  4  0
  6 16  4  0
  7 22  4  0
  7 26  4  0
  8 10  4  0
  8 25  4  0
  9 15  4  0
  9 17  1  0
 10 21  4  0
 11 25  4  0
 12 23  4  0
 13 20  4  0
 13 26  4  0
 14 19  4  0
 17 18  4  0
 17 24  4  0
 19 23  4  0
 20 24  4  0
 23 26  1  0
M  END
$$$$

 Created by Python create_sdf_string function

 26 30  0  0  0  0  0  0  0  0999 V2000
   10.0084   -1.8019   23.4945 C   0  0  0  0  0  0  0  0  0  0  0  0
   10.0005   -4.2520   16.5631 C   0  0  0  0  0  0  0  0  0  0  0  0
   10.2759   -4.0036   17.8845 C   0  0  0  0  0  0  0  0  0  0  0  0
    8.5652    1.5478   25.3778 N   0  0  0  0  0  0  0  0  0  0  0  0
    6.8048   -7.5457   17.8752 C   0  0  0  0  0  0  0  0  0  0  0  0
    6.1721   -8.2186   15.9886 N   0  0  0  0  0  0  0  0  0  0  0  0
   11.1764   -2.6600   19.5604 C   0  0  0  0  0  0  0  0  0  0  0  0
    9.5491   -0.6380   24.1912 C   0  0  0  0  0  0  0  0  0  0  0  0
    7.5337   -6.9256   16.9519 C   0  0  0  0  0  0  0  0  0  0  0  0
    9.6782    0.5671   23.5143 C   0  0  0  0  0  0  0  0  0  0  0  0
    8.4532    0.3482   26.0821 C   0  0  0  0  0  0  0  0  0  0  0  0
   10.4239   -1.7677   22.2230 N   0  0  0  0  0  0  0  0  0  0  0  0
    9.9468   -4.5953   20.1709 C   0  0  0  0  0  0  0  0  0  0  0  0
   10.0366   -3.0590   23.9864 N   0  0  0  0  0  0  0  0  0  0  0  0
    7.1191   -7.3636   15.7739 C   0  0  0  0  0  0  0  0  0  0  0  0
    5.9612   -8.3203   17.2732 N   0  0  0  0  0  0  0  0  0  0  0  0
    8.5296   -5.9814   17.1841 C   0  0  0  0  0  0  0  0  0  0  0  0
    9.1527   -5.2118   16.2116 C   0  0  0  0  0  0  0  0  0  0  0  0
   10.3364   -3.8368   22.9255 O   0  0  0  0  0  0  0  0  0  0  0  0
    9.6947   -4.8407   18.8534 C   0  0  0  0  0  0  0  0  0  0  0  0
    9.1596    1.7042   24.1381 C   0  0  0  0  0  0  0  0  0  0  0  0
   11.0456   -2.9774   18.2694 N   0  0  0  0  0  0  0  0  0  0  0  0
   10.4788   -3.0457   21.8593 C   0  0  0  0  0  0  0  0  0  0  0  0
    8.8693   -5.8099   18.4657 N   0  0  0  0  0  0  0  0  0  0  0  0
    8.9892   -0.7926   25.4573 C   0  0  0  0  0  0  0  0  0  0  0  0
   10.5677   -3.4462   20.5323 C   0  0  0  0  0  0  0  0  0  0  0  0
  1  8  1  0
  1 12  4  0
  1 14  4  0
  2  3  4  0
  2 18  4  0
  3 20  4  0
  3 22  4  0
  4 11  4  0
  4 21  4  0
  5  9  4  0
  5 16  4  0
  6 15  4  0
  6 16  4  0
  7 22  4  0
  7 26  4  0
  8 10  4  0
  8 25  4  0
  9 15  4  0
  9 17  1  0
 10 21  4  0
 11 25  4  0
 12 23  4  0
 13 20  4  0
 13 26  4  0
 14 19  4  0
 17 18  4  0
 17 24  4  0
 19 23  4  0
 20 24  4  0
 23 26  1  0
M  END
$$$$

 Created by Python create_sdf_string function

 26 30  0  0  0  0  0  0  0  0999 V2000
   10.0084   -1.8019   23.4945 C   0  0  0  0  0  0  0  0  0  0  0  0
   10.0005   -4.2520   16.5631 C   0  0  0  0  0  0  0  0  0  0  0  0
   10.2759   -4.0036   17.8845 C   0  0  0  0  0  0  0  0  0  0  0  0
    8.5652    1.5478   25.3778 N   0  0  0  0  0  0  0  0  0  0  0  0
    6.8048   -7.5457   17.8752 C   0  0  0  0  0  0  0  0  0  0  0  0
    6.1721   -8.2186   15.9886 N   0  0  0  0  0  0  0  0  0  0  0  0
   11.1764   -2.6600   19.5604 C   0  0  0  0  0  0  0  0  0  0  0  0
    9.5491   -0.6380   24.1912 C   0  0  0  0  0  0  0  0  0  0  0  0
    7.5337   -6.9256   16.9519 C   0  0  0  0  0  0  0  0  0  0  0  0
    9.6782    0.5671   23.5143 C   0  0  0  0  0  0  0  0  0  0  0  0
    8.4532    0.3482   26.0821 C   0  0  0  0  0  0  0  0  0  0  0  0
   10.4239   -1.7677   22.2230 N   0  0  0  0  0  0  0  0  0  0  0  0
    9.9468   -4.5953   20.1709 C   0  0  0  0  0  0  0  0  0  0  0  0
   10.0366   -3.0590   23.9864 N   0  0  0  0  0  0  0  0  0  0  0  0
    7.1191   -7.3636   15.7739 C   0  0  0  0  0  0  0  0  0  0  0  0
    5.9612   -8.3203   17.2732 N   0  0  0  0  0  0  0  0  0  0  0  0
    8.5296   -5.9814   17.1841 C   0  0  0  0  0  0  0  0  0  0  0  0
    9.1527   -5.2118   16.2116 C   0  0  0  0  0  0  0  0  0  0  0  0
   10.3364   -3.8368   22.9255 O   0  0  0  0  0  0  0  0  0  0  0  0
    9.6947   -4.8407   18.8534 C   0  0  0  0  0  0  0  0  0  0  0  0
    9.1596    1.7042   24.1381 C   0  0  0  0  0  0  0  0  0  0  0  0
   11.0456   -2.9774   18.2694 N   0  0  0  0  0  0  0  0  0  0  0  0
   10.4788   -3.0457   21.8593 C   0  0  0  0  0  0  0  0  0  0  0  0
    8.8693   -5.8099   18.4657 N   0  0  0  0  0  0  0  0  0  0  0  0
    8.9892   -0.7926   25.4573 C   0  0  0  0  0  0  0  0  0  0  0  0
   10.5677   -3.4462   20.5323 C   0  0  0  0  0  0  0  0  0  0  0  0
  1  8  1  0
  1 12  4  0
  1 14  4  0
  2  3  4  0
  2 18  4  0
  3 20  4  0
  3 22  4  0
  4 11  4  0
  4 21  4  0
  5  9  4  0
  5 16  4  0
  6 15  4  0
  6 16  4  0
  7 22  4  0
  7 26  4  0
  8 10  4  0
  8 25  4  0
  9 15  4  0
  9 17  1  0
 10 21  4  0
 11 25  4  0
 12 23  4  0
 13 20  4  0
 13 26  4  0
 14 19  4  0
 17 18  4  0
 17 24  4  0
 19 23  4  0
 20 24  4  0
 23 26  1  0
M  END
$$$$

 Created by Python create_sdf_string function

 26 30  0  0  0  0  0  0  0  0999 V2000
   10.0084   -1.8019   23.4945 C   0  0  0  0  0  0  0  0  0  0  0  0
   10.0005   -4.2520   16.5631 C   0  0  0  0  0  0  0  0  0  0  0  0
   10.2759   -4.0036   17.8845 C   0  0  0  0  0  0  0  0  0  0  0  0
    8.5652    1.5478   25.3778 N   0  0  0  0  0  0  0  0  0  0  0  0
    6.8048   -7.5457   17.8752 C   0  0  0  0  0  0  0  0  0  0  0  0
    6.1721   -8.2186   15.9886 N   0  0  0  0  0  0  0  0  0  0  0  0
   11.1764   -2.6600   19.5604 C   0  0  0  0  0  0  0  0  0  0  0  0
    9.5491   -0.6380   24.1912 C   0  0  0  0  0  0  0  0  0  0  0  0
    7.5337   -6.9256   16.9519 C   0  0  0  0  0  0  0  0  0  0  0  0
    9.6782    0.5671   23.5143 C   0  0  0  0  0  0  0  0  0  0  0  0
    8.4532    0.3482   26.0821 C   0  0  0  0  0  0  0  0  0  0  0  0
   10.4239   -1.7677   22.2230 N   0  0  0  0  0  0  0  0  0  0  0  0
    9.9468   -4.5953   20.1709 C   0  0  0  0  0  0  0  0  0  0  0  0
   10.0366   -3.0590   23.9864 N   0  0  0  0  0  0  0  0  0  0  0  0
    7.1191   -7.3636   15.7739 C   0  0  0  0  0  0  0  0  0  0  0  0
    5.9612   -8.3203   17.2732 N   0  0  0  0  0  0  0  0  0  0  0  0
    8.5296   -5.9814   17.1841 C   0  0  0  0  0  0  0  0  0  0  0  0
    9.1527   -5.2118   16.2116 C   0  0  0  0  0  0  0  0  0  0  0  0
   10.3364   -3.8368   22.9255 O   0  0  0  0  0  0  0  0  0  0  0  0
    9.6947   -4.8407   18.8534 C   0  0  0  0  0  0  0  0  0  0  0  0
    9.1596    1.7042   24.1381 C   0  0  0  0  0  0  0  0  0  0  0  0
   11.0456   -2.9774   18.2694 N   0  0  0  0  0  0  0  0  0  0  0  0
   10.4788   -3.0457   21.8593 C   0  0  0  0  0  0  0  0  0  0  0  0
    8.8693   -5.8099   18.4657 N   0  0  0  0  0  0  0  0  0  0  0  0
    8.9892   -0.7926   25.4573 C   0  0  0  0  0  0  0  0  0  0  0  0
   10.5677   -3.4462   20.5323 C   0  0  0  0  0  0  0  0  0  0  0  0
  1  8  1  0
  1 12  4  0
  1 14  4  0
  2  3  4  0
  2 18  4  0
  3 20  4  0
  3 22  4  0
  4 11  4  0
  4 21  4  0
  5  9  4  0
  5 16  4  0
  6 15  4  0
  6 16  4  0
  7 22  4  0
  7 26  4  0
  8 10  4  0
  8 25  4  0
  9 15  4  0
  9 17  1  0
 10 21  4  0
 11 25  4  0
 12 23  4  0
 13 20  4  0
 13 26  4  0
 14 19  4  0
 17 18  4  0
 17 24  4  0
 19 23  4  0
 20 24  4  0
 23 26  1  0
M  END
$$$$

 Created by Python create_sdf_string function

 26 30  0  0  0  0  0  0  0  0999 V2000
   10.0084   -1.8019   23.4945 C   0  0  0  0  0  0  0  0  0  0  0  0
   10.0005   -4.2520   16.5631 C   0  0  0  0  0  0  0  0  0  0  0  0
   10.2759   -4.0036   17.8845 C   0  0  0  0  0  0  0  0  0  0  0  0
    8.5652    1.5478   25.3778 N   0  0  0  0  0  0  0  0  0  0  0  0
    6.8048   -7.5457   17.8752 C   0  0  0  0  0  0  0  0  0  0  0  0
    6.1721   -8.2186   15.9886 N   0  0  0  0  0  0  0  0  0  0  0  0
   11.1764   -2.6600   19.5604 C   0  0  0  0  0  0  0  0  0  0  0  0
    9.5491   -0.6380   24.1912 C   0  0  0  0  0  0  0  0  0  0  0  0
    7.5337   -6.9256   16.9519 C   0  0  0  0  0  0  0  0  0  0  0  0
    9.6782    0.5671   23.5143 C   0  0  0  0  0  0  0  0  0  0  0  0
    8.4532    0.3482   26.0821 C   0  0  0  0  0  0  0  0  0  0  0  0
   10.4239   -1.7677   22.2230 N   0  0  0  0  0  0  0  0  0  0  0  0
    9.9468   -4.5953   20.1709 C   0  0  0  0  0  0  0  0  0  0  0  0
   10.0366   -3.0590   23.9864 N   0  0  0  0  0  0  0  0  0  0  0  0
    7.1191   -7.3636   15.7739 C   0  0  0  0  0  0  0  0  0  0  0  0
    5.9612   -8.3203   17.2732 N   0  0  0  0  0  0  0  0  0  0  0  0
    8.5296   -5.9814   17.1841 C   0  0  0  0  0  0  0  0  0  0  0  0
    9.1527   -5.2118   16.2116 C   0  0  0  0  0  0  0  0  0  0  0  0
   10.3364   -3.8368   22.9255 O   0  0  0  0  0  0  0  0  0  0  0  0
    9.6947   -4.8407   18.8534 C   0  0  0  0  0  0  0  0  0  0  0  0
    9.1596    1.7042   24.1381 C   0  0  0  0  0  0  0  0  0  0  0  0
   11.0456   -2.9774   18.2694 N   0  0  0  0  0  0  0  0  0  0  0  0
   10.4788   -3.0457   21.8593 C   0  0  0  0  0  0  0  0  0  0  0  0
    8.8693   -5.8099   18.4657 N   0  0  0  0  0  0  0  0  0  0  0  0
    8.9892   -0.7926   25.4573 C   0  0  0  0  0  0  0  0  0  0  0  0
   10.5677   -3.4462   20.5323 C   0  0  0  0  0  0  0  0  0  0  0  0
  1  8  1  0
  1 12  4  0
  1 14  4  0
  2  3  4  0
  2 18  4  0
  3 20  4  0
  3 22  4  0
  4 11  4  0
  4 21  4  0
  5  9  4  0
  5 16  4  0
  6 15  4  0
  6 16  4  0
  7 22  4  0
  7 26  4  0
  8 10  4  0
  8 25  4  0
  9 15  4  0
  9 17  1  0
 10 21  4  0
 11 25  4  0
 12 23  4  0
 13 20  4  0
 13 26  4  0
 14 19  4  0
 17 18  4  0
 17 24  4  0
 19 23  4  0
 20 24  4  0
 23 26  1  0
M  END
$$$$

 Created by Python create_sdf_string function

 26 30  0  0  0  0  0  0  0  0999 V2000
   10.0084   -1.8019   23.4945 C   0  0  0  0  0  0  0  0  0  0  0  0
   10.0005   -4.2520   16.5631 C   0  0  0  0  0  0  0  0  0  0  0  0
   10.2759   -4.0036   17.8845 C   0  0  0  0  0  0  0  0  0  0  0  0
    8.5652    1.5478   25.3778 N   0  0  0  0  0  0  0  0  0  0  0  0
    6.8048   -7.5457   17.8752 C   0  0  0  0  0  0  0  0  0  0  0  0
    6.1721   -8.2186   15.9886 N   0  0  0  0  0  0  0  0  0  0  0  0
   11.1764   -2.6600   19.5604 C   0  0  0  0  0  0  0  0  0  0  0  0
    9.5491   -0.6380   24.1912 C   0  0  0  0  0  0  0  0  0  0  0  0
    7.5337   -6.9256   16.9519 C   0  0  0  0  0  0  0  0  0  0  0  0
    9.6782    0.5671   23.5143 C   0  0  0  0  0  0  0  0  0  0  0  0
    8.4532    0.3482   26.0821 C   0  0  0  0  0  0  0  0  0  0  0  0
   10.4239   -1.7677   22.2230 N   0  0  0  0  0  0  0  0  0  0  0  0
    9.9468   -4.5953   20.1709 C   0  0  0  0  0  0  0  0  0  0  0  0
   10.0366   -3.0590   23.9864 N   0  0  0  0  0  0  0  0  0  0  0  0
    7.1191   -7.3636   15.7739 C   0  0  0  0  0  0  0  0  0  0  0  0
    5.9612   -8.3203   17.2732 N   0  0  0  0  0  0  0  0  0  0  0  0
    8.5296   -5.9814   17.1841 C   0  0  0  0  0  0  0  0  0  0  0  0
    9.1527   -5.2118   16.2116 C   0  0  0  0  0  0  0  0  0  0  0  0
   10.3364   -3.8368   22.9255 O   0  0  0  0  0  0  0  0  0  0  0  0
    9.6947   -4.8407   18.8534 C   0  0  0  0  0  0  0  0  0  0  0  0
    9.1596    1.7042   24.1381 C   0  0  0  0  0  0  0  0  0  0  0  0
   11.0456   -2.9774   18.2694 N   0  0  0  0  0  0  0  0  0  0  0  0
   10.4788   -3.0457   21.8593 C   0  0  0  0  0  0  0  0  0  0  0  0
    8.8693   -5.8099   18.4657 N   0  0  0  0  0  0  0  0  0  0  0  0
    8.9892   -0.7926   25.4573 C   0  0  0  0  0  0  0  0  0  0  0  0
   10.5677   -3.4462   20.5323 C   0  0  0  0  0  0  0  0  0  0  0  0
  1  8  1  0
  1 12  4  0
  1 14  4  0
  2  3  4  0
  2 18  4  0
  3 20  4  0
  3 22  4  0
  4 11  4  0
  4 21  4  0
  5  9  4  0
  5 16  4  0
  6 15  4  0
  6 16  4  0
  7 22  4  0
  7 26  4  0
  8 10  4  0
  8 25  4  0
  9 15  4  0
  9 17  1  0
 10 21  4  0
 11 25  4  0
 12 23  4  0
 13 20  4  0
 13 26  4  0
 14 19  4  0
 17 18  4  0
 17 24  4  0
 19 23  4  0
 20 24  4  0
 23 26  1  0
M  END
$$$$

 Created by Python create_sdf_string function

 26 30  0  0  0  0  0  0  0  0999 V2000
   10.0084   -1.8019   23.4945 C   0  0  0  0  0  0  0  0  0  0  0  0
   10.0005   -4.2520   16.5631 C   0  0  0  0  0  0  0  0  0  0  0  0
   10.2759   -4.0036   17.8845 C   0  0  0  0  0  0  0  0  0  0  0  0
    8.5652    1.5478   25.3778 N   0  0  0  0  0  0  0  0  0  0  0  0
    6.8048   -7.5457   17.8752 C   0  0  0  0  0  0  0  0  0  0  0  0
    6.1721   -8.2186   15.9886 N   0  0  0  0  0  0  0  0  0  0  0  0
   11.1764   -2.6600   19.5604 C   0  0  0  0  0  0  0  0  0  0  0  0
    9.5491   -0.6380   24.1912 C   0  0  0  0  0  0  0  0  0  0  0  0
    7.5337   -6.9256   16.9519 C   0  0  0  0  0  0  0  0  0  0  0  0
    9.6782    0.5671   23.5143 C   0  0  0  0  0  0  0  0  0  0  0  0
    8.4532    0.3482   26.0821 C   0  0  0  0  0  0  0  0  0  0  0  0
   10.4239   -1.7677   22.2230 N   0  0  0  0  0  0  0  0  0  0  0  0
    9.9468   -4.5953   20.1709 C   0  0  0  0  0  0  0  0  0  0  0  0
   10.0366   -3.0590   23.9864 N   0  0  0  0  0  0  0  0  0  0  0  0
    7.1191   -7.3636   15.7739 C   0  0  0  0  0  0  0  0  0  0  0  0
    5.9612   -8.3203   17.2732 N   0  0  0  0  0  0  0  0  0  0  0  0
    8.5296   -5.9814   17.1841 C   0  0  0  0  0  0  0  0  0  0  0  0
    9.1527   -5.2118   16.2116 C   0  0  0  0  0  0  0  0  0  0  0  0
   10.3364   -3.8368   22.9255 O   0  0  0  0  0  0  0  0  0  0  0  0
    9.6947   -4.8407   18.8534 C   0  0  0  0  0  0  0  0  0  0  0  0
    9.1596    1.7042   24.1381 C   0  0  0  0  0  0  0  0  0  0  0  0
   11.0456   -2.9774   18.2694 N   0  0  0  0  0  0  0  0  0  0  0  0
   10.4788   -3.0457   21.8593 C   0  0  0  0  0  0  0  0  0  0  0  0
    8.8693   -5.8099   18.4657 N   0  0  0  0  0  0  0  0  0  0  0  0
    8.9892   -0.7926   25.4573 C   0  0  0  0  0  0  0  0  0  0  0  0
   10.5677   -3.4462   20.5323 C   0  0  0  0  0  0  0  0  0  0  0  0
  1  8  1  0
  1 12  4  0
  1 14  4  0
  2  3  4  0
  2 18  4  0
  3 20  4  0
  3 22  4  0
  4 11  4  0
  4 21  4  0
  5  9  4  0
  5 16  4  0
  6 15  4  0
  6 16  4  0
  7 22  4  0
  7 26  4  0
  8 10  4  0
  8 25  4  0
  9 15  4  0
  9 17  1  0
 10 21  4  0
 11 25  4  0
 12 23  4  0
 13 20  4  0
 13 26  4  0
 14 19  4  0
 17 18  4  0
 17 24  4  0
 19 23  4  0
 20 24  4  0
 23 26  1  0
M  END
$$$$

 Created by Python create_sdf_string function

 26 30  0  0  0  0  0  0  0  0999 V2000
   10.0084   -1.8019   23.4945 C   0  0  0  0  0  0  0  0  0  0  0  0
   10.0005   -4.2520   16.5631 C   0  0  0  0  0  0  0  0  0  0  0  0
   10.2759   -4.0036   17.8845 C   0  0  0  0  0  0  0  0  0  0  0  0
    8.5652    1.5478   25.3778 N   0  0  0  0  0  0  0  0  0  0  0  0
    6.8048   -7.5457   17.8752 C   0  0  0  0  0  0  0  0  0  0  0  0
    6.1721   -8.2186   15.9886 N   0  0  0  0  0  0  0  0  0  0  0  0
   11.1764   -2.6600   19.5604 C   0  0  0  0  0  0  0  0  0  0  0  0
    9.5491   -0.6380   24.1912 C   0  0  0  0  0  0  0  0  0  0  0  0
    7.5337   -6.9256   16.9519 C   0  0  0  0  0  0  0  0  0  0  0  0
    9.6782    0.5671   23.5143 C   0  0  0  0  0  0  0  0  0  0  0  0
    8.4532    0.3482   26.0821 C   0  0  0  0  0  0  0  0  0  0  0  0
   10.4239   -1.7677   22.2230 N   0  0  0  0  0  0  0  0  0  0  0  0
    9.9468   -4.5953   20.1709 C   0  0  0  0  0  0  0  0  0  0  0  0
   10.0366   -3.0590   23.9864 N   0  0  0  0  0  0  0  0  0  0  0  0
    7.1191   -7.3636   15.7739 C   0  0  0  0  0  0  0  0  0  0  0  0
    5.9612   -8.3203   17.2732 N   0  0  0  0  0  0  0  0  0  0  0  0
    8.5296   -5.9814   17.1841 C   0  0  0  0  0  0  0  0  0  0  0  0
    9.1527   -5.2118   16.2116 C   0  0  0  0  0  0  0  0  0  0  0  0
   10.3364   -3.8368   22.9255 O   0  0  0  0  0  0  0  0  0  0  0  0
    9.6947   -4.8407   18.8534 C   0  0  0  0  0  0  0  0  0  0  0  0
    9.1596    1.7042   24.1381 C   0  0  0  0  0  0  0  0  0  0  0  0
   11.0456   -2.9774   18.2694 N   0  0  0  0  0  0  0  0  0  0  0  0
   10.4788   -3.0457   21.8593 C   0  0  0  0  0  0  0  0  0  0  0  0
    8.8693   -5.8099   18.4657 N   0  0  0  0  0  0  0  0  0  0  0  0
    8.9892   -0.7926   25.4573 C   0  0  0  0  0  0  0  0  0  0  0  0
   10.5677   -3.4462   20.5323 C   0  0  0  0  0  0  0  0  0  0  0  0
  1  8  1  0
  1 12  4  0
  1 14  4  0
  2  3  4  0
  2 18  4  0
  3 20  4  0
  3 22  4  0
  4 11  4  0
  4 21  4  0
  5  9  4  0
  5 16  4  0
  6 15  4  0
  6 16  4  0
  7 22  4  0
  7 26  4  0
  8 10  4  0
  8 25  4  0
  9 15  4  0
  9 17  1  0
 10 21  4  0
 11 25  4  0
 12 23  4  0
 13 20  4  0
 13 26  4  0
 14 19  4  0
 17 18  4  0
 17 24  4  0
 19 23  4  0
 20 24  4  0
 23 26  1  0
M  END
$$$$

 Created by Python create_sdf_string function

 26 30  0  0  0  0  0  0  0  0999 V2000
   10.0084   -1.8019   23.4945 C   0  0  0  0  0  0  0  0  0  0  0  0
   10.0005   -4.2520   16.5631 C   0  0  0  0  0  0  0  0  0  0  0  0
   10.2759   -4.0036   17.8845 C   0  0  0  0  0  0  0  0  0  0  0  0
    8.5652    1.5478   25.3778 N   0  0  0  0  0  0  0  0  0  0  0  0
    6.8048   -7.5457   17.8752 C   0  0  0  0  0  0  0  0  0  0  0  0
    6.1721   -8.2186   15.9886 N   0  0  0  0  0  0  0  0  0  0  0  0
   11.1764   -2.6600   19.5604 C   0  0  0  0  0  0  0  0  0  0  0  0
    9.5491   -0.6380   24.1912 C   0  0  0  0  0  0  0  0  0  0  0  0
    7.5337   -6.9256   16.9519 C   0  0  0  0  0  0  0  0  0  0  0  0
    9.6782    0.5671   23.5143 C   0  0  0  0  0  0  0  0  0  0  0  0
    8.4532    0.3482   26.0821 C   0  0  0  0  0  0  0  0  0  0  0  0
   10.4239   -1.7677   22.2230 N   0  0  0  0  0  0  0  0  0  0  0  0
    9.9468   -4.5953   20.1709 C   0  0  0  0  0  0  0  0  0  0  0  0
   10.0366   -3.0590   23.9864 N   0  0  0  0  0  0  0  0  0  0  0  0
    7.1191   -7.3636   15.7739 C   0  0  0  0  0  0  0  0  0  0  0  0
    5.9612   -8.3203   17.2732 N   0  0  0  0  0  0  0  0  0  0  0  0
    8.5296   -5.9814   17.1841 C   0  0  0  0  0  0  0  0  0  0  0  0
    9.1527   -5.2118   16.2116 C   0  0  0  0  0  0  0  0  0  0  0  0
   10.3364   -3.8368   22.9255 O   0  0  0  0  0  0  0  0  0  0  0  0
    9.6947   -4.8407   18.8534 C   0  0  0  0  0  0  0  0  0  0  0  0
    9.1596    1.7042   24.1381 C   0  0  0  0  0  0  0  0  0  0  0  0
   11.0456   -2.9774   18.2694 N   0  0  0  0  0  0  0  0  0  0  0  0
   10.4788   -3.0457   21.8593 C   0  0  0  0  0  0  0  0  0  0  0  0
    8.8693   -5.8099   18.4657 N   0  0  0  0  0  0  0  0  0  0  0  0
    8.9892   -0.7926   25.4573 C   0  0  0  0  0  0  0  0  0  0  0  0
   10.5677   -3.4462   20.5323 C   0  0  0  0  0  0  0  0  0  0  0  0
  1  8  1  0
  1 12  4  0
  1 14  4  0
  2  3  4  0
  2 18  4  0
  3 20  4  0
  3 22  4  0
  4 11  4  0
  4 21  4  0
  5  9  4  0
  5 16  4  0
  6 15  4  0
  6 16  4  0
  7 22  4  0
  7 26  4  0
  8 10  4  0
  8 25  4  0
  9 15  4  0
  9 17  1  0
 10 21  4  0
 11 25  4  0
 12 23  4  0
 13 20  4  0
 13 26  4  0
 14 19  4  0
 17 18  4  0
 17 24  4  0
 19 23  4  0
 20 24  4  0
 23 26  1  0
M  END
$$$$

 Created by Python create_sdf_string function

 26 30  0  0  0  0  0  0  0  0999 V2000
   10.0084   -1.8019   23.4945 C   0  0  0  0  0  0  0  0  0  0  0  0
   10.0005   -4.2520   16.5631 C   0  0  0  0  0  0  0  0  0  0  0  0
   10.2759   -4.0036   17.8845 C   0  0  0  0  0  0  0  0  0  0  0  0
    8.5652    1.5478   25.3778 N   0  0  0  0  0  0  0  0  0  0  0  0
    6.8048   -7.5457   17.8752 C   0  0  0  0  0  0  0  0  0  0  0  0
    6.1721   -8.2186   15.9886 N   0  0  0  0  0  0  0  0  0  0  0  0
   11.1764   -2.6600   19.5604 C   0  0  0  0  0  0  0  0  0  0  0  0
    9.5491   -0.6380   24.1912 C   0  0  0  0  0  0  0  0  0  0  0  0
    7.5337   -6.9256   16.9519 C   0  0  0  0  0  0  0  0  0  0  0  0
    9.6782    0.5671   23.5143 C   0  0  0  0  0  0  0  0  0  0  0  0
    8.4532    0.3482   26.0821 C   0  0  0  0  0  0  0  0  0  0  0  0
   10.4239   -1.7677   22.2230 N   0  0  0  0  0  0  0  0  0  0  0  0
    9.9468   -4.5953   20.1709 C   0  0  0  0  0  0  0  0  0  0  0  0
   10.0366   -3.0590   23.9864 N   0  0  0  0  0  0  0  0  0  0  0  0
    7.1191   -7.3636   15.7739 C   0  0  0  0  0  0  0  0  0  0  0  0
    5.9612   -8.3203   17.2732 N   0  0  0  0  0  0  0  0  0  0  0  0
    8.5296   -5.9814   17.1841 C   0  0  0  0  0  0  0  0  0  0  0  0
    9.1527   -5.2118   16.2116 C   0  0  0  0  0  0  0  0  0  0  0  0
   10.3364   -3.8368   22.9255 O   0  0  0  0  0  0  0  0  0  0  0  0
    9.6947   -4.8407   18.8534 C   0  0  0  0  0  0  0  0  0  0  0  0
    9.1596    1.7042   24.1381 C   0  0  0  0  0  0  0  0  0  0  0  0
   11.0456   -2.9774   18.2694 N   0  0  0  0  0  0  0  0  0  0  0  0
   10.4788   -3.0457   21.8593 C   0  0  0  0  0  0  0  0  0  0  0  0
    8.8693   -5.8099   18.4657 N   0  0  0  0  0  0  0  0  0  0  0  0
    8.9892   -0.7926   25.4573 C   0  0  0  0  0  0  0  0  0  0  0  0
   10.5677   -3.4462   20.5323 C   0  0  0  0  0  0  0  0  0  0  0  0
  1  8  1  0
  1 12  4  0
  1 14  4  0
  2  3  4  0
  2 18  4  0
  3 20  4  0
  3 22  4  0
  4 11  4  0
  4 21  4  0
  5  9  4  0
  5 16  4  0
  6 15  4  0
  6 16  4  0
  7 22  4  0
  7 26  4  0
  8 10  4  0
  8 25  4  0
  9 15  4  0
  9 17  1  0
 10 21  4  0
 11 25  4  0
 12 23  4  0
 13 20  4  0
 13 26  4  0
 14 19  4  0
 17 18  4  0
 17 24  4  0
 19 23  4  0
 20 24  4  0
 23 26  1  0
M  END
$$$$

 Created by Python create_sdf_string function

 26 30  0  0  0  0  0  0  0  0999 V2000
   10.0084   -1.8019   23.4945 C   0  0  0  0  0  0  0  0  0  0  0  0
   10.0005   -4.2520   16.5631 C   0  0  0  0  0  0  0  0  0  0  0  0
   10.2759   -4.0036   17.8845 C   0  0  0  0  0  0  0  0  0  0  0  0
    8.5652    1.5478   25.3778 N   0  0  0  0  0  0  0  0  0  0  0  0
    6.8048   -7.5457   17.8752 C   0  0  0  0  0  0  0  0  0  0  0  0
    6.1721   -8.2186   15.9886 N   0  0  0  0  0  0  0  0  0  0  0  0
   11.1764   -2.6600   19.5604 C   0  0  0  0  0  0  0  0  0  0  0  0
    9.5491   -0.6380   24.1912 C   0  0  0  0  0  0  0  0  0  0  0  0
    7.5337   -6.9256   16.9519 C   0  0  0  0  0  0  0  0  0  0  0  0
    9.6782    0.5671   23.5143 C   0  0  0  0  0  0  0  0  0  0  0  0
    8.4532    0.3482   26.0821 C   0  0  0  0  0  0  0  0  0  0  0  0
   10.4239   -1.7677   22.2230 N   0  0  0  0  0  0  0  0  0  0  0  0
    9.9468   -4.5953   20.1709 C   0  0  0  0  0  0  0  0  0  0  0  0
   10.0366   -3.0590   23.9864 N   0  0  0  0  0  0  0  0  0  0  0  0
    7.1191   -7.3636   15.7739 C   0  0  0  0  0  0  0  0  0  0  0  0
    5.9612   -8.3203   17.2732 N   0  0  0  0  0  0  0  0  0  0  0  0
    8.5296   -5.9814   17.1841 C   0  0  0  0  0  0  0  0  0  0  0  0
    9.1527   -5.2118   16.2116 C   0  0  0  0  0  0  0  0  0  0  0  0
   10.3364   -3.8368   22.9255 O   0  0  0  0  0  0  0  0  0  0  0  0
    9.6947   -4.8407   18.8534 C   0  0  0  0  0  0  0  0  0  0  0  0
    9.1596    1.7042   24.1381 C   0  0  0  0  0  0  0  0  0  0  0  0
   11.0456   -2.9774   18.2694 N   0  0  0  0  0  0  0  0  0  0  0  0
   10.4788   -3.0457   21.8593 C   0  0  0  0  0  0  0  0  0  0  0  0
    8.8693   -5.8099   18.4657 N   0  0  0  0  0  0  0  0  0  0  0  0
    8.9892   -0.7926   25.4573 C   0  0  0  0  0  0  0  0  0  0  0  0
   10.5677   -3.4462   20.5323 C   0  0  0  0  0  0  0  0  0  0  0  0
  1  8  1  0
  1 12  4  0
  1 14  4  0
  2  3  4  0
  2 18  4  0
  3 20  4  0
  3 22  4  0
  4 11  4  0
  4 21  4  0
  5  9  4  0
  5 16  4  0
  6 15  4  0
  6 16  4  0
  7 22  4  0
  7 26  4  0
  8 10  4  0
  8 25  4  0
  9 15  4  0
  9 17  1  0
 10 21  4  0
 11 25  4  0
 12 23  4  0
 13 20  4  0
 13 26  4  0
 14 19  4  0
 17 18  4  0
 17 24  4  0
 19 23  4  0
 20 24  4  0
 23 26  1  0
M  END
$$$$

 Created by Python create_sdf_string function

 26 30  0  0  0  0  0  0  0  0999 V2000
   10.0084   -1.8019   23.4945 C   0  0  0  0  0  0  0  0  0  0  0  0
   10.0005   -4.2520   16.5631 C   0  0  0  0  0  0  0  0  0  0  0  0
   10.2759   -4.0036   17.8845 C   0  0  0  0  0  0  0  0  0  0  0  0
    8.5652    1.5478   25.3778 N   0  0  0  0  0  0  0  0  0  0  0  0
    6.8048   -7.5457   17.8752 C   0  0  0  0  0  0  0  0  0  0  0  0
    6.1721   -8.2186   15.9886 N   0  0  0  0  0  0  0  0  0  0  0  0
   11.1764   -2.6600   19.5604 C   0  0  0  0  0  0  0  0  0  0  0  0
    9.5491   -0.6380   24.1912 C   0  0  0  0  0  0  0  0  0  0  0  0
    7.5337   -6.9256   16.9519 C   0  0  0  0  0  0  0  0  0  0  0  0
    9.6782    0.5671   23.5143 C   0  0  0  0  0  0  0  0  0  0  0  0
    8.4532    0.3482   26.0821 C   0  0  0  0  0  0  0  0  0  0  0  0
   10.4239   -1.7677   22.2230 N   0  0  0  0  0  0  0  0  0  0  0  0
    9.9468   -4.5953   20.1709 C   0  0  0  0  0  0  0  0  0  0  0  0
   10.0366   -3.0590   23.9864 N   0  0  0  0  0  0  0  0  0  0  0  0
    7.1191   -7.3636   15.7739 C   0  0  0  0  0  0  0  0  0  0  0  0
    5.9612   -8.3203   17.2732 N   0  0  0  0  0  0  0  0  0  0  0  0
    8.5296   -5.9814   17.1841 C   0  0  0  0  0  0  0  0  0  0  0  0
    9.1527   -5.2118   16.2116 C   0  0  0  0  0  0  0  0  0  0  0  0
   10.3364   -3.8368   22.9255 O   0  0  0  0  0  0  0  0  0  0  0  0
    9.6947   -4.8407   18.8534 C   0  0  0  0  0  0  0  0  0  0  0  0
    9.1596    1.7042   24.1381 C   0  0  0  0  0  0  0  0  0  0  0  0
   11.0456   -2.9774   18.2694 N   0  0  0  0  0  0  0  0  0  0  0  0
   10.4788   -3.0457   21.8593 C   0  0  0  0  0  0  0  0  0  0  0  0
    8.8693   -5.8099   18.4657 N   0  0  0  0  0  0  0  0  0  0  0  0
    8.9892   -0.7926   25.4573 C   0  0  0  0  0  0  0  0  0  0  0  0
   10.5677   -3.4462   20.5323 C   0  0  0  0  0  0  0  0  0  0  0  0
  1  8  1  0
  1 12  4  0
  1 14  4  0
  2  3  4  0
  2 18  4  0
  3 20  4  0
  3 22  4  0
  4 11  4  0
  4 21  4  0
  5  9  4  0
  5 16  4  0
  6 15  4  0
  6 16  4  0
  7 22  4  0
  7 26  4  0
  8 10  4  0
  8 25  4  0
  9 15  4  0
  9 17  1  0
 10 21  4  0
 11 25  4  0
 12 23  4  0
 13 20  4  0
 13 26  4  0
 14 19  4  0
 17 18  4  0
 17 24  4  0
 19 23  4  0
 20 24  4  0
 23 26  1  0
M  END
$$$$

 Created by Python create_sdf_string function

 26 30  0  0  0  0  0  0  0  0999 V2000
   10.0084   -1.8019   23.4945 C   0  0  0  0  0  0  0  0  0  0  0  0
   10.0005   -4.2520   16.5631 C   0  0  0  0  0  0  0  0  0  0  0  0
   10.2759   -4.0036   17.8845 C   0  0  0  0  0  0  0  0  0  0  0  0
    8.5652    1.5478   25.3778 N   0  0  0  0  0  0  0  0  0  0  0  0
    6.8048   -7.5457   17.8752 C   0  0  0  0  0  0  0  0  0  0  0  0
    6.1721   -8.2186   15.9886 N   0  0  0  0  0  0  0  0  0  0  0  0
   11.1764   -2.6600   19.5604 C   0  0  0  0  0  0  0  0  0  0  0  0
    9.5491   -0.6380   24.1912 C   0  0  0  0  0  0  0  0  0  0  0  0
    7.5337   -6.9256   16.9519 C   0  0  0  0  0  0  0  0  0  0  0  0
    9.6782    0.5671   23.5143 C   0  0  0  0  0  0  0  0  0  0  0  0
    8.4532    0.3482   26.0821 C   0  0  0  0  0  0  0  0  0  0  0  0
   10.4239   -1.7677   22.2230 N   0  0  0  0  0  0  0  0  0  0  0  0
    9.9468   -4.5953   20.1709 C   0  0  0  0  0  0  0  0  0  0  0  0
   10.0366   -3.0590   23.9864 N   0  0  0  0  0  0  0  0  0  0  0  0
    7.1191   -7.3636   15.7739 C   0  0  0  0  0  0  0  0  0  0  0  0
    5.9612   -8.3203   17.2732 N   0  0  0  0  0  0  0  0  0  0  0  0
    8.5296   -5.9814   17.1841 C   0  0  0  0  0  0  0  0  0  0  0  0
    9.1527   -5.2118   16.2116 C   0  0  0  0  0  0  0  0  0  0  0  0
   10.3364   -3.8368   22.9255 O   0  0  0  0  0  0  0  0  0  0  0  0
    9.6947   -4.8407   18.8534 C   0  0  0  0  0  0  0  0  0  0  0  0
    9.1596    1.7042   24.1381 C   0  0  0  0  0  0  0  0  0  0  0  0
   11.0456   -2.9774   18.2694 N   0  0  0  0  0  0  0  0  0  0  0  0
   10.4788   -3.0457   21.8593 C   0  0  0  0  0  0  0  0  0  0  0  0
    8.8693   -5.8099   18.4657 N   0  0  0  0  0  0  0  0  0  0  0  0
    8.9892   -0.7926   25.4573 C   0  0  0  0  0  0  0  0  0  0  0  0
   10.5677   -3.4462   20.5323 C   0  0  0  0  0  0  0  0  0  0  0  0
  1  8  1  0
  1 12  4  0
  1 14  4  0
  2  3  4  0
  2 18  4  0
  3 20  4  0
  3 22  4  0
  4 11  4  0
  4 21  4  0
  5  9  4  0
  5 16  4  0
  6 15  4  0
  6 16  4  0
  7 22  4  0
  7 26  4  0
  8 10  4  0
  8 25  4  0
  9 15  4  0
  9 17  1  0
 10 21  4  0
 11 25  4  0
 12 23  4  0
 13 20  4  0
 13 26  4  0
 14 19  4  0
 17 18  4  0
 17 24  4  0
 19 23  4  0
 20 24  4  0
 23 26  1  0
M  END
$$$$

 Created by Python create_sdf_string function

 26 30  0  0  0  0  0  0  0  0999 V2000
   10.0084   -1.8019   23.4945 C   0  0  0  0  0  0  0  0  0  0  0  0
   10.0005   -4.2520   16.5631 C   0  0  0  0  0  0  0  0  0  0  0  0
   10.2759   -4.0036   17.8845 C   0  0  0  0  0  0  0  0  0  0  0  0
    8.5652    1.5478   25.3778 N   0  0  0  0  0  0  0  0  0  0  0  0
    6.8048   -7.5457   17.8752 C   0  0  0  0  0  0  0  0  0  0  0  0
    6.1721   -8.2186   15.9886 N   0  0  0  0  0  0  0  0  0  0  0  0
   11.1764   -2.6600   19.5604 C   0  0  0  0  0  0  0  0  0  0  0  0
    9.5491   -0.6380   24.1912 C   0  0  0  0  0  0  0  0  0  0  0  0
    7.5337   -6.9256   16.9519 C   0  0  0  0  0  0  0  0  0  0  0  0
    9.6782    0.5671   23.5143 C   0  0  0  0  0  0  0  0  0  0  0  0
    8.4532    0.3482   26.0821 C   0  0  0  0  0  0  0  0  0  0  0  0
   10.4239   -1.7677   22.2230 N   0  0  0  0  0  0  0  0  0  0  0  0
    9.9468   -4.5953   20.1709 C   0  0  0  0  0  0  0  0  0  0  0  0
   10.0366   -3.0590   23.9864 N   0  0  0  0  0  0  0  0  0  0  0  0
    7.1191   -7.3636   15.7739 C   0  0  0  0  0  0  0  0  0  0  0  0
    5.9612   -8.3203   17.2732 N   0  0  0  0  0  0  0  0  0  0  0  0
    8.5296   -5.9814   17.1841 C   0  0  0  0  0  0  0  0  0  0  0  0
    9.1527   -5.2118   16.2116 C   0  0  0  0  0  0  0  0  0  0  0  0
   10.3364   -3.8368   22.9255 O   0  0  0  0  0  0  0  0  0  0  0  0
    9.6947   -4.8407   18.8534 C   0  0  0  0  0  0  0  0  0  0  0  0
    9.1596    1.7042   24.1381 C   0  0  0  0  0  0  0  0  0  0  0  0
   11.0456   -2.9774   18.2694 N   0  0  0  0  0  0  0  0  0  0  0  0
   10.4788   -3.0457   21.8593 C   0  0  0  0  0  0  0  0  0  0  0  0
    8.8693   -5.8099   18.4657 N   0  0  0  0  0  0  0  0  0  0  0  0
    8.9892   -0.7926   25.4573 C   0  0  0  0  0  0  0  0  0  0  0  0
   10.5677   -3.4462   20.5323 C   0  0  0  0  0  0  0  0  0  0  0  0
  1  8  1  0
  1 12  4  0
  1 14  4  0
  2  3  4  0
  2 18  4  0
  3 20  4  0
  3 22  4  0
  4 11  4  0
  4 21  4  0
  5  9  4  0
  5 16  4  0
  6 15  4  0
  6 16  4  0
  7 22  4  0
  7 26  4  0
  8 10  4  0
  8 25  4  0
  9 15  4  0
  9 17  1  0
 10 21  4  0
 11 25  4  0
 12 23  4  0
 13 20  4  0
 13 26  4  0
 14 19  4  0
 17 18  4  0
 17 24  4  0
 19 23  4  0
 20 24  4  0
 23 26  1  0
M  END
$$$$

 Created by Python create_sdf_string function

 26 30  0  0  0  0  0  0  0  0999 V2000
   10.0084   -1.8019   23.4945 C   0  0  0  0  0  0  0  0  0  0  0  0
   10.0005   -4.2520   16.5631 C   0  0  0  0  0  0  0  0  0  0  0  0
   10.2759   -4.0036   17.8845 C   0  0  0  0  0  0  0  0  0  0  0  0
    8.5652    1.5478   25.3778 N   0  0  0  0  0  0  0  0  0  0  0  0
    6.8048   -7.5457   17.8752 C   0  0  0  0  0  0  0  0  0  0  0  0
    6.1721   -8.2186   15.9886 N   0  0  0  0  0  0  0  0  0  0  0  0
   11.1764   -2.6600   19.5604 C   0  0  0  0  0  0  0  0  0  0  0  0
    9.5491   -0.6380   24.1912 C   0  0  0  0  0  0  0  0  0  0  0  0
    7.5337   -6.9256   16.9519 C   0  0  0  0  0  0  0  0  0  0  0  0
    9.6782    0.5671   23.5143 C   0  0  0  0  0  0  0  0  0  0  0  0
    8.4532    0.3482   26.0821 C   0  0  0  0  0  0  0  0  0  0  0  0
   10.4239   -1.7677   22.2230 N   0  0  0  0  0  0  0  0  0  0  0  0
    9.9468   -4.5953   20.1709 C   0  0  0  0  0  0  0  0  0  0  0  0
   10.0366   -3.0590   23.9864 N   0  0  0  0  0  0  0  0  0  0  0  0
    7.1191   -7.3636   15.7739 C   0  0  0  0  0  0  0  0  0  0  0  0
    5.9612   -8.3203   17.2732 N   0  0  0  0  0  0  0  0  0  0  0  0
    8.5296   -5.9814   17.1841 C   0  0  0  0  0  0  0  0  0  0  0  0
    9.1527   -5.2118   16.2116 C   0  0  0  0  0  0  0  0  0  0  0  0
   10.3364   -3.8368   22.9255 O   0  0  0  0  0  0  0  0  0  0  0  0
    9.6947   -4.8407   18.8534 C   0  0  0  0  0  0  0  0  0  0  0  0
    9.1596    1.7042   24.1381 C   0  0  0  0  0  0  0  0  0  0  0  0
   11.0456   -2.9774   18.2694 N   0  0  0  0  0  0  0  0  0  0  0  0
   10.4788   -3.0457   21.8593 C   0  0  0  0  0  0  0  0  0  0  0  0
    8.8693   -5.8099   18.4657 N   0  0  0  0  0  0  0  0  0  0  0  0
    8.9892   -0.7926   25.4573 C   0  0  0  0  0  0  0  0  0  0  0  0
   10.5677   -3.4462   20.5323 C   0  0  0  0  0  0  0  0  0  0  0  0
  1  8  1  0
  1 12  4  0
  1 14  4  0
  2  3  4  0
  2 18  4  0
  3 20  4  0
  3 22  4  0
  4 11  4  0
  4 21  4  0
  5  9  4  0
  5 16  4  0
  6 15  4  0
  6 16  4  0
  7 22  4  0
  7 26  4  0
  8 10  4  0
  8 25  4  0
  9 15  4  0
  9 17  1  0
 10 21  4  0
 11 25  4  0
 12 23  4  0
 13 20  4  0
 13 26  4  0
 14 19  4  0
 17 18  4  0
 17 24  4  0
 19 23  4  0
 20 24  4  0
 23 26  1  0
M  END
$$$$

 Created by Python create_sdf_string function

 26 30  0  0  0  0  0  0  0  0999 V2000
   10.0084   -1.8019   23.4945 C   0  0  0  0  0  0  0  0  0  0  0  0
   10.0005   -4.2520   16.5631 C   0  0  0  0  0  0  0  0  0  0  0  0
   10.2759   -4.0036   17.8845 C   0  0  0  0  0  0  0  0  0  0  0  0
    8.5652    1.5478   25.3778 N   0  0  0  0  0  0  0  0  0  0  0  0
    6.8048   -7.5457   17.8752 C   0  0  0  0  0  0  0  0  0  0  0  0
    6.1721   -8.2186   15.9886 N   0  0  0  0  0  0  0  0  0  0  0  0
   11.1764   -2.6600   19.5604 C   0  0  0  0  0  0  0  0  0  0  0  0
    9.5491   -0.6380   24.1912 C   0  0  0  0  0  0  0  0  0  0  0  0
    7.5337   -6.9256   16.9519 C   0  0  0  0  0  0  0  0  0  0  0  0
    9.6782    0.5671   23.5143 C   0  0  0  0  0  0  0  0  0  0  0  0
    8.4532    0.3482   26.0821 C   0  0  0  0  0  0  0  0  0  0  0  0
   10.4239   -1.7677   22.2230 N   0  0  0  0  0  0  0  0  0  0  0  0
    9.9468   -4.5953   20.1709 C   0  0  0  0  0  0  0  0  0  0  0  0
   10.0366   -3.0590   23.9864 N   0  0  0  0  0  0  0  0  0  0  0  0
    7.1191   -7.3636   15.7739 C   0  0  0  0  0  0  0  0  0  0  0  0
    5.9612   -8.3203   17.2732 N   0  0  0  0  0  0  0  0  0  0  0  0
    8.5296   -5.9814   17.1841 C   0  0  0  0  0  0  0  0  0  0  0  0
    9.1527   -5.2118   16.2116 C   0  0  0  0  0  0  0  0  0  0  0  0
   10.3364   -3.8368   22.9255 O   0  0  0  0  0  0  0  0  0  0  0  0
    9.6947   -4.8407   18.8534 C   0  0  0  0  0  0  0  0  0  0  0  0
    9.1596    1.7042   24.1381 C   0  0  0  0  0  0  0  0  0  0  0  0
   11.0456   -2.9774   18.2694 N   0  0  0  0  0  0  0  0  0  0  0  0
   10.4788   -3.0457   21.8593 C   0  0  0  0  0  0  0  0  0  0  0  0
    8.8693   -5.8099   18.4657 N   0  0  0  0  0  0  0  0  0  0  0  0
    8.9892   -0.7926   25.4573 C   0  0  0  0  0  0  0  0  0  0  0  0
   10.5677   -3.4462   20.5323 C   0  0  0  0  0  0  0  0  0  0  0  0
  1  8  1  0
  1 12  4  0
  1 14  4  0
  2  3  4  0
  2 18  4  0
  3 20  4  0
  3 22  4  0
  4 11  4  0
  4 21  4  0
  5  9  4  0
  5 16  4  0
  6 15  4  0
  6 16  4  0
  7 22  4  0
  7 26  4  0
  8 10  4  0
  8 25  4  0
  9 15  4  0
  9 17  1  0
 10 21  4  0
 11 25  4  0
 12 23  4  0
 13 20  4  0
 13 26  4  0
 14 19  4  0
 17 18  4  0
 17 24  4  0
 19 23  4  0
 20 24  4  0
 23 26  1  0
M  END
$$$$

 Created by Python create_sdf_string function

 26 30  0  0  0  0  0  0  0  0999 V2000
   10.0084   -1.8019   23.4945 C   0  0  0  0  0  0  0  0  0  0  0  0
   10.0005   -4.2520   16.5631 C   0  0  0  0  0  0  0  0  0  0  0  0
   10.2759   -4.0036   17.8845 C   0  0  0  0  0  0  0  0  0  0  0  0
    8.5652    1.5478   25.3778 N   0  0  0  0  0  0  0  0  0  0  0  0
    6.8048   -7.5457   17.8752 C   0  0  0  0  0  0  0  0  0  0  0  0
    6.1721   -8.2186   15.9886 N   0  0  0  0  0  0  0  0  0  0  0  0
   11.1764   -2.6600   19.5604 C   0  0  0  0  0  0  0  0  0  0  0  0
    9.5491   -0.6380   24.1912 C   0  0  0  0  0  0  0  0  0  0  0  0
    7.5337   -6.9256   16.9519 C   0  0  0  0  0  0  0  0  0  0  0  0
    9.6782    0.5671   23.5143 C   0  0  0  0  0  0  0  0  0  0  0  0
    8.4532    0.3482   26.0821 C   0  0  0  0  0  0  0  0  0  0  0  0
   10.4239   -1.7677   22.2230 N   0  0  0  0  0  0  0  0  0  0  0  0
    9.9468   -4.5953   20.1709 C   0  0  0  0  0  0  0  0  0  0  0  0
   10.0366   -3.0590   23.9864 N   0  0  0  0  0  0  0  0  0  0  0  0
    7.1191   -7.3636   15.7739 C   0  0  0  0  0  0  0  0  0  0  0  0
    5.9612   -8.3203   17.2732 N   0  0  0  0  0  0  0  0  0  0  0  0
    8.5296   -5.9814   17.1841 C   0  0  0  0  0  0  0  0  0  0  0  0
    9.1527   -5.2118   16.2116 C   0  0  0  0  0  0  0  0  0  0  0  0
   10.3364   -3.8368   22.9255 O   0  0  0  0  0  0  0  0  0  0  0  0
    9.6947   -4.8407   18.8534 C   0  0  0  0  0  0  0  0  0  0  0  0
    9.1596    1.7042   24.1381 C   0  0  0  0  0  0  0  0  0  0  0  0
   11.0456   -2.9774   18.2694 N   0  0  0  0  0  0  0  0  0  0  0  0
   10.4788   -3.0457   21.8593 C   0  0  0  0  0  0  0  0  0  0  0  0
    8.8693   -5.8099   18.4657 N   0  0  0  0  0  0  0  0  0  0  0  0
    8.9892   -0.7926   25.4573 C   0  0  0  0  0  0  0  0  0  0  0  0
   10.5677   -3.4462   20.5323 C   0  0  0  0  0  0  0  0  0  0  0  0
  1  8  1  0
  1 12  4  0
  1 14  4  0
  2  3  4  0
  2 18  4  0
  3 20  4  0
  3 22  4  0
  4 11  4  0
  4 21  4  0
  5  9  4  0
  5 16  4  0
  6 15  4  0
  6 16  4  0
  7 22  4  0
  7 26  4  0
  8 10  4  0
  8 25  4  0
  9 15  4  0
  9 17  1  0
 10 21  4  0
 11 25  4  0
 12 23  4  0
 13 20  4  0
 13 26  4  0
 14 19  4  0
 17 18  4  0
 17 24  4  0
 19 23  4  0
 20 24  4  0
 23 26  1  0
M  END
$$$$

 Created by Python create_sdf_string function

 26 30  0  0  0  0  0  0  0  0999 V2000
   10.0084   -1.8019   23.4945 C   0  0  0  0  0  0  0  0  0  0  0  0
   10.0005   -4.2520   16.5631 C   0  0  0  0  0  0  0  0  0  0  0  0
   10.2759   -4.0036   17.8845 C   0  0  0  0  0  0  0  0  0  0  0  0
    8.5652    1.5478   25.3778 N   0  0  0  0  0  0  0  0  0  0  0  0
    6.8048   -7.5457   17.8752 C   0  0  0  0  0  0  0  0  0  0  0  0
    6.1721   -8.2186   15.9886 N   0  0  0  0  0  0  0  0  0  0  0  0
   11.1764   -2.6600   19.5604 C   0  0  0  0  0  0  0  0  0  0  0  0
    9.5491   -0.6380   24.1912 C   0  0  0  0  0  0  0  0  0  0  0  0
    7.5337   -6.9256   16.9519 C   0  0  0  0  0  0  0  0  0  0  0  0
    9.6782    0.5671   23.5143 C   0  0  0  0  0  0  0  0  0  0  0  0
    8.4532    0.3482   26.0821 C   0  0  0  0  0  0  0  0  0  0  0  0
   10.4239   -1.7677   22.2230 N   0  0  0  0  0  0  0  0  0  0  0  0
    9.9468   -4.5953   20.1709 C   0  0  0  0  0  0  0  0  0  0  0  0
   10.0366   -3.0590   23.9864 N   0  0  0  0  0  0  0  0  0  0  0  0
    7.1191   -7.3636   15.7739 C   0  0  0  0  0  0  0  0  0  0  0  0
    5.9612   -8.3203   17.2732 N   0  0  0  0  0  0  0  0  0  0  0  0
    8.5296   -5.9814   17.1841 C   0  0  0  0  0  0  0  0  0  0  0  0
    9.1527   -5.2118   16.2116 C   0  0  0  0  0  0  0  0  0  0  0  0
   10.3364   -3.8368   22.9255 O   0  0  0  0  0  0  0  0  0  0  0  0
    9.6947   -4.8407   18.8534 C   0  0  0  0  0  0  0  0  0  0  0  0
    9.1596    1.7042   24.1381 C   0  0  0  0  0  0  0  0  0  0  0  0
   11.0456   -2.9774   18.2694 N   0  0  0  0  0  0  0  0  0  0  0  0
   10.4788   -3.0457   21.8593 C   0  0  0  0  0  0  0  0  0  0  0  0
    8.8693   -5.8099   18.4657 N   0  0  0  0  0  0  0  0  0  0  0  0
    8.9892   -0.7926   25.4573 C   0  0  0  0  0  0  0  0  0  0  0  0
   10.5677   -3.4462   20.5323 C   0  0  0  0  0  0  0  0  0  0  0  0
  1  8  1  0
  1 12  4  0
  1 14  4  0
  2  3  4  0
  2 18  4  0
  3 20  4  0
  3 22  4  0
  4 11  4  0
  4 21  4  0
  5  9  4  0
  5 16  4  0
  6 15  4  0
  6 16  4  0
  7 22  4  0
  7 26  4  0
  8 10  4  0
  8 25  4  0
  9 15  4  0
  9 17  1  0
 10 21  4  0
 11 25  4  0
 12 23  4  0
 13 20  4  0
 13 26  4  0
 14 19  4  0
 17 18  4  0
 17 24  4  0
 19 23  4  0
 20 24  4  0
 23 26  1  0
M  END
$$$$

 Created by Python create_sdf_string function

 26 30  0  0  0  0  0  0  0  0999 V2000
   10.0084   -1.8019   23.4945 C   0  0  0  0  0  0  0  0  0  0  0  0
   10.0005   -4.2520   16.5631 C   0  0  0  0  0  0  0  0  0  0  0  0
   10.2759   -4.0036   17.8845 C   0  0  0  0  0  0  0  0  0  0  0  0
    8.5652    1.5478   25.3778 N   0  0  0  0  0  0  0  0  0  0  0  0
    6.8048   -7.5457   17.8752 C   0  0  0  0  0  0  0  0  0  0  0  0
    6.1721   -8.2186   15.9886 N   0  0  0  0  0  0  0  0  0  0  0  0
   11.1764   -2.6600   19.5604 C   0  0  0  0  0  0  0  0  0  0  0  0
    9.5491   -0.6380   24.1912 C   0  0  0  0  0  0  0  0  0  0  0  0
    7.5337   -6.9256   16.9519 C   0  0  0  0  0  0  0  0  0  0  0  0
    9.6782    0.5671   23.5143 C   0  0  0  0  0  0  0  0  0  0  0  0
    8.4532    0.3482   26.0821 C   0  0  0  0  0  0  0  0  0  0  0  0
   10.4239   -1.7677   22.2230 N   0  0  0  0  0  0  0  0  0  0  0  0
    9.9468   -4.5953   20.1709 C   0  0  0  0  0  0  0  0  0  0  0  0
   10.0366   -3.0590   23.9864 N   0  0  0  0  0  0  0  0  0  0  0  0
    7.1191   -7.3636   15.7739 C   0  0  0  0  0  0  0  0  0  0  0  0
    5.9612   -8.3203   17.2732 N   0  0  0  0  0  0  0  0  0  0  0  0
    8.5296   -5.9814   17.1841 C   0  0  0  0  0  0  0  0  0  0  0  0
    9.1527   -5.2118   16.2116 C   0  0  0  0  0  0  0  0  0  0  0  0
   10.3364   -3.8368   22.9255 O   0  0  0  0  0  0  0  0  0  0  0  0
    9.6947   -4.8407   18.8534 C   0  0  0  0  0  0  0  0  0  0  0  0
    9.1596    1.7042   24.1381 C   0  0  0  0  0  0  0  0  0  0  0  0
   11.0456   -2.9774   18.2694 N   0  0  0  0  0  0  0  0  0  0  0  0
   10.4788   -3.0457   21.8593 C   0  0  0  0  0  0  0  0  0  0  0  0
    8.8693   -5.8099   18.4657 N   0  0  0  0  0  0  0  0  0  0  0  0
    8.9892   -0.7926   25.4573 C   0  0  0  0  0  0  0  0  0  0  0  0
   10.5677   -3.4462   20.5323 C   0  0  0  0  0  0  0  0  0  0  0  0
  1  8  1  0
  1 12  4  0
  1 14  4  0
  2  3  4  0
  2 18  4  0
  3 20  4  0
  3 22  4  0
  4 11  4  0
  4 21  4  0
  5  9  4  0
  5 16  4  0
  6 15  4  0
  6 16  4  0
  7 22  4  0
  7 26  4  0
  8 10  4  0
  8 25  4  0
  9 15  4  0
  9 17  1  0
 10 21  4  0
 11 25  4  0
 12 23  4  0
 13 20  4  0
 13 26  4  0
 14 19  4  0
 17 18  4  0
 17 24  4  0
 19 23  4  0
 20 24  4  0
 23 26  1  0
M  END
$$$$

 Created by Python create_sdf_string function

 26 30  0  0  0  0  0  0  0  0999 V2000
   10.0084   -1.8019   23.4945 C   0  0  0  0  0  0  0  0  0  0  0  0
   10.0005   -4.2520   16.5631 C   0  0  0  0  0  0  0  0  0  0  0  0
   10.2759   -4.0036   17.8845 C   0  0  0  0  0  0  0  0  0  0  0  0
    8.5652    1.5478   25.3778 N   0  0  0  0  0  0  0  0  0  0  0  0
    6.8048   -7.5457   17.8752 C   0  0  0  0  0  0  0  0  0  0  0  0
    6.1721   -8.2186   15.9886 N   0  0  0  0  0  0  0  0  0  0  0  0
   11.1764   -2.6600   19.5604 C   0  0  0  0  0  0  0  0  0  0  0  0
    9.5491   -0.6380   24.1912 C   0  0  0  0  0  0  0  0  0  0  0  0
    7.5337   -6.9256   16.9519 C   0  0  0  0  0  0  0  0  0  0  0  0
    9.6782    0.5671   23.5143 C   0  0  0  0  0  0  0  0  0  0  0  0
    8.4532    0.3482   26.0821 C   0  0  0  0  0  0  0  0  0  0  0  0
   10.4239   -1.7677   22.2230 N   0  0  0  0  0  0  0  0  0  0  0  0
    9.9468   -4.5953   20.1709 C   0  0  0  0  0  0  0  0  0  0  0  0
   10.0366   -3.0590   23.9864 N   0  0  0  0  0  0  0  0  0  0  0  0
    7.1191   -7.3636   15.7739 C   0  0  0  0  0  0  0  0  0  0  0  0
    5.9612   -8.3203   17.2732 N   0  0  0  0  0  0  0  0  0  0  0  0
    8.5296   -5.9814   17.1841 C   0  0  0  0  0  0  0  0  0  0  0  0
    9.1527   -5.2118   16.2116 C   0  0  0  0  0  0  0  0  0  0  0  0
   10.3364   -3.8368   22.9255 O   0  0  0  0  0  0  0  0  0  0  0  0
    9.6947   -4.8407   18.8534 C   0  0  0  0  0  0  0  0  0  0  0  0
    9.1596    1.7042   24.1381 C   0  0  0  0  0  0  0  0  0  0  0  0
   11.0456   -2.9774   18.2694 N   0  0  0  0  0  0  0  0  0  0  0  0
   10.4788   -3.0457   21.8593 C   0  0  0  0  0  0  0  0  0  0  0  0
    8.8693   -5.8099   18.4657 N   0  0  0  0  0  0  0  0  0  0  0  0
    8.9892   -0.7926   25.4573 C   0  0  0  0  0  0  0  0  0  0  0  0
   10.5677   -3.4462   20.5323 C   0  0  0  0  0  0  0  0  0  0  0  0
  1  8  1  0
  1 12  4  0
  1 14  4  0
  2  3  4  0
  2 18  4  0
  3 20  4  0
  3 22  4  0
  4 11  4  0
  4 21  4  0
  5  9  4  0
  5 16  4  0
  6 15  4  0
  6 16  4  0
  7 22  4  0
  7 26  4  0
  8 10  4  0
  8 25  4  0
  9 15  4  0
  9 17  1  0
 10 21  4  0
 11 25  4  0
 12 23  4  0
 13 20  4  0
 13 26  4  0
 14 19  4  0
 17 18  4  0
 17 24  4  0
 19 23  4  0
 20 24  4  0
 23 26  1  0
M  END
$$$$

 Created by Python create_sdf_string function

 26 30  0  0  0  0  0  0  0  0999 V2000
   10.0084   -1.8019   23.4945 C   0  0  0  0  0  0  0  0  0  0  0  0
   10.0005   -4.2520   16.5631 C   0  0  0  0  0  0  0  0  0  0  0  0
   10.2759   -4.0036   17.8845 C   0  0  0  0  0  0  0  0  0  0  0  0
    8.5652    1.5478   25.3778 N   0  0  0  0  0  0  0  0  0  0  0  0
    6.8048   -7.5457   17.8752 C   0  0  0  0  0  0  0  0  0  0  0  0
    6.1721   -8.2186   15.9886 N   0  0  0  0  0  0  0  0  0  0  0  0
   11.1764   -2.6600   19.5604 C   0  0  0  0  0  0  0  0  0  0  0  0
    9.5491   -0.6380   24.1912 C   0  0  0  0  0  0  0  0  0  0  0  0
    7.5337   -6.9256   16.9519 C   0  0  0  0  0  0  0  0  0  0  0  0
    9.6782    0.5671   23.5143 C   0  0  0  0  0  0  0  0  0  0  0  0
    8.4532    0.3482   26.0821 C   0  0  0  0  0  0  0  0  0  0  0  0
   10.4239   -1.7677   22.2230 N   0  0  0  0  0  0  0  0  0  0  0  0
    9.9468   -4.5953   20.1709 C   0  0  0  0  0  0  0  0  0  0  0  0
   10.0366   -3.0590   23.9864 N   0  0  0  0  0  0  0  0  0  0  0  0
    7.1191   -7.3636   15.7739 C   0  0  0  0  0  0  0  0  0  0  0  0
    5.9612   -8.3203   17.2732 N   0  0  0  0  0  0  0  0  0  0  0  0
    8.5296   -5.9814   17.1841 C   0  0  0  0  0  0  0  0  0  0  0  0
    9.1527   -5.2118   16.2116 C   0  0  0  0  0  0  0  0  0  0  0  0
   10.3364   -3.8368   22.9255 O   0  0  0  0  0  0  0  0  0  0  0  0
    9.6947   -4.8407   18.8534 C   0  0  0  0  0  0  0  0  0  0  0  0
    9.1596    1.7042   24.1381 C   0  0  0  0  0  0  0  0  0  0  0  0
   11.0456   -2.9774   18.2694 N   0  0  0  0  0  0  0  0  0  0  0  0
   10.4788   -3.0457   21.8593 C   0  0  0  0  0  0  0  0  0  0  0  0
    8.8693   -5.8099   18.4657 N   0  0  0  0  0  0  0  0  0  0  0  0
    8.9892   -0.7926   25.4573 C   0  0  0  0  0  0  0  0  0  0  0  0
   10.5677   -3.4462   20.5323 C   0  0  0  0  0  0  0  0  0  0  0  0
  1  8  1  0
  1 12  4  0
  1 14  4  0
  2  3  4  0
  2 18  4  0
  3 20  4  0
  3 22  4  0
  4 11  4  0
  4 21  4  0
  5  9  4  0
  5 16  4  0
  6 15  4  0
  6 16  4  0
  7 22  4  0
  7 26  4  0
  8 10  4  0
  8 25  4  0
  9 15  4  0
  9 17  1  0
 10 21  4  0
 11 25  4  0
 12 23  4  0
 13 20  4  0
 13 26  4  0
 14 19  4  0
 17 18  4  0
 17 24  4  0
 19 23  4  0
 20 24  4  0
 23 26  1  0
M  END
$$$$

 Created by Python create_sdf_string function

 26 30  0  0  0  0  0  0  0  0999 V2000
   10.0084   -1.8019   23.4945 C   0  0  0  0  0  0  0  0  0  0  0  0
   10.0005   -4.2520   16.5631 C   0  0  0  0  0  0  0  0  0  0  0  0
   10.2759   -4.0036   17.8845 C   0  0  0  0  0  0  0  0  0  0  0  0
    8.5652    1.5478   25.3778 N   0  0  0  0  0  0  0  0  0  0  0  0
    6.8048   -7.5457   17.8752 C   0  0  0  0  0  0  0  0  0  0  0  0
    6.1721   -8.2186   15.9886 N   0  0  0  0  0  0  0  0  0  0  0  0
   11.1764   -2.6600   19.5604 C   0  0  0  0  0  0  0  0  0  0  0  0
    9.5491   -0.6380   24.1912 C   0  0  0  0  0  0  0  0  0  0  0  0
    7.5337   -6.9256   16.9519 C   0  0  0  0  0  0  0  0  0  0  0  0
    9.6782    0.5671   23.5143 C   0  0  0  0  0  0  0  0  0  0  0  0
    8.4532    0.3482   26.0821 C   0  0  0  0  0  0  0  0  0  0  0  0
   10.4239   -1.7677   22.2230 N   0  0  0  0  0  0  0  0  0  0  0  0
    9.9468   -4.5953   20.1709 C   0  0  0  0  0  0  0  0  0  0  0  0
   10.0366   -3.0590   23.9864 N   0  0  0  0  0  0  0  0  0  0  0  0
    7.1191   -7.3636   15.7739 C   0  0  0  0  0  0  0  0  0  0  0  0
    5.9612   -8.3203   17.2732 N   0  0  0  0  0  0  0  0  0  0  0  0
    8.5296   -5.9814   17.1841 C   0  0  0  0  0  0  0  0  0  0  0  0
    9.1527   -5.2118   16.2116 C   0  0  0  0  0  0  0  0  0  0  0  0
   10.3364   -3.8368   22.9255 O   0  0  0  0  0  0  0  0  0  0  0  0
    9.6947   -4.8407   18.8534 C   0  0  0  0  0  0  0  0  0  0  0  0
    9.1596    1.7042   24.1381 C   0  0  0  0  0  0  0  0  0  0  0  0
   11.0456   -2.9774   18.2694 N   0  0  0  0  0  0  0  0  0  0  0  0
   10.4788   -3.0457   21.8593 C   0  0  0  0  0  0  0  0  0  0  0  0
    8.8693   -5.8099   18.4657 N   0  0  0  0  0  0  0  0  0  0  0  0
    8.9892   -0.7926   25.4573 C   0  0  0  0  0  0  0  0  0  0  0  0
   10.5677   -3.4462   20.5323 C   0  0  0  0  0  0  0  0  0  0  0  0
  1  8  1  0
  1 12  4  0
  1 14  4  0
  2  3  4  0
  2 18  4  0
  3 20  4  0
  3 22  4  0
  4 11  4  0
  4 21  4  0
  5  9  4  0
  5 16  4  0
  6 15  4  0
  6 16  4  0
  7 22  4  0
  7 26  4  0
  8 10  4  0
  8 25  4  0
  9 15  4  0
  9 17  1  0
 10 21  4  0
 11 25  4  0
 12 23  4  0
 13 20  4  0
 13 26  4  0
 14 19  4  0
 17 18  4  0
 17 24  4  0
 19 23  4  0
 20 24  4  0
 23 26  1  0
M  END
$$$$

 Created by Python create_sdf_string function

 26 30  0  0  0  0  0  0  0  0999 V2000
   10.0084   -1.8019   23.4945 C   0  0  0  0  0  0  0  0  0  0  0  0
   10.0005   -4.2520   16.5631 C   0  0  0  0  0  0  0  0  0  0  0  0
   10.2759   -4.0036   17.8845 C   0  0  0  0  0  0  0  0  0  0  0  0
    8.5652    1.5478   25.3778 N   0  0  0  0  0  0  0  0  0  0  0  0
    6.8048   -7.5457   17.8752 C   0  0  0  0  0  0  0  0  0  0  0  0
    6.1721   -8.2186   15.9886 N   0  0  0  0  0  0  0  0  0  0  0  0
   11.1764   -2.6600   19.5604 C   0  0  0  0  0  0  0  0  0  0  0  0
    9.5491   -0.6380   24.1912 C   0  0  0  0  0  0  0  0  0  0  0  0
    7.5337   -6.9256   16.9519 C   0  0  0  0  0  0  0  0  0  0  0  0
    9.6782    0.5671   23.5143 C   0  0  0  0  0  0  0  0  0  0  0  0
    8.4532    0.3482   26.0821 C   0  0  0  0  0  0  0  0  0  0  0  0
   10.4239   -1.7677   22.2230 N   0  0  0  0  0  0  0  0  0  0  0  0
    9.9468   -4.5953   20.1709 C   0  0  0  0  0  0  0  0  0  0  0  0
   10.0366   -3.0590   23.9864 N   0  0  0  0  0  0  0  0  0  0  0  0
    7.1191   -7.3636   15.7739 C   0  0  0  0  0  0  0  0  0  0  0  0
    5.9612   -8.3203   17.2732 N   0  0  0  0  0  0  0  0  0  0  0  0
    8.5296   -5.9814   17.1841 C   0  0  0  0  0  0  0  0  0  0  0  0
    9.1527   -5.2118   16.2116 C   0  0  0  0  0  0  0  0  0  0  0  0
   10.3364   -3.8368   22.9255 O   0  0  0  0  0  0  0  0  0  0  0  0
    9.6947   -4.8407   18.8534 C   0  0  0  0  0  0  0  0  0  0  0  0
    9.1596    1.7042   24.1381 C   0  0  0  0  0  0  0  0  0  0  0  0
   11.0456   -2.9774   18.2694 N   0  0  0  0  0  0  0  0  0  0  0  0
   10.4788   -3.0457   21.8593 C   0  0  0  0  0  0  0  0  0  0  0  0
    8.8693   -5.8099   18.4657 N   0  0  0  0  0  0  0  0  0  0  0  0
    8.9892   -0.7926   25.4573 C   0  0  0  0  0  0  0  0  0  0  0  0
   10.5677   -3.4462   20.5323 C   0  0  0  0  0  0  0  0  0  0  0  0
  1  8  1  0
  1 12  4  0
  1 14  4  0
  2  3  4  0
  2 18  4  0
  3 20  4  0
  3 22  4  0
  4 11  4  0
  4 21  4  0
  5  9  4  0
  5 16  4  0
  6 15  4  0
  6 16  4  0
  7 22  4  0
  7 26  4  0
  8 10  4  0
  8 25  4  0
  9 15  4  0
  9 17  1  0
 10 21  4  0
 11 25  4  0
 12 23  4  0
 13 20  4  0
 13 26  4  0
 14 19  4  0
 17 18  4  0
 17 24  4  0
 19 23  4  0
 20 24  4  0
 23 26  1  0
M  END
$$$$

 Created by Python create_sdf_string function

 26 30  0  0  0  0  0  0  0  0999 V2000
   10.0084   -1.8019   23.4945 C   0  0  0  0  0  0  0  0  0  0  0  0
   10.0005   -4.2520   16.5631 C   0  0  0  0  0  0  0  0  0  0  0  0
   10.2759   -4.0036   17.8845 C   0  0  0  0  0  0  0  0  0  0  0  0
    8.5652    1.5478   25.3778 N   0  0  0  0  0  0  0  0  0  0  0  0
    6.8048   -7.5457   17.8752 C   0  0  0  0  0  0  0  0  0  0  0  0
    6.1721   -8.2186   15.9886 N   0  0  0  0  0  0  0  0  0  0  0  0
   11.1764   -2.6600   19.5604 C   0  0  0  0  0  0  0  0  0  0  0  0
    9.5491   -0.6380   24.1912 C   0  0  0  0  0  0  0  0  0  0  0  0
    7.5337   -6.9256   16.9519 C   0  0  0  0  0  0  0  0  0  0  0  0
    9.6782    0.5671   23.5143 C   0  0  0  0  0  0  0  0  0  0  0  0
    8.4532    0.3482   26.0821 C   0  0  0  0  0  0  0  0  0  0  0  0
   10.4239   -1.7677   22.2230 N   0  0  0  0  0  0  0  0  0  0  0  0
    9.9468   -4.5953   20.1709 C   0  0  0  0  0  0  0  0  0  0  0  0
   10.0366   -3.0590   23.9864 N   0  0  0  0  0  0  0  0  0  0  0  0
    7.1191   -7.3636   15.7739 C   0  0  0  0  0  0  0  0  0  0  0  0
    5.9612   -8.3203   17.2732 N   0  0  0  0  0  0  0  0  0  0  0  0
    8.5296   -5.9814   17.1841 C   0  0  0  0  0  0  0  0  0  0  0  0
    9.1527   -5.2118   16.2116 C   0  0  0  0  0  0  0  0  0  0  0  0
   10.3364   -3.8368   22.9255 O   0  0  0  0  0  0  0  0  0  0  0  0
    9.6947   -4.8407   18.8534 C   0  0  0  0  0  0  0  0  0  0  0  0
    9.1596    1.7042   24.1381 C   0  0  0  0  0  0  0  0  0  0  0  0
   11.0456   -2.9774   18.2694 N   0  0  0  0  0  0  0  0  0  0  0  0
   10.4788   -3.0457   21.8593 C   0  0  0  0  0  0  0  0  0  0  0  0
    8.8693   -5.8099   18.4657 N   0  0  0  0  0  0  0  0  0  0  0  0
    8.9892   -0.7926   25.4573 C   0  0  0  0  0  0  0  0  0  0  0  0
   10.5677   -3.4462   20.5323 C   0  0  0  0  0  0  0  0  0  0  0  0
  1  8  1  0
  1 12  4  0
  1 14  4  0
  2  3  4  0
  2 18  4  0
  3 20  4  0
  3 22  4  0
  4 11  4  0
  4 21  4  0
  5  9  4  0
  5 16  4  0
  6 15  4  0
  6 16  4  0
  7 22  4  0
  7 26  4  0
  8 10  4  0
  8 25  4  0
  9 15  4  0
  9 17  1  0
 10 21  4  0
 11 25  4  0
 12 23  4  0
 13 20  4  0
 13 26  4  0
 14 19  4  0
 17 18  4  0
 17 24  4  0
 19 23  4  0
 20 24  4  0
 23 26  1  0
M  END
$$$$

 Created by Python create_sdf_string function

 26 30  0  0  0  0  0  0  0  0999 V2000
   10.0084   -1.8019   23.4945 C   0  0  0  0  0  0  0  0  0  0  0  0
   10.0005   -4.2520   16.5631 C   0  0  0  0  0  0  0  0  0  0  0  0
   10.2759   -4.0036   17.8845 C   0  0  0  0  0  0  0  0  0  0  0  0
    8.5652    1.5478   25.3778 N   0  0  0  0  0  0  0  0  0  0  0  0
    6.8048   -7.5457   17.8752 C   0  0  0  0  0  0  0  0  0  0  0  0
    6.1721   -8.2186   15.9886 N   0  0  0  0  0  0  0  0  0  0  0  0
   11.1764   -2.6600   19.5604 C   0  0  0  0  0  0  0  0  0  0  0  0
    9.5491   -0.6380   24.1912 C   0  0  0  0  0  0  0  0  0  0  0  0
    7.5337   -6.9256   16.9519 C   0  0  0  0  0  0  0  0  0  0  0  0
    9.6782    0.5671   23.5143 C   0  0  0  0  0  0  0  0  0  0  0  0
    8.4532    0.3482   26.0821 C   0  0  0  0  0  0  0  0  0  0  0  0
   10.4239   -1.7677   22.2230 N   0  0  0  0  0  0  0  0  0  0  0  0
    9.9468   -4.5953   20.1709 C   0  0  0  0  0  0  0  0  0  0  0  0
   10.0366   -3.0590   23.9864 N   0  0  0  0  0  0  0  0  0  0  0  0
    7.1191   -7.3636   15.7739 C   0  0  0  0  0  0  0  0  0  0  0  0
    5.9612   -8.3203   17.2732 N   0  0  0  0  0  0  0  0  0  0  0  0
    8.5296   -5.9814   17.1841 C   0  0  0  0  0  0  0  0  0  0  0  0
    9.1527   -5.2118   16.2116 C   0  0  0  0  0  0  0  0  0  0  0  0
   10.3364   -3.8368   22.9255 O   0  0  0  0  0  0  0  0  0  0  0  0
    9.6947   -4.8407   18.8534 C   0  0  0  0  0  0  0  0  0  0  0  0
    9.1596    1.7042   24.1381 C   0  0  0  0  0  0  0  0  0  0  0  0
   11.0456   -2.9774   18.2694 N   0  0  0  0  0  0  0  0  0  0  0  0
   10.4788   -3.0457   21.8593 C   0  0  0  0  0  0  0  0  0  0  0  0
    8.8693   -5.8099   18.4657 N   0  0  0  0  0  0  0  0  0  0  0  0
    8.9892   -0.7926   25.4573 C   0  0  0  0  0  0  0  0  0  0  0  0
   10.5677   -3.4462   20.5323 C   0  0  0  0  0  0  0  0  0  0  0  0
  1  8  1  0
  1 12  4  0
  1 14  4  0
  2  3  4  0
  2 18  4  0
  3 20  4  0
  3 22  4  0
  4 11  4  0
  4 21  4  0
  5  9  4  0
  5 16  4  0
  6 15  4  0
  6 16  4  0
  7 22  4  0
  7 26  4  0
  8 10  4  0
  8 25  4  0
  9 15  4  0
  9 17  1  0
 10 21  4  0
 11 25  4  0
 12 23  4  0
 13 20  4  0
 13 26  4  0
 14 19  4  0
 17 18  4  0
 17 24  4  0
 19 23  4  0
 20 24  4  0
 23 26  1  0
M  END
$$$$

 Created by Python create_sdf_string function

 26 30  0  0  0  0  0  0  0  0999 V2000
   10.0084   -1.8019   23.4945 C   0  0  0  0  0  0  0  0  0  0  0  0
   10.0005   -4.2520   16.5631 C   0  0  0  0  0  0  0  0  0  0  0  0
   10.2759   -4.0036   17.8845 C   0  0  0  0  0  0  0  0  0  0  0  0
    8.5652    1.5478   25.3778 N   0  0  0  0  0  0  0  0  0  0  0  0
    6.8048   -7.5457   17.8752 C   0  0  0  0  0  0  0  0  0  0  0  0
    6.1721   -8.2186   15.9886 N   0  0  0  0  0  0  0  0  0  0  0  0
   11.1764   -2.6600   19.5604 C   0  0  0  0  0  0  0  0  0  0  0  0
    9.5491   -0.6380   24.1912 C   0  0  0  0  0  0  0  0  0  0  0  0
    7.5337   -6.9256   16.9519 C   0  0  0  0  0  0  0  0  0  0  0  0
    9.6782    0.5671   23.5143 C   0  0  0  0  0  0  0  0  0  0  0  0
    8.4532    0.3482   26.0821 C   0  0  0  0  0  0  0  0  0  0  0  0
   10.4239   -1.7677   22.2230 N   0  0  0  0  0  0  0  0  0  0  0  0
    9.9468   -4.5953   20.1709 C   0  0  0  0  0  0  0  0  0  0  0  0
   10.0366   -3.0590   23.9864 N   0  0  0  0  0  0  0  0  0  0  0  0
    7.1191   -7.3636   15.7739 C   0  0  0  0  0  0  0  0  0  0  0  0
    5.9612   -8.3203   17.2732 N   0  0  0  0  0  0  0  0  0  0  0  0
    8.5296   -5.9814   17.1841 C   0  0  0  0  0  0  0  0  0  0  0  0
    9.1527   -5.2118   16.2116 C   0  0  0  0  0  0  0  0  0  0  0  0
   10.3364   -3.8368   22.9255 O   0  0  0  0  0  0  0  0  0  0  0  0
    9.6947   -4.8407   18.8534 C   0  0  0  0  0  0  0  0  0  0  0  0
    9.1596    1.7042   24.1381 C   0  0  0  0  0  0  0  0  0  0  0  0
   11.0456   -2.9774   18.2694 N   0  0  0  0  0  0  0  0  0  0  0  0
   10.4788   -3.0457   21.8593 C   0  0  0  0  0  0  0  0  0  0  0  0
    8.8693   -5.8099   18.4657 N   0  0  0  0  0  0  0  0  0  0  0  0
    8.9892   -0.7926   25.4573 C   0  0  0  0  0  0  0  0  0  0  0  0
   10.5677   -3.4462   20.5323 C   0  0  0  0  0  0  0  0  0  0  0  0
  1  8  1  0
  1 12  4  0
  1 14  4  0
  2  3  4  0
  2 18  4  0
  3 20  4  0
  3 22  4  0
  4 11  4  0
  4 21  4  0
  5  9  4  0
  5 16  4  0
  6 15  4  0
  6 16  4  0
  7 22  4  0
  7 26  4  0
  8 10  4  0
  8 25  4  0
  9 15  4  0
  9 17  1  0
 10 21  4  0
 11 25  4  0
 12 23  4  0
 13 20  4  0
 13 26  4  0
 14 19  4  0
 17 18  4  0
 17 24  4  0
 19 23  4  0
 20 24  4  0
 23 26  1  0
M  END
$$$$

 Created by Python create_sdf_string function

 26 30  0  0  0  0  0  0  0  0999 V2000
   10.0084   -1.8019   23.4945 C   0  0  0  0  0  0  0  0  0  0  0  0
   10.0005   -4.2520   16.5631 C   0  0  0  0  0  0  0  0  0  0  0  0
   10.2759   -4.0036   17.8845 C   0  0  0  0  0  0  0  0  0  0  0  0
    8.5652    1.5478   25.3778 N   0  0  0  0  0  0  0  0  0  0  0  0
    6.8048   -7.5457   17.8752 C   0  0  0  0  0  0  0  0  0  0  0  0
    6.1721   -8.2186   15.9886 N   0  0  0  0  0  0  0  0  0  0  0  0
   11.1764   -2.6600   19.5604 C   0  0  0  0  0  0  0  0  0  0  0  0
    9.5491   -0.6380   24.1912 C   0  0  0  0  0  0  0  0  0  0  0  0
    7.5337   -6.9256   16.9519 C   0  0  0  0  0  0  0  0  0  0  0  0
    9.6782    0.5671   23.5143 C   0  0  0  0  0  0  0  0  0  0  0  0
    8.4532    0.3482   26.0821 C   0  0  0  0  0  0  0  0  0  0  0  0
   10.4239   -1.7677   22.2230 N   0  0  0  0  0  0  0  0  0  0  0  0
    9.9468   -4.5953   20.1709 C   0  0  0  0  0  0  0  0  0  0  0  0
   10.0366   -3.0590   23.9864 N   0  0  0  0  0  0  0  0  0  0  0  0
    7.1191   -7.3636   15.7739 C   0  0  0  0  0  0  0  0  0  0  0  0
    5.9612   -8.3203   17.2732 N   0  0  0  0  0  0  0  0  0  0  0  0
    8.5296   -5.9814   17.1841 C   0  0  0  0  0  0  0  0  0  0  0  0
    9.1527   -5.2118   16.2116 C   0  0  0  0  0  0  0  0  0  0  0  0
   10.3364   -3.8368   22.9255 O   0  0  0  0  0  0  0  0  0  0  0  0
    9.6947   -4.8407   18.8534 C   0  0  0  0  0  0  0  0  0  0  0  0
    9.1596    1.7042   24.1381 C   0  0  0  0  0  0  0  0  0  0  0  0
   11.0456   -2.9774   18.2694 N   0  0  0  0  0  0  0  0  0  0  0  0
   10.4788   -3.0457   21.8593 C   0  0  0  0  0  0  0  0  0  0  0  0
    8.8693   -5.8099   18.4657 N   0  0  0  0  0  0  0  0  0  0  0  0
    8.9892   -0.7926   25.4573 C   0  0  0  0  0  0  0  0  0  0  0  0
   10.5677   -3.4462   20.5323 C   0  0  0  0  0  0  0  0  0  0  0  0
  1  8  1  0
  1 12  4  0
  1 14  4  0
  2  3  4  0
  2 18  4  0
  3 20  4  0
  3 22  4  0
  4 11  4  0
  4 21  4  0
  5  9  4  0
  5 16  4  0
  6 15  4  0
  6 16  4  0
  7 22  4  0
  7 26  4  0
  8 10  4  0
  8 25  4  0
  9 15  4  0
  9 17  1  0
 10 21  4  0
 11 25  4  0
 12 23  4  0
 13 20  4  0
 13 26  4  0
 14 19  4  0
 17 18  4  0
 17 24  4  0
 19 23  4  0
 20 24  4  0
 23 26  1  0
M  END
$$$$

 Created by Python create_sdf_string function

 26 30  0  0  0  0  0  0  0  0999 V2000
   10.0084   -1.8019   23.4945 C   0  0  0  0  0  0  0  0  0  0  0  0
   10.0005   -4.2520   16.5631 C   0  0  0  0  0  0  0  0  0  0  0  0
   10.2759   -4.0036   17.8845 C   0  0  0  0  0  0  0  0  0  0  0  0
    8.5652    1.5478   25.3778 N   0  0  0  0  0  0  0  0  0  0  0  0
    6.8048   -7.5457   17.8752 C   0  0  0  0  0  0  0  0  0  0  0  0
    6.1721   -8.2186   15.9886 N   0  0  0  0  0  0  0  0  0  0  0  0
   11.1764   -2.6600   19.5604 C   0  0  0  0  0  0  0  0  0  0  0  0
    9.5491   -0.6380   24.1912 C   0  0  0  0  0  0  0  0  0  0  0  0
    7.5337   -6.9256   16.9519 C   0  0  0  0  0  0  0  0  0  0  0  0
    9.6782    0.5671   23.5143 C   0  0  0  0  0  0  0  0  0  0  0  0
    8.4532    0.3482   26.0821 C   0  0  0  0  0  0  0  0  0  0  0  0
   10.4239   -1.7677   22.2230 N   0  0  0  0  0  0  0  0  0  0  0  0
    9.9468   -4.5953   20.1709 C   0  0  0  0  0  0  0  0  0  0  0  0
   10.0366   -3.0590   23.9864 N   0  0  0  0  0  0  0  0  0  0  0  0
    7.1191   -7.3636   15.7739 C   0  0  0  0  0  0  0  0  0  0  0  0
    5.9612   -8.3203   17.2732 N   0  0  0  0  0  0  0  0  0  0  0  0
    8.5296   -5.9814   17.1841 C   0  0  0  0  0  0  0  0  0  0  0  0
    9.1527   -5.2118   16.2116 C   0  0  0  0  0  0  0  0  0  0  0  0
   10.3364   -3.8368   22.9255 O   0  0  0  0  0  0  0  0  0  0  0  0
    9.6947   -4.8407   18.8534 C   0  0  0  0  0  0  0  0  0  0  0  0
    9.1596    1.7042   24.1381 C   0  0  0  0  0  0  0  0  0  0  0  0
   11.0456   -2.9774   18.2694 N   0  0  0  0  0  0  0  0  0  0  0  0
   10.4788   -3.0457   21.8593 C   0  0  0  0  0  0  0  0  0  0  0  0
    8.8693   -5.8099   18.4657 N   0  0  0  0  0  0  0  0  0  0  0  0
    8.9892   -0.7926   25.4573 C   0  0  0  0  0  0  0  0  0  0  0  0
   10.5677   -3.4462   20.5323 C   0  0  0  0  0  0  0  0  0  0  0  0
  1  8  1  0
  1 12  4  0
  1 14  4  0
  2  3  4  0
  2 18  4  0
  3 20  4  0
  3 22  4  0
  4 11  4  0
  4 21  4  0
  5  9  4  0
  5 16  4  0
  6 15  4  0
  6 16  4  0
  7 22  4  0
  7 26  4  0
  8 10  4  0
  8 25  4  0
  9 15  4  0
  9 17  1  0
 10 21  4  0
 11 25  4  0
 12 23  4  0
 13 20  4  0
 13 26  4  0
 14 19  4  0
 17 18  4  0
 17 24  4  0
 19 23  4  0
 20 24  4  0
 23 26  1  0
M  END
$$$$

 Created by Python create_sdf_string function

 26 30  0  0  0  0  0  0  0  0999 V2000
   10.0084   -1.8019   23.4945 C   0  0  0  0  0  0  0  0  0  0  0  0
   10.0005   -4.2520   16.5631 C   0  0  0  0  0  0  0  0  0  0  0  0
   10.2759   -4.0036   17.8845 C   0  0  0  0  0  0  0  0  0  0  0  0
    8.5652    1.5478   25.3778 N   0  0  0  0  0  0  0  0  0  0  0  0
    6.8048   -7.5457   17.8752 C   0  0  0  0  0  0  0  0  0  0  0  0
    6.1721   -8.2186   15.9886 N   0  0  0  0  0  0  0  0  0  0  0  0
   11.1764   -2.6600   19.5604 C   0  0  0  0  0  0  0  0  0  0  0  0
    9.5491   -0.6380   24.1912 C   0  0  0  0  0  0  0  0  0  0  0  0
    7.5337   -6.9256   16.9519 C   0  0  0  0  0  0  0  0  0  0  0  0
    9.6782    0.5671   23.5143 C   0  0  0  0  0  0  0  0  0  0  0  0
    8.4532    0.3482   26.0821 C   0  0  0  0  0  0  0  0  0  0  0  0
   10.4239   -1.7677   22.2230 N   0  0  0  0  0  0  0  0  0  0  0  0
    9.9468   -4.5953   20.1709 C   0  0  0  0  0  0  0  0  0  0  0  0
   10.0366   -3.0590   23.9864 N   0  0  0  0  0  0  0  0  0  0  0  0
    7.1191   -7.3636   15.7739 C   0  0  0  0  0  0  0  0  0  0  0  0
    5.9612   -8.3203   17.2732 N   0  0  0  0  0  0  0  0  0  0  0  0
    8.5296   -5.9814   17.1841 C   0  0  0  0  0  0  0  0  0  0  0  0
    9.1527   -5.2118   16.2116 C   0  0  0  0  0  0  0  0  0  0  0  0
   10.3364   -3.8368   22.9255 O   0  0  0  0  0  0  0  0  0  0  0  0
    9.6947   -4.8407   18.8534 C   0  0  0  0  0  0  0  0  0  0  0  0
    9.1596    1.7042   24.1381 C   0  0  0  0  0  0  0  0  0  0  0  0
   11.0456   -2.9774   18.2694 N   0  0  0  0  0  0  0  0  0  0  0  0
   10.4788   -3.0457   21.8593 C   0  0  0  0  0  0  0  0  0  0  0  0
    8.8693   -5.8099   18.4657 N   0  0  0  0  0  0  0  0  0  0  0  0
    8.9892   -0.7926   25.4573 C   0  0  0  0  0  0  0  0  0  0  0  0
   10.5677   -3.4462   20.5323 C   0  0  0  0  0  0  0  0  0  0  0  0
  1  8  1  0
  1 12  4  0
  1 14  4  0
  2  3  4  0
  2 18  4  0
  3 20  4  0
  3 22  4  0
  4 11  4  0
  4 21  4  0
  5  9  4  0
  5 16  4  0
  6 15  4  0
  6 16  4  0
  7 22  4  0
  7 26  4  0
  8 10  4  0
  8 25  4  0
  9 15  4  0
  9 17  1  0
 10 21  4  0
 11 25  4  0
 12 23  4  0
 13 20  4  0
 13 26  4  0
 14 19  4  0
 17 18  4  0
 17 24  4  0
 19 23  4  0
 20 24  4  0
 23 26  1  0
M  END
$$$$

 Created by Python create_sdf_string function

 26 30  0  0  0  0  0  0  0  0999 V2000
   10.0084   -1.8019   23.4945 C   0  0  0  0  0  0  0  0  0  0  0  0
   10.0005   -4.2520   16.5631 C   0  0  0  0  0  0  0  0  0  0  0  0
   10.2759   -4.0036   17.8845 C   0  0  0  0  0  0  0  0  0  0  0  0
    8.5652    1.5478   25.3778 N   0  0  0  0  0  0  0  0  0  0  0  0
    6.8048   -7.5457   17.8752 C   0  0  0  0  0  0  0  0  0  0  0  0
    6.1721   -8.2186   15.9886 N   0  0  0  0  0  0  0  0  0  0  0  0
   11.1764   -2.6600   19.5604 C   0  0  0  0  0  0  0  0  0  0  0  0
    9.5491   -0.6380   24.1912 C   0  0  0  0  0  0  0  0  0  0  0  0
    7.5337   -6.9256   16.9519 C   0  0  0  0  0  0  0  0  0  0  0  0
    9.6782    0.5671   23.5143 C   0  0  0  0  0  0  0  0  0  0  0  0
    8.4532    0.3482   26.0821 C   0  0  0  0  0  0  0  0  0  0  0  0
   10.4239   -1.7677   22.2230 N   0  0  0  0  0  0  0  0  0  0  0  0
    9.9468   -4.5953   20.1709 C   0  0  0  0  0  0  0  0  0  0  0  0
   10.0366   -3.0590   23.9864 N   0  0  0  0  0  0  0  0  0  0  0  0
    7.1191   -7.3636   15.7739 C   0  0  0  0  0  0  0  0  0  0  0  0
    5.9612   -8.3203   17.2732 N   0  0  0  0  0  0  0  0  0  0  0  0
    8.5296   -5.9814   17.1841 C   0  0  0  0  0  0  0  0  0  0  0  0
    9.1527   -5.2118   16.2116 C   0  0  0  0  0  0  0  0  0  0  0  0
   10.3364   -3.8368   22.9255 O   0  0  0  0  0  0  0  0  0  0  0  0
    9.6947   -4.8407   18.8534 C   0  0  0  0  0  0  0  0  0  0  0  0
    9.1596    1.7042   24.1381 C   0  0  0  0  0  0  0  0  0  0  0  0
   11.0456   -2.9774   18.2694 N   0  0  0  0  0  0  0  0  0  0  0  0
   10.4788   -3.0457   21.8593 C   0  0  0  0  0  0  0  0  0  0  0  0
    8.8693   -5.8099   18.4657 N   0  0  0  0  0  0  0  0  0  0  0  0
    8.9892   -0.7926   25.4573 C   0  0  0  0  0  0  0  0  0  0  0  0
   10.5677   -3.4462   20.5323 C   0  0  0  0  0  0  0  0  0  0  0  0
  1  8  1  0
  1 12  4  0
  1 14  4  0
  2  3  4  0
  2 18  4  0
  3 20  4  0
  3 22  4  0
  4 11  4  0
  4 21  4  0
  5  9  4  0
  5 16  4  0
  6 15  4  0
  6 16  4  0
  7 22  4  0
  7 26  4  0
  8 10  4  0
  8 25  4  0
  9 15  4  0
  9 17  1  0
 10 21  4  0
 11 25  4  0
 12 23  4  0
 13 20  4  0
 13 26  4  0
 14 19  4  0
 17 18  4  0
 17 24  4  0
 19 23  4  0
 20 24  4  0
 23 26  1  0
M  END
$$$$

 Created by Python create_sdf_string function

 26 30  0  0  0  0  0  0  0  0999 V2000
   10.0084   -1.8019   23.4945 C   0  0  0  0  0  0  0  0  0  0  0  0
   10.0005   -4.2520   16.5631 C   0  0  0  0  0  0  0  0  0  0  0  0
   10.2759   -4.0036   17.8845 C   0  0  0  0  0  0  0  0  0  0  0  0
    8.5652    1.5478   25.3778 N   0  0  0  0  0  0  0  0  0  0  0  0
    6.8048   -7.5457   17.8752 C   0  0  0  0  0  0  0  0  0  0  0  0
    6.1721   -8.2186   15.9886 N   0  0  0  0  0  0  0  0  0  0  0  0
   11.1764   -2.6600   19.5604 C   0  0  0  0  0  0  0  0  0  0  0  0
    9.5491   -0.6380   24.1912 C   0  0  0  0  0  0  0  0  0  0  0  0
    7.5337   -6.9256   16.9519 C   0  0  0  0  0  0  0  0  0  0  0  0
    9.6782    0.5671   23.5143 C   0  0  0  0  0  0  0  0  0  0  0  0
    8.4532    0.3482   26.0821 C   0  0  0  0  0  0  0  0  0  0  0  0
   10.4239   -1.7677   22.2230 N   0  0  0  0  0  0  0  0  0  0  0  0
    9.9468   -4.5953   20.1709 C   0  0  0  0  0  0  0  0  0  0  0  0
   10.0366   -3.0590   23.9864 N   0  0  0  0  0  0  0  0  0  0  0  0
    7.1191   -7.3636   15.7739 C   0  0  0  0  0  0  0  0  0  0  0  0
    5.9612   -8.3203   17.2732 N   0  0  0  0  0  0  0  0  0  0  0  0
    8.5296   -5.9814   17.1841 C   0  0  0  0  0  0  0  0  0  0  0  0
    9.1527   -5.2118   16.2116 C   0  0  0  0  0  0  0  0  0  0  0  0
   10.3364   -3.8368   22.9255 O   0  0  0  0  0  0  0  0  0  0  0  0
    9.6947   -4.8407   18.8534 C   0  0  0  0  0  0  0  0  0  0  0  0
    9.1596    1.7042   24.1381 C   0  0  0  0  0  0  0  0  0  0  0  0
   11.0456   -2.9774   18.2694 N   0  0  0  0  0  0  0  0  0  0  0  0
   10.4788   -3.0457   21.8593 C   0  0  0  0  0  0  0  0  0  0  0  0
    8.8693   -5.8099   18.4657 N   0  0  0  0  0  0  0  0  0  0  0  0
    8.9892   -0.7926   25.4573 C   0  0  0  0  0  0  0  0  0  0  0  0
   10.5677   -3.4462   20.5323 C   0  0  0  0  0  0  0  0  0  0  0  0
  1  8  1  0
  1 12  4  0
  1 14  4  0
  2  3  4  0
  2 18  4  0
  3 20  4  0
  3 22  4  0
  4 11  4  0
  4 21  4  0
  5  9  4  0
  5 16  4  0
  6 15  4  0
  6 16  4  0
  7 22  4  0
  7 26  4  0
  8 10  4  0
  8 25  4  0
  9 15  4  0
  9 17  1  0
 10 21  4  0
 11 25  4  0
 12 23  4  0
 13 20  4  0
 13 26  4  0
 14 19  4  0
 17 18  4  0
 17 24  4  0
 19 23  4  0
 20 24  4  0
 23 26  1  0
M  END
$$$$

 Created by Python create_sdf_string function

 26 30  0  0  0  0  0  0  0  0999 V2000
   10.0084   -1.8019   23.4945 C   0  0  0  0  0  0  0  0  0  0  0  0
   10.0005   -4.2520   16.5631 C   0  0  0  0  0  0  0  0  0  0  0  0
   10.2759   -4.0036   17.8845 C   0  0  0  0  0  0  0  0  0  0  0  0
    8.5652    1.5478   25.3778 N   0  0  0  0  0  0  0  0  0  0  0  0
    6.8048   -7.5457   17.8752 C   0  0  0  0  0  0  0  0  0  0  0  0
    6.1721   -8.2186   15.9886 N   0  0  0  0  0  0  0  0  0  0  0  0
   11.1764   -2.6600   19.5604 C   0  0  0  0  0  0  0  0  0  0  0  0
    9.5491   -0.6380   24.1912 C   0  0  0  0  0  0  0  0  0  0  0  0
    7.5337   -6.9256   16.9519 C   0  0  0  0  0  0  0  0  0  0  0  0
    9.6782    0.5671   23.5143 C   0  0  0  0  0  0  0  0  0  0  0  0
    8.4532    0.3482   26.0821 C   0  0  0  0  0  0  0  0  0  0  0  0
   10.4239   -1.7677   22.2230 N   0  0  0  0  0  0  0  0  0  0  0  0
    9.9468   -4.5953   20.1709 C   0  0  0  0  0  0  0  0  0  0  0  0
   10.0366   -3.0590   23.9864 N   0  0  0  0  0  0  0  0  0  0  0  0
    7.1191   -7.3636   15.7739 C   0  0  0  0  0  0  0  0  0  0  0  0
    5.9612   -8.3203   17.2732 N   0  0  0  0  0  0  0  0  0  0  0  0
    8.5296   -5.9814   17.1841 C   0  0  0  0  0  0  0  0  0  0  0  0
    9.1527   -5.2118   16.2116 C   0  0  0  0  0  0  0  0  0  0  0  0
   10.3364   -3.8368   22.9255 O   0  0  0  0  0  0  0  0  0  0  0  0
    9.6947   -4.8407   18.8534 C   0  0  0  0  0  0  0  0  0  0  0  0
    9.1596    1.7042   24.1381 C   0  0  0  0  0  0  0  0  0  0  0  0
   11.0456   -2.9774   18.2694 N   0  0  0  0  0  0  0  0  0  0  0  0
   10.4788   -3.0457   21.8593 C   0  0  0  0  0  0  0  0  0  0  0  0
    8.8693   -5.8099   18.4657 N   0  0  0  0  0  0  0  0  0  0  0  0
    8.9892   -0.7926   25.4573 C   0  0  0  0  0  0  0  0  0  0  0  0
   10.5677   -3.4462   20.5323 C   0  0  0  0  0  0  0  0  0  0  0  0
  1  8  1  0
  1 12  4  0
  1 14  4  0
  2  3  4  0
  2 18  4  0
  3 20  4  0
  3 22  4  0
  4 11  4  0
  4 21  4  0
  5  9  4  0
  5 16  4  0
  6 15  4  0
  6 16  4  0
  7 22  4  0
  7 26  4  0
  8 10  4  0
  8 25  4  0
  9 15  4  0
  9 17  1  0
 10 21  4  0
 11 25  4  0
 12 23  4  0
 13 20  4  0
 13 26  4  0
 14 19  4  0
 17 18  4  0
 17 24  4  0
 19 23  4  0
 20 24  4  0
 23 26  1  0
M  END
$$$$

 Created by Python create_sdf_string function

 26 30  0  0  0  0  0  0  0  0999 V2000
   10.0084   -1.8019   23.4945 C   0  0  0  0  0  0  0  0  0  0  0  0
   10.0005   -4.2520   16.5631 C   0  0  0  0  0  0  0  0  0  0  0  0
   10.2759   -4.0036   17.8845 C   0  0  0  0  0  0  0  0  0  0  0  0
    8.5652    1.5478   25.3778 N   0  0  0  0  0  0  0  0  0  0  0  0
    6.8048   -7.5457   17.8752 C   0  0  0  0  0  0  0  0  0  0  0  0
    6.1721   -8.2186   15.9886 N   0  0  0  0  0  0  0  0  0  0  0  0
   11.1764   -2.6600   19.5604 C   0  0  0  0  0  0  0  0  0  0  0  0
    9.5491   -0.6380   24.1912 C   0  0  0  0  0  0  0  0  0  0  0  0
    7.5337   -6.9256   16.9519 C   0  0  0  0  0  0  0  0  0  0  0  0
    9.6782    0.5671   23.5143 C   0  0  0  0  0  0  0  0  0  0  0  0
    8.4532    0.3482   26.0821 C   0  0  0  0  0  0  0  0  0  0  0  0
   10.4239   -1.7677   22.2230 N   0  0  0  0  0  0  0  0  0  0  0  0
    9.9468   -4.5953   20.1709 C   0  0  0  0  0  0  0  0  0  0  0  0
   10.0366   -3.0590   23.9864 N   0  0  0  0  0  0  0  0  0  0  0  0
    7.1191   -7.3636   15.7739 C   0  0  0  0  0  0  0  0  0  0  0  0
    5.9612   -8.3203   17.2732 N   0  0  0  0  0  0  0  0  0  0  0  0
    8.5296   -5.9814   17.1841 C   0  0  0  0  0  0  0  0  0  0  0  0
    9.1527   -5.2118   16.2116 C   0  0  0  0  0  0  0  0  0  0  0  0
   10.3364   -3.8368   22.9255 O   0  0  0  0  0  0  0  0  0  0  0  0
    9.6947   -4.8407   18.8534 C   0  0  0  0  0  0  0  0  0  0  0  0
    9.1596    1.7042   24.1381 C   0  0  0  0  0  0  0  0  0  0  0  0
   11.0456   -2.9774   18.2694 N   0  0  0  0  0  0  0  0  0  0  0  0
   10.4788   -3.0457   21.8593 C   0  0  0  0  0  0  0  0  0  0  0  0
    8.8693   -5.8099   18.4657 N   0  0  0  0  0  0  0  0  0  0  0  0
    8.9892   -0.7926   25.4573 C   0  0  0  0  0  0  0  0  0  0  0  0
   10.5677   -3.4462   20.5323 C   0  0  0  0  0  0  0  0  0  0  0  0
  1  8  1  0
  1 12  4  0
  1 14  4  0
  2  3  4  0
  2 18  4  0
  3 20  4  0
  3 22  4  0
  4 11  4  0
  4 21  4  0
  5  9  4  0
  5 16  4  0
  6 15  4  0
  6 16  4  0
  7 22  4  0
  7 26  4  0
  8 10  4  0
  8 25  4  0
  9 15  4  0
  9 17  1  0
 10 21  4  0
 11 25  4  0
 12 23  4  0
 13 20  4  0
 13 26  4  0
 14 19  4  0
 17 18  4  0
 17 24  4  0
 19 23  4  0
 20 24  4  0
 23 26  1  0
M  END
$$$$

 Created by Python create_sdf_string function

 26 30  0  0  0  0  0  0  0  0999 V2000
   10.0084   -1.8019   23.4945 C   0  0  0  0  0  0  0  0  0  0  0  0
   10.0005   -4.2520   16.5631 C   0  0  0  0  0  0  0  0  0  0  0  0
   10.2759   -4.0036   17.8845 C   0  0  0  0  0  0  0  0  0  0  0  0
    8.5652    1.5478   25.3778 N   0  0  0  0  0  0  0  0  0  0  0  0
    6.8048   -7.5457   17.8752 C   0  0  0  0  0  0  0  0  0  0  0  0
    6.1721   -8.2186   15.9886 N   0  0  0  0  0  0  0  0  0  0  0  0
   11.1764   -2.6600   19.5604 C   0  0  0  0  0  0  0  0  0  0  0  0
    9.5491   -0.6380   24.1912 C   0  0  0  0  0  0  0  0  0  0  0  0
    7.5337   -6.9256   16.9519 C   0  0  0  0  0  0  0  0  0  0  0  0
    9.6782    0.5671   23.5143 C   0  0  0  0  0  0  0  0  0  0  0  0
    8.4532    0.3482   26.0821 C   0  0  0  0  0  0  0  0  0  0  0  0
   10.4239   -1.7677   22.2230 N   0  0  0  0  0  0  0  0  0  0  0  0
    9.9468   -4.5953   20.1709 C   0  0  0  0  0  0  0  0  0  0  0  0
   10.0366   -3.0590   23.9864 N   0  0  0  0  0  0  0  0  0  0  0  0
    7.1191   -7.3636   15.7739 C   0  0  0  0  0  0  0  0  0  0  0  0
    5.9612   -8.3203   17.2732 N   0  0  0  0  0  0  0  0  0  0  0  0
    8.5296   -5.9814   17.1841 C   0  0  0  0  0  0  0  0  0  0  0  0
    9.1527   -5.2118   16.2116 C   0  0  0  0  0  0  0  0  0  0  0  0
   10.3364   -3.8368   22.9255 O   0  0  0  0  0  0  0  0  0  0  0  0
    9.6947   -4.8407   18.8534 C   0  0  0  0  0  0  0  0  0  0  0  0
    9.1596    1.7042   24.1381 C   0  0  0  0  0  0  0  0  0  0  0  0
   11.0456   -2.9774   18.2694 N   0  0  0  0  0  0  0  0  0  0  0  0
   10.4788   -3.0457   21.8593 C   0  0  0  0  0  0  0  0  0  0  0  0
    8.8693   -5.8099   18.4657 N   0  0  0  0  0  0  0  0  0  0  0  0
    8.9892   -0.7926   25.4573 C   0  0  0  0  0  0  0  0  0  0  0  0
   10.5677   -3.4462   20.5323 C   0  0  0  0  0  0  0  0  0  0  0  0
  1  8  1  0
  1 12  4  0
  1 14  4  0
  2  3  4  0
  2 18  4  0
  3 20  4  0
  3 22  4  0
  4 11  4  0
  4 21  4  0
  5  9  4  0
  5 16  4  0
  6 15  4  0
  6 16  4  0
  7 22  4  0
  7 26  4  0
  8 10  4  0
  8 25  4  0
  9 15  4  0
  9 17  1  0
 10 21  4  0
 11 25  4  0
 12 23  4  0
 13 20  4  0
 13 26  4  0
 14 19  4  0
 17 18  4  0
 17 24  4  0
 19 23  4  0
 20 24  4  0
 23 26  1  0
M  END
$$$$

 Created by Python create_sdf_string function

 26 30  0  0  0  0  0  0  0  0999 V2000
   10.0084   -1.8019   23.4945 C   0  0  0  0  0  0  0  0  0  0  0  0
   10.0005   -4.2520   16.5631 C   0  0  0  0  0  0  0  0  0  0  0  0
   10.2759   -4.0036   17.8845 C   0  0  0  0  0  0  0  0  0  0  0  0
    8.5652    1.5478   25.3778 N   0  0  0  0  0  0  0  0  0  0  0  0
    6.8048   -7.5457   17.8752 C   0  0  0  0  0  0  0  0  0  0  0  0
    6.1721   -8.2186   15.9886 N   0  0  0  0  0  0  0  0  0  0  0  0
   11.1764   -2.6600   19.5604 C   0  0  0  0  0  0  0  0  0  0  0  0
    9.5491   -0.6380   24.1912 C   0  0  0  0  0  0  0  0  0  0  0  0
    7.5337   -6.9256   16.9519 C   0  0  0  0  0  0  0  0  0  0  0  0
    9.6782    0.5671   23.5143 C   0  0  0  0  0  0  0  0  0  0  0  0
    8.4532    0.3482   26.0821 C   0  0  0  0  0  0  0  0  0  0  0  0
   10.4239   -1.7677   22.2230 N   0  0  0  0  0  0  0  0  0  0  0  0
    9.9468   -4.5953   20.1709 C   0  0  0  0  0  0  0  0  0  0  0  0
   10.0366   -3.0590   23.9864 N   0  0  0  0  0  0  0  0  0  0  0  0
    7.1191   -7.3636   15.7739 C   0  0  0  0  0  0  0  0  0  0  0  0
    5.9612   -8.3203   17.2732 N   0  0  0  0  0  0  0  0  0  0  0  0
    8.5296   -5.9814   17.1841 C   0  0  0  0  0  0  0  0  0  0  0  0
    9.1527   -5.2118   16.2116 C   0  0  0  0  0  0  0  0  0  0  0  0
   10.3364   -3.8368   22.9255 O   0  0  0  0  0  0  0  0  0  0  0  0
    9.6947   -4.8407   18.8534 C   0  0  0  0  0  0  0  0  0  0  0  0
    9.1596    1.7042   24.1381 C   0  0  0  0  0  0  0  0  0  0  0  0
   11.0456   -2.9774   18.2694 N   0  0  0  0  0  0  0  0  0  0  0  0
   10.4788   -3.0457   21.8593 C   0  0  0  0  0  0  0  0  0  0  0  0
    8.8693   -5.8099   18.4657 N   0  0  0  0  0  0  0  0  0  0  0  0
    8.9892   -0.7926   25.4573 C   0  0  0  0  0  0  0  0  0  0  0  0
   10.5677   -3.4462   20.5323 C   0  0  0  0  0  0  0  0  0  0  0  0
  1  8  1  0
  1 12  4  0
  1 14  4  0
  2  3  4  0
  2 18  4  0
  3 20  4  0
  3 22  4  0
  4 11  4  0
  4 21  4  0
  5  9  4  0
  5 16  4  0
  6 15  4  0
  6 16  4  0
  7 22  4  0
  7 26  4  0
  8 10  4  0
  8 25  4  0
  9 15  4  0
  9 17  1  0
 10 21  4  0
 11 25  4  0
 12 23  4  0
 13 20  4  0
 13 26  4  0
 14 19  4  0
 17 18  4  0
 17 24  4  0
 19 23  4  0
 20 24  4  0
 23 26  1  0
M  END
$$$$

 Created by Python create_sdf_string function

 26 30  0  0  0  0  0  0  0  0999 V2000
   10.0084   -1.8019   23.4945 C   0  0  0  0  0  0  0  0  0  0  0  0
   10.0005   -4.2520   16.5631 C   0  0  0  0  0  0  0  0  0  0  0  0
   10.2759   -4.0036   17.8845 C   0  0  0  0  0  0  0  0  0  0  0  0
    8.5652    1.5478   25.3778 N   0  0  0  0  0  0  0  0  0  0  0  0
    6.8048   -7.5457   17.8752 C   0  0  0  0  0  0  0  0  0  0  0  0
    6.1721   -8.2186   15.9886 N   0  0  0  0  0  0  0  0  0  0  0  0
   11.1764   -2.6600   19.5604 C   0  0  0  0  0  0  0  0  0  0  0  0
    9.5491   -0.6380   24.1912 C   0  0  0  0  0  0  0  0  0  0  0  0
    7.5337   -6.9256   16.9519 C   0  0  0  0  0  0  0  0  0  0  0  0
    9.6782    0.5671   23.5143 C   0  0  0  0  0  0  0  0  0  0  0  0
    8.4532    0.3482   26.0821 C   0  0  0  0  0  0  0  0  0  0  0  0
   10.4239   -1.7677   22.2230 N   0  0  0  0  0  0  0  0  0  0  0  0
    9.9468   -4.5953   20.1709 C   0  0  0  0  0  0  0  0  0  0  0  0
   10.0366   -3.0590   23.9864 N   0  0  0  0  0  0  0  0  0  0  0  0
    7.1191   -7.3636   15.7739 C   0  0  0  0  0  0  0  0  0  0  0  0
    5.9612   -8.3203   17.2732 N   0  0  0  0  0  0  0  0  0  0  0  0
    8.5296   -5.9814   17.1841 C   0  0  0  0  0  0  0  0  0  0  0  0
    9.1527   -5.2118   16.2116 C   0  0  0  0  0  0  0  0  0  0  0  0
   10.3364   -3.8368   22.9255 O   0  0  0  0  0  0  0  0  0  0  0  0
    9.6947   -4.8407   18.8534 C   0  0  0  0  0  0  0  0  0  0  0  0
    9.1596    1.7042   24.1381 C   0  0  0  0  0  0  0  0  0  0  0  0
   11.0456   -2.9774   18.2694 N   0  0  0  0  0  0  0  0  0  0  0  0
   10.4788   -3.0457   21.8593 C   0  0  0  0  0  0  0  0  0  0  0  0
    8.8693   -5.8099   18.4657 N   0  0  0  0  0  0  0  0  0  0  0  0
    8.9892   -0.7926   25.4573 C   0  0  0  0  0  0  0  0  0  0  0  0
   10.5677   -3.4462   20.5323 C   0  0  0  0  0  0  0  0  0  0  0  0
  1  8  1  0
  1 12  4  0
  1 14  4  0
  2  3  4  0
  2 18  4  0
  3 20  4  0
  3 22  4  0
  4 11  4  0
  4 21  4  0
  5  9  4  0
  5 16  4  0
  6 15  4  0
  6 16  4  0
  7 22  4  0
  7 26  4  0
  8 10  4  0
  8 25  4  0
  9 15  4  0
  9 17  1  0
 10 21  4  0
 11 25  4  0
 12 23  4  0
 13 20  4  0
 13 26  4  0
 14 19  4  0
 17 18  4  0
 17 24  4  0
 19 23  4  0
 20 24  4  0
 23 26  1  0
M  END
$$$$

 Created by Python create_sdf_string function

 26 30  0  0  0  0  0  0  0  0999 V2000
   10.0084   -1.8019   23.4945 C   0  0  0  0  0  0  0  0  0  0  0  0
   10.0005   -4.2520   16.5631 C   0  0  0  0  0  0  0  0  0  0  0  0
   10.2759   -4.0036   17.8845 C   0  0  0  0  0  0  0  0  0  0  0  0
    8.5652    1.5478   25.3778 N   0  0  0  0  0  0  0  0  0  0  0  0
    6.8048   -7.5457   17.8752 C   0  0  0  0  0  0  0  0  0  0  0  0
    6.1721   -8.2186   15.9886 N   0  0  0  0  0  0  0  0  0  0  0  0
   11.1764   -2.6600   19.5604 C   0  0  0  0  0  0  0  0  0  0  0  0
    9.5491   -0.6380   24.1912 C   0  0  0  0  0  0  0  0  0  0  0  0
    7.5337   -6.9256   16.9519 C   0  0  0  0  0  0  0  0  0  0  0  0
    9.6782    0.5671   23.5143 C   0  0  0  0  0  0  0  0  0  0  0  0
    8.4532    0.3482   26.0821 C   0  0  0  0  0  0  0  0  0  0  0  0
   10.4239   -1.7677   22.2230 N   0  0  0  0  0  0  0  0  0  0  0  0
    9.9468   -4.5953   20.1709 C   0  0  0  0  0  0  0  0  0  0  0  0
   10.0366   -3.0590   23.9864 N   0  0  0  0  0  0  0  0  0  0  0  0
    7.1191   -7.3636   15.7739 C   0  0  0  0  0  0  0  0  0  0  0  0
    5.9612   -8.3203   17.2732 N   0  0  0  0  0  0  0  0  0  0  0  0
    8.5296   -5.9814   17.1841 C   0  0  0  0  0  0  0  0  0  0  0  0
    9.1527   -5.2118   16.2116 C   0  0  0  0  0  0  0  0  0  0  0  0
   10.3364   -3.8368   22.9255 O   0  0  0  0  0  0  0  0  0  0  0  0
    9.6947   -4.8407   18.8534 C   0  0  0  0  0  0  0  0  0  0  0  0
    9.1596    1.7042   24.1381 C   0  0  0  0  0  0  0  0  0  0  0  0
   11.0456   -2.9774   18.2694 N   0  0  0  0  0  0  0  0  0  0  0  0
   10.4788   -3.0457   21.8593 C   0  0  0  0  0  0  0  0  0  0  0  0
    8.8693   -5.8099   18.4657 N   0  0  0  0  0  0  0  0  0  0  0  0
    8.9892   -0.7926   25.4573 C   0  0  0  0  0  0  0  0  0  0  0  0
   10.5677   -3.4462   20.5323 C   0  0  0  0  0  0  0  0  0  0  0  0
  1  8  1  0
  1 12  4  0
  1 14  4  0
  2  3  4  0
  2 18  4  0
  3 20  4  0
  3 22  4  0
  4 11  4  0
  4 21  4  0
  5  9  4  0
  5 16  4  0
  6 15  4  0
  6 16  4  0
  7 22  4  0
  7 26  4  0
  8 10  4  0
  8 25  4  0
  9 15  4  0
  9 17  1  0
 10 21  4  0
 11 25  4  0
 12 23  4  0
 13 20  4  0
 13 26  4  0
 14 19  4  0
 17 18  4  0
 17 24  4  0
 19 23  4  0
 20 24  4  0
 23 26  1  0
M  END
$$$$

 Created by Python create_sdf_string function

 26 30  0  0  0  0  0  0  0  0999 V2000
   10.0084   -1.8019   23.4945 C   0  0  0  0  0  0  0  0  0  0  0  0
   10.0005   -4.2520   16.5631 C   0  0  0  0  0  0  0  0  0  0  0  0
   10.2759   -4.0036   17.8845 C   0  0  0  0  0  0  0  0  0  0  0  0
    8.5652    1.5478   25.3778 N   0  0  0  0  0  0  0  0  0  0  0  0
    6.8048   -7.5457   17.8752 C   0  0  0  0  0  0  0  0  0  0  0  0
    6.1721   -8.2186   15.9886 N   0  0  0  0  0  0  0  0  0  0  0  0
   11.1764   -2.6600   19.5604 C   0  0  0  0  0  0  0  0  0  0  0  0
    9.5491   -0.6380   24.1912 C   0  0  0  0  0  0  0  0  0  0  0  0
    7.5337   -6.9256   16.9519 C   0  0  0  0  0  0  0  0  0  0  0  0
    9.6782    0.5671   23.5143 C   0  0  0  0  0  0  0  0  0  0  0  0
    8.4532    0.3482   26.0821 C   0  0  0  0  0  0  0  0  0  0  0  0
   10.4239   -1.7677   22.2230 N   0  0  0  0  0  0  0  0  0  0  0  0
    9.9468   -4.5953   20.1709 C   0  0  0  0  0  0  0  0  0  0  0  0
   10.0366   -3.0590   23.9864 N   0  0  0  0  0  0  0  0  0  0  0  0
    7.1191   -7.3636   15.7739 C   0  0  0  0  0  0  0  0  0  0  0  0
    5.9612   -8.3203   17.2732 N   0  0  0  0  0  0  0  0  0  0  0  0
    8.5296   -5.9814   17.1841 C   0  0  0  0  0  0  0  0  0  0  0  0
    9.1527   -5.2118   16.2116 C   0  0  0  0  0  0  0  0  0  0  0  0
   10.3364   -3.8368   22.9255 O   0  0  0  0  0  0  0  0  0  0  0  0
    9.6947   -4.8407   18.8534 C   0  0  0  0  0  0  0  0  0  0  0  0
    9.1596    1.7042   24.1381 C   0  0  0  0  0  0  0  0  0  0  0  0
   11.0456   -2.9774   18.2694 N   0  0  0  0  0  0  0  0  0  0  0  0
   10.4788   -3.0457   21.8593 C   0  0  0  0  0  0  0  0  0  0  0  0
    8.8693   -5.8099   18.4657 N   0  0  0  0  0  0  0  0  0  0  0  0
    8.9892   -0.7926   25.4573 C   0  0  0  0  0  0  0  0  0  0  0  0
   10.5677   -3.4462   20.5323 C   0  0  0  0  0  0  0  0  0  0  0  0
  1  8  1  0
  1 12  4  0
  1 14  4  0
  2  3  4  0
  2 18  4  0
  3 20  4  0
  3 22  4  0
  4 11  4  0
  4 21  4  0
  5  9  4  0
  5 16  4  0
  6 15  4  0
  6 16  4  0
  7 22  4  0
  7 26  4  0
  8 10  4  0
  8 25  4  0
  9 15  4  0
  9 17  1  0
 10 21  4  0
 11 25  4  0
 12 23  4  0
 13 20  4  0
 13 26  4  0
 14 19  4  0
 17 18  4  0
 17 24  4  0
 19 23  4  0
 20 24  4  0
 23 26  1  0
M  END
$$$$

 Created by Python create_sdf_string function

 26 30  0  0  0  0  0  0  0  0999 V2000
   10.0084   -1.8019   23.4945 C   0  0  0  0  0  0  0  0  0  0  0  0
   10.0005   -4.2520   16.5631 C   0  0  0  0  0  0  0  0  0  0  0  0
   10.2759   -4.0036   17.8845 C   0  0  0  0  0  0  0  0  0  0  0  0
    8.5652    1.5478   25.3778 N   0  0  0  0  0  0  0  0  0  0  0  0
    6.8048   -7.5457   17.8752 C   0  0  0  0  0  0  0  0  0  0  0  0
    6.1721   -8.2186   15.9886 N   0  0  0  0  0  0  0  0  0  0  0  0
   11.1764   -2.6600   19.5604 C   0  0  0  0  0  0  0  0  0  0  0  0
    9.5491   -0.6380   24.1912 C   0  0  0  0  0  0  0  0  0  0  0  0
    7.5337   -6.9256   16.9519 C   0  0  0  0  0  0  0  0  0  0  0  0
    9.6782    0.5671   23.5143 C   0  0  0  0  0  0  0  0  0  0  0  0
    8.4532    0.3482   26.0821 C   0  0  0  0  0  0  0  0  0  0  0  0
   10.4239   -1.7677   22.2230 N   0  0  0  0  0  0  0  0  0  0  0  0
    9.9468   -4.5953   20.1709 C   0  0  0  0  0  0  0  0  0  0  0  0
   10.0366   -3.0590   23.9864 N   0  0  0  0  0  0  0  0  0  0  0  0
    7.1191   -7.3636   15.7739 C   0  0  0  0  0  0  0  0  0  0  0  0
    5.9612   -8.3203   17.2732 N   0  0  0  0  0  0  0  0  0  0  0  0
    8.5296   -5.9814   17.1841 C   0  0  0  0  0  0  0  0  0  0  0  0
    9.1527   -5.2118   16.2116 C   0  0  0  0  0  0  0  0  0  0  0  0
   10.3364   -3.8368   22.9255 O   0  0  0  0  0  0  0  0  0  0  0  0
    9.6947   -4.8407   18.8534 C   0  0  0  0  0  0  0  0  0  0  0  0
    9.1596    1.7042   24.1381 C   0  0  0  0  0  0  0  0  0  0  0  0
   11.0456   -2.9774   18.2694 N   0  0  0  0  0  0  0  0  0  0  0  0
   10.4788   -3.0457   21.8593 C   0  0  0  0  0  0  0  0  0  0  0  0
    8.8693   -5.8099   18.4657 N   0  0  0  0  0  0  0  0  0  0  0  0
    8.9892   -0.7926   25.4573 C   0  0  0  0  0  0  0  0  0  0  0  0
   10.5677   -3.4462   20.5323 C   0  0  0  0  0  0  0  0  0  0  0  0
  1  8  1  0
  1 12  4  0
  1 14  4  0
  2  3  4  0
  2 18  4  0
  3 20  4  0
  3 22  4  0
  4 11  4  0
  4 21  4  0
  5  9  4  0
  5 16  4  0
  6 15  4  0
  6 16  4  0
  7 22  4  0
  7 26  4  0
  8 10  4  0
  8 25  4  0
  9 15  4  0
  9 17  1  0
 10 21  4  0
 11 25  4  0
 12 23  4  0
 13 20  4  0
 13 26  4  0
 14 19  4  0
 17 18  4  0
 17 24  4  0
 19 23  4  0
 20 24  4  0
 23 26  1  0
M  END
$$$$

 Created by Python create_sdf_string function

 26 30  0  0  0  0  0  0  0  0999 V2000
   10.0084   -1.8019   23.4945 C   0  0  0  0  0  0  0  0  0  0  0  0
   10.0005   -4.2520   16.5631 C   0  0  0  0  0  0  0  0  0  0  0  0
   10.2759   -4.0036   17.8845 C   0  0  0  0  0  0  0  0  0  0  0  0
    8.5652    1.5478   25.3778 N   0  0  0  0  0  0  0  0  0  0  0  0
    6.8048   -7.5457   17.8752 C   0  0  0  0  0  0  0  0  0  0  0  0
    6.1721   -8.2186   15.9886 N   0  0  0  0  0  0  0  0  0  0  0  0
   11.1764   -2.6600   19.5604 C   0  0  0  0  0  0  0  0  0  0  0  0
    9.5491   -0.6380   24.1912 C   0  0  0  0  0  0  0  0  0  0  0  0
    7.5337   -6.9256   16.9519 C   0  0  0  0  0  0  0  0  0  0  0  0
    9.6782    0.5671   23.5143 C   0  0  0  0  0  0  0  0  0  0  0  0
    8.4532    0.3482   26.0821 C   0  0  0  0  0  0  0  0  0  0  0  0
   10.4239   -1.7677   22.2230 N   0  0  0  0  0  0  0  0  0  0  0  0
    9.9468   -4.5953   20.1709 C   0  0  0  0  0  0  0  0  0  0  0  0
   10.0366   -3.0590   23.9864 N   0  0  0  0  0  0  0  0  0  0  0  0
    7.1191   -7.3636   15.7739 C   0  0  0  0  0  0  0  0  0  0  0  0
    5.9612   -8.3203   17.2732 N   0  0  0  0  0  0  0  0  0  0  0  0
    8.5296   -5.9814   17.1841 C   0  0  0  0  0  0  0  0  0  0  0  0
    9.1527   -5.2118   16.2116 C   0  0  0  0  0  0  0  0  0  0  0  0
   10.3364   -3.8368   22.9255 O   0  0  0  0  0  0  0  0  0  0  0  0
    9.6947   -4.8407   18.8534 C   0  0  0  0  0  0  0  0  0  0  0  0
    9.1596    1.7042   24.1381 C   0  0  0  0  0  0  0  0  0  0  0  0
   11.0456   -2.9774   18.2694 N   0  0  0  0  0  0  0  0  0  0  0  0
   10.4788   -3.0457   21.8593 C   0  0  0  0  0  0  0  0  0  0  0  0
    8.8693   -5.8099   18.4657 N   0  0  0  0  0  0  0  0  0  0  0  0
    8.9892   -0.7926   25.4573 C   0  0  0  0  0  0  0  0  0  0  0  0
   10.5677   -3.4462   20.5323 C   0  0  0  0  0  0  0  0  0  0  0  0
  1  8  1  0
  1 12  4  0
  1 14  4  0
  2  3  4  0
  2 18  4  0
  3 20  4  0
  3 22  4  0
  4 11  4  0
  4 21  4  0
  5  9  4  0
  5 16  4  0
  6 15  4  0
  6 16  4  0
  7 22  4  0
  7 26  4  0
  8 10  4  0
  8 25  4  0
  9 15  4  0
  9 17  1  0
 10 21  4  0
 11 25  4  0
 12 23  4  0
 13 20  4  0
 13 26  4  0
 14 19  4  0
 17 18  4  0
 17 24  4  0
 19 23  4  0
 20 24  4  0
 23 26  1  0
M  END
$$$$

 Created by Python create_sdf_string function

 26 30  0  0  0  0  0  0  0  0999 V2000
   10.0084   -1.8019   23.4945 C   0  0  0  0  0  0  0  0  0  0  0  0
   10.0005   -4.2520   16.5631 C   0  0  0  0  0  0  0  0  0  0  0  0
   10.2759   -4.0036   17.8845 C   0  0  0  0  0  0  0  0  0  0  0  0
    8.5652    1.5478   25.3778 N   0  0  0  0  0  0  0  0  0  0  0  0
    6.8048   -7.5457   17.8752 C   0  0  0  0  0  0  0  0  0  0  0  0
    6.1721   -8.2186   15.9886 N   0  0  0  0  0  0  0  0  0  0  0  0
   11.1764   -2.6600   19.5604 C   0  0  0  0  0  0  0  0  0  0  0  0
    9.5491   -0.6380   24.1912 C   0  0  0  0  0  0  0  0  0  0  0  0
    7.5337   -6.9256   16.9519 C   0  0  0  0  0  0  0  0  0  0  0  0
    9.6782    0.5671   23.5143 C   0  0  0  0  0  0  0  0  0  0  0  0
    8.4532    0.3482   26.0821 C   0  0  0  0  0  0  0  0  0  0  0  0
   10.4239   -1.7677   22.2230 N   0  0  0  0  0  0  0  0  0  0  0  0
    9.9468   -4.5953   20.1709 C   0  0  0  0  0  0  0  0  0  0  0  0
   10.0366   -3.0590   23.9864 N   0  0  0  0  0  0  0  0  0  0  0  0
    7.1191   -7.3636   15.7739 C   0  0  0  0  0  0  0  0  0  0  0  0
    5.9612   -8.3203   17.2732 N   0  0  0  0  0  0  0  0  0  0  0  0
    8.5296   -5.9814   17.1841 C   0  0  0  0  0  0  0  0  0  0  0  0
    9.1527   -5.2118   16.2116 C   0  0  0  0  0  0  0  0  0  0  0  0
   10.3364   -3.8368   22.9255 O   0  0  0  0  0  0  0  0  0  0  0  0
    9.6947   -4.8407   18.8534 C   0  0  0  0  0  0  0  0  0  0  0  0
    9.1596    1.7042   24.1381 C   0  0  0  0  0  0  0  0  0  0  0  0
   11.0456   -2.9774   18.2694 N   0  0  0  0  0  0  0  0  0  0  0  0
   10.4788   -3.0457   21.8593 C   0  0  0  0  0  0  0  0  0  0  0  0
    8.8693   -5.8099   18.4657 N   0  0  0  0  0  0  0  0  0  0  0  0
    8.9892   -0.7926   25.4573 C   0  0  0  0  0  0  0  0  0  0  0  0
   10.5677   -3.4462   20.5323 C   0  0  0  0  0  0  0  0  0  0  0  0
  1  8  1  0
  1 12  4  0
  1 14  4  0
  2  3  4  0
  2 18  4  0
  3 20  4  0
  3 22  4  0
  4 11  4  0
  4 21  4  0
  5  9  4  0
  5 16  4  0
  6 15  4  0
  6 16  4  0
  7 22  4  0
  7 26  4  0
  8 10  4  0
  8 25  4  0
  9 15  4  0
  9 17  1  0
 10 21  4  0
 11 25  4  0
 12 23  4  0
 13 20  4  0
 13 26  4  0
 14 19  4  0
 17 18  4  0
 17 24  4  0
 19 23  4  0
 20 24  4  0
 23 26  1  0
M  END
$$$$

 Created by Python create_sdf_string function

 26 30  0  0  0  0  0  0  0  0999 V2000
   10.0084   -1.8019   23.4945 C   0  0  0  0  0  0  0  0  0  0  0  0
   10.0005   -4.2520   16.5631 C   0  0  0  0  0  0  0  0  0  0  0  0
   10.2759   -4.0036   17.8845 C   0  0  0  0  0  0  0  0  0  0  0  0
    8.5652    1.5478   25.3778 N   0  0  0  0  0  0  0  0  0  0  0  0
    6.8048   -7.5457   17.8752 C   0  0  0  0  0  0  0  0  0  0  0  0
    6.1721   -8.2186   15.9886 N   0  0  0  0  0  0  0  0  0  0  0  0
   11.1764   -2.6600   19.5604 C   0  0  0  0  0  0  0  0  0  0  0  0
    9.5491   -0.6380   24.1912 C   0  0  0  0  0  0  0  0  0  0  0  0
    7.5337   -6.9256   16.9519 C   0  0  0  0  0  0  0  0  0  0  0  0
    9.6782    0.5671   23.5143 C   0  0  0  0  0  0  0  0  0  0  0  0
    8.4532    0.3482   26.0821 C   0  0  0  0  0  0  0  0  0  0  0  0
   10.4239   -1.7677   22.2230 N   0  0  0  0  0  0  0  0  0  0  0  0
    9.9468   -4.5953   20.1709 C   0  0  0  0  0  0  0  0  0  0  0  0
   10.0366   -3.0590   23.9864 N   0  0  0  0  0  0  0  0  0  0  0  0
    7.1191   -7.3636   15.7739 C   0  0  0  0  0  0  0  0  0  0  0  0
    5.9612   -8.3203   17.2732 N   0  0  0  0  0  0  0  0  0  0  0  0
    8.5296   -5.9814   17.1841 C   0  0  0  0  0  0  0  0  0  0  0  0
    9.1527   -5.2118   16.2116 C   0  0  0  0  0  0  0  0  0  0  0  0
   10.3364   -3.8368   22.9255 O   0  0  0  0  0  0  0  0  0  0  0  0
    9.6947   -4.8407   18.8534 C   0  0  0  0  0  0  0  0  0  0  0  0
    9.1596    1.7042   24.1381 C   0  0  0  0  0  0  0  0  0  0  0  0
   11.0456   -2.9774   18.2694 N   0  0  0  0  0  0  0  0  0  0  0  0
   10.4788   -3.0457   21.8593 C   0  0  0  0  0  0  0  0  0  0  0  0
    8.8693   -5.8099   18.4657 N   0  0  0  0  0  0  0  0  0  0  0  0
    8.9892   -0.7926   25.4573 C   0  0  0  0  0  0  0  0  0  0  0  0
   10.5677   -3.4462   20.5323 C   0  0  0  0  0  0  0  0  0  0  0  0
  1  8  1  0
  1 12  4  0
  1 14  4  0
  2  3  4  0
  2 18  4  0
  3 20  4  0
  3 22  4  0
  4 11  4  0
  4 21  4  0
  5  9  4  0
  5 16  4  0
  6 15  4  0
  6 16  4  0
  7 22  4  0
  7 26  4  0
  8 10  4  0
  8 25  4  0
  9 15  4  0
  9 17  1  0
 10 21  4  0
 11 25  4  0
 12 23  4  0
 13 20  4  0
 13 26  4  0
 14 19  4  0
 17 18  4  0
 17 24  4  0
 19 23  4  0
 20 24  4  0
 23 26  1  0
M  END
$$$$

 Created by Python create_sdf_string function

 26 30  0  0  0  0  0  0  0  0999 V2000
   10.0084   -1.8019   23.4945 C   0  0  0  0  0  0  0  0  0  0  0  0
   10.0005   -4.2520   16.5631 C   0  0  0  0  0  0  0  0  0  0  0  0
   10.2759   -4.0036   17.8845 C   0  0  0  0  0  0  0  0  0  0  0  0
    8.5652    1.5478   25.3778 N   0  0  0  0  0  0  0  0  0  0  0  0
    6.8048   -7.5457   17.8752 C   0  0  0  0  0  0  0  0  0  0  0  0
    6.1721   -8.2186   15.9886 N   0  0  0  0  0  0  0  0  0  0  0  0
   11.1764   -2.6600   19.5604 C   0  0  0  0  0  0  0  0  0  0  0  0
    9.5491   -0.6380   24.1912 C   0  0  0  0  0  0  0  0  0  0  0  0
    7.5337   -6.9256   16.9519 C   0  0  0  0  0  0  0  0  0  0  0  0
    9.6782    0.5671   23.5143 C   0  0  0  0  0  0  0  0  0  0  0  0
    8.4532    0.3482   26.0821 C   0  0  0  0  0  0  0  0  0  0  0  0
   10.4239   -1.7677   22.2230 N   0  0  0  0  0  0  0  0  0  0  0  0
    9.9468   -4.5953   20.1709 C   0  0  0  0  0  0  0  0  0  0  0  0
   10.0366   -3.0590   23.9864 N   0  0  0  0  0  0  0  0  0  0  0  0
    7.1191   -7.3636   15.7739 C   0  0  0  0  0  0  0  0  0  0  0  0
    5.9612   -8.3203   17.2732 N   0  0  0  0  0  0  0  0  0  0  0  0
    8.5296   -5.9814   17.1841 C   0  0  0  0  0  0  0  0  0  0  0  0
    9.1527   -5.2118   16.2116 C   0  0  0  0  0  0  0  0  0  0  0  0
   10.3364   -3.8368   22.9255 O   0  0  0  0  0  0  0  0  0  0  0  0
    9.6947   -4.8407   18.8534 C   0  0  0  0  0  0  0  0  0  0  0  0
    9.1596    1.7042   24.1381 C   0  0  0  0  0  0  0  0  0  0  0  0
   11.0456   -2.9774   18.2694 N   0  0  0  0  0  0  0  0  0  0  0  0
   10.4788   -3.0457   21.8593 C   0  0  0  0  0  0  0  0  0  0  0  0
    8.8693   -5.8099   18.4657 N   0  0  0  0  0  0  0  0  0  0  0  0
    8.9892   -0.7926   25.4573 C   0  0  0  0  0  0  0  0  0  0  0  0
   10.5677   -3.4462   20.5323 C   0  0  0  0  0  0  0  0  0  0  0  0
  1  8  1  0
  1 12  4  0
  1 14  4  0
  2  3  4  0
  2 18  4  0
  3 20  4  0
  3 22  4  0
  4 11  4  0
  4 21  4  0
  5  9  4  0
  5 16  4  0
  6 15  4  0
  6 16  4  0
  7 22  4  0
  7 26  4  0
  8 10  4  0
  8 25  4  0
  9 15  4  0
  9 17  1  0
 10 21  4  0
 11 25  4  0
 12 23  4  0
 13 20  4  0
 13 26  4  0
 14 19  4  0
 17 18  4  0
 17 24  4  0
 19 23  4  0
 20 24  4  0
 23 26  1  0
M  END
$$$$

 Created by Python create_sdf_string function

 26 30  0  0  0  0  0  0  0  0999 V2000
   10.0084   -1.8019   23.4945 C   0  0  0  0  0  0  0  0  0  0  0  0
   10.0005   -4.2520   16.5631 C   0  0  0  0  0  0  0  0  0  0  0  0
   10.2759   -4.0036   17.8845 C   0  0  0  0  0  0  0  0  0  0  0  0
    8.5652    1.5478   25.3778 N   0  0  0  0  0  0  0  0  0  0  0  0
    6.8048   -7.5457   17.8752 C   0  0  0  0  0  0  0  0  0  0  0  0
    6.1721   -8.2186   15.9886 N   0  0  0  0  0  0  0  0  0  0  0  0
   11.1764   -2.6600   19.5604 C   0  0  0  0  0  0  0  0  0  0  0  0
    9.5491   -0.6380   24.1912 C   0  0  0  0  0  0  0  0  0  0  0  0
    7.5337   -6.9256   16.9519 C   0  0  0  0  0  0  0  0  0  0  0  0
    9.6782    0.5671   23.5143 C   0  0  0  0  0  0  0  0  0  0  0  0
    8.4532    0.3482   26.0821 C   0  0  0  0  0  0  0  0  0  0  0  0
   10.4239   -1.7677   22.2230 N   0  0  0  0  0  0  0  0  0  0  0  0
    9.9468   -4.5953   20.1709 C   0  0  0  0  0  0  0  0  0  0  0  0
   10.0366   -3.0590   23.9864 N   0  0  0  0  0  0  0  0  0  0  0  0
    7.1191   -7.3636   15.7739 C   0  0  0  0  0  0  0  0  0  0  0  0
    5.9612   -8.3203   17.2732 N   0  0  0  0  0  0  0  0  0  0  0  0
    8.5296   -5.9814   17.1841 C   0  0  0  0  0  0  0  0  0  0  0  0
    9.1527   -5.2118   16.2116 C   0  0  0  0  0  0  0  0  0  0  0  0
   10.3364   -3.8368   22.9255 O   0  0  0  0  0  0  0  0  0  0  0  0
    9.6947   -4.8407   18.8534 C   0  0  0  0  0  0  0  0  0  0  0  0
    9.1596    1.7042   24.1381 C   0  0  0  0  0  0  0  0  0  0  0  0
   11.0456   -2.9774   18.2694 N   0  0  0  0  0  0  0  0  0  0  0  0
   10.4788   -3.0457   21.8593 C   0  0  0  0  0  0  0  0  0  0  0  0
    8.8693   -5.8099   18.4657 N   0  0  0  0  0  0  0  0  0  0  0  0
    8.9892   -0.7926   25.4573 C   0  0  0  0  0  0  0  0  0  0  0  0
   10.5677   -3.4462   20.5323 C   0  0  0  0  0  0  0  0  0  0  0  0
  1  8  1  0
  1 12  4  0
  1 14  4  0
  2  3  4  0
  2 18  4  0
  3 20  4  0
  3 22  4  0
  4 11  4  0
  4 21  4  0
  5  9  4  0
  5 16  4  0
  6 15  4  0
  6 16  4  0
  7 22  4  0
  7 26  4  0
  8 10  4  0
  8 25  4  0
  9 15  4  0
  9 17  1  0
 10 21  4  0
 11 25  4  0
 12 23  4  0
 13 20  4  0
 13 26  4  0
 14 19  4  0
 17 18  4  0
 17 24  4  0
 19 23  4  0
 20 24  4  0
 23 26  1  0
M  END
$$$$

 Created by Python create_sdf_string function

 26 30  0  0  0  0  0  0  0  0999 V2000
   10.0084   -1.8019   23.4945 C   0  0  0  0  0  0  0  0  0  0  0  0
   10.0005   -4.2520   16.5631 C   0  0  0  0  0  0  0  0  0  0  0  0
   10.2759   -4.0036   17.8845 C   0  0  0  0  0  0  0  0  0  0  0  0
    8.5652    1.5478   25.3778 N   0  0  0  0  0  0  0  0  0  0  0  0
    6.8048   -7.5457   17.8752 C   0  0  0  0  0  0  0  0  0  0  0  0
    6.1721   -8.2186   15.9886 N   0  0  0  0  0  0  0  0  0  0  0  0
   11.1764   -2.6600   19.5604 C   0  0  0  0  0  0  0  0  0  0  0  0
    9.5491   -0.6380   24.1912 C   0  0  0  0  0  0  0  0  0  0  0  0
    7.5337   -6.9256   16.9519 C   0  0  0  0  0  0  0  0  0  0  0  0
    9.6782    0.5671   23.5143 C   0  0  0  0  0  0  0  0  0  0  0  0
    8.4532    0.3482   26.0821 C   0  0  0  0  0  0  0  0  0  0  0  0
   10.4239   -1.7677   22.2230 N   0  0  0  0  0  0  0  0  0  0  0  0
    9.9468   -4.5953   20.1709 C   0  0  0  0  0  0  0  0  0  0  0  0
   10.0366   -3.0590   23.9864 N   0  0  0  0  0  0  0  0  0  0  0  0
    7.1191   -7.3636   15.7739 C   0  0  0  0  0  0  0  0  0  0  0  0
    5.9612   -8.3203   17.2732 N   0  0  0  0  0  0  0  0  0  0  0  0
    8.5296   -5.9814   17.1841 C   0  0  0  0  0  0  0  0  0  0  0  0
    9.1527   -5.2118   16.2116 C   0  0  0  0  0  0  0  0  0  0  0  0
   10.3364   -3.8368   22.9255 O   0  0  0  0  0  0  0  0  0  0  0  0
    9.6947   -4.8407   18.8534 C   0  0  0  0  0  0  0  0  0  0  0  0
    9.1596    1.7042   24.1381 C   0  0  0  0  0  0  0  0  0  0  0  0
   11.0456   -2.9774   18.2694 N   0  0  0  0  0  0  0  0  0  0  0  0
   10.4788   -3.0457   21.8593 C   0  0  0  0  0  0  0  0  0  0  0  0
    8.8693   -5.8099   18.4657 N   0  0  0  0  0  0  0  0  0  0  0  0
    8.9892   -0.7926   25.4573 C   0  0  0  0  0  0  0  0  0  0  0  0
   10.5677   -3.4462   20.5323 C   0  0  0  0  0  0  0  0  0  0  0  0
  1  8  1  0
  1 12  4  0
  1 14  4  0
  2  3  4  0
  2 18  4  0
  3 20  4  0
  3 22  4  0
  4 11  4  0
  4 21  4  0
  5  9  4  0
  5 16  4  0
  6 15  4  0
  6 16  4  0
  7 22  4  0
  7 26  4  0
  8 10  4  0
  8 25  4  0
  9 15  4  0
  9 17  1  0
 10 21  4  0
 11 25  4  0
 12 23  4  0
 13 20  4  0
 13 26  4  0
 14 19  4  0
 17 18  4  0
 17 24  4  0
 19 23  4  0
 20 24  4  0
 23 26  1  0
M  END
$$$$

 Created by Python create_sdf_string function

 26 30  0  0  0  0  0  0  0  0999 V2000
   10.0084   -1.8019   23.4945 C   0  0  0  0  0  0  0  0  0  0  0  0
   10.0005   -4.2520   16.5631 C   0  0  0  0  0  0  0  0  0  0  0  0
   10.2759   -4.0036   17.8845 C   0  0  0  0  0  0  0  0  0  0  0  0
    8.5652    1.5478   25.3778 N   0  0  0  0  0  0  0  0  0  0  0  0
    6.8048   -7.5457   17.8752 C   0  0  0  0  0  0  0  0  0  0  0  0
    6.1721   -8.2186   15.9886 N   0  0  0  0  0  0  0  0  0  0  0  0
   11.1764   -2.6600   19.5604 C   0  0  0  0  0  0  0  0  0  0  0  0
    9.5491   -0.6380   24.1912 C   0  0  0  0  0  0  0  0  0  0  0  0
    7.5337   -6.9256   16.9519 C   0  0  0  0  0  0  0  0  0  0  0  0
    9.6782    0.5671   23.5143 C   0  0  0  0  0  0  0  0  0  0  0  0
    8.4532    0.3482   26.0821 C   0  0  0  0  0  0  0  0  0  0  0  0
   10.4239   -1.7677   22.2230 N   0  0  0  0  0  0  0  0  0  0  0  0
    9.9468   -4.5953   20.1709 C   0  0  0  0  0  0  0  0  0  0  0  0
   10.0366   -3.0590   23.9864 N   0  0  0  0  0  0  0  0  0  0  0  0
    7.1191   -7.3636   15.7739 C   0  0  0  0  0  0  0  0  0  0  0  0
    5.9612   -8.3203   17.2732 N   0  0  0  0  0  0  0  0  0  0  0  0
    8.5296   -5.9814   17.1841 C   0  0  0  0  0  0  0  0  0  0  0  0
    9.1527   -5.2118   16.2116 C   0  0  0  0  0  0  0  0  0  0  0  0
   10.3364   -3.8368   22.9255 O   0  0  0  0  0  0  0  0  0  0  0  0
    9.6947   -4.8407   18.8534 C   0  0  0  0  0  0  0  0  0  0  0  0
    9.1596    1.7042   24.1381 C   0  0  0  0  0  0  0  0  0  0  0  0
   11.0456   -2.9774   18.2694 N   0  0  0  0  0  0  0  0  0  0  0  0
   10.4788   -3.0457   21.8593 C   0  0  0  0  0  0  0  0  0  0  0  0
    8.8693   -5.8099   18.4657 N   0  0  0  0  0  0  0  0  0  0  0  0
    8.9892   -0.7926   25.4573 C   0  0  0  0  0  0  0  0  0  0  0  0
   10.5677   -3.4462   20.5323 C   0  0  0  0  0  0  0  0  0  0  0  0
  1  8  1  0
  1 12  4  0
  1 14  4  0
  2  3  4  0
  2 18  4  0
  3 20  4  0
  3 22  4  0
  4 11  4  0
  4 21  4  0
  5  9  4  0
  5 16  4  0
  6 15  4  0
  6 16  4  0
  7 22  4  0
  7 26  4  0
  8 10  4  0
  8 25  4  0
  9 15  4  0
  9 17  1  0
 10 21  4  0
 11 25  4  0
 12 23  4  0
 13 20  4  0
 13 26  4  0
 14 19  4  0
 17 18  4  0
 17 24  4  0
 19 23  4  0
 20 24  4  0
 23 26  1  0
M  END
$$$$

 Created by Python create_sdf_string function

 26 30  0  0  0  0  0  0  0  0999 V2000
   10.0084   -1.8019   23.4945 C   0  0  0  0  0  0  0  0  0  0  0  0
   10.0005   -4.2520   16.5631 C   0  0  0  0  0  0  0  0  0  0  0  0
   10.2759   -4.0036   17.8845 C   0  0  0  0  0  0  0  0  0  0  0  0
    8.5652    1.5478   25.3778 N   0  0  0  0  0  0  0  0  0  0  0  0
    6.8048   -7.5457   17.8752 C   0  0  0  0  0  0  0  0  0  0  0  0
    6.1721   -8.2186   15.9886 N   0  0  0  0  0  0  0  0  0  0  0  0
   11.1764   -2.6600   19.5604 C   0  0  0  0  0  0  0  0  0  0  0  0
    9.5491   -0.6380   24.1912 C   0  0  0  0  0  0  0  0  0  0  0  0
    7.5337   -6.9256   16.9519 C   0  0  0  0  0  0  0  0  0  0  0  0
    9.6782    0.5671   23.5143 C   0  0  0  0  0  0  0  0  0  0  0  0
    8.4532    0.3482   26.0821 C   0  0  0  0  0  0  0  0  0  0  0  0
   10.4239   -1.7677   22.2230 N   0  0  0  0  0  0  0  0  0  0  0  0
    9.9468   -4.5953   20.1709 C   0  0  0  0  0  0  0  0  0  0  0  0
   10.0366   -3.0590   23.9864 N   0  0  0  0  0  0  0  0  0  0  0  0
    7.1191   -7.3636   15.7739 C   0  0  0  0  0  0  0  0  0  0  0  0
    5.9612   -8.3203   17.2732 N   0  0  0  0  0  0  0  0  0  0  0  0
    8.5296   -5.9814   17.1841 C   0  0  0  0  0  0  0  0  0  0  0  0
    9.1527   -5.2118   16.2116 C   0  0  0  0  0  0  0  0  0  0  0  0
   10.3364   -3.8368   22.9255 O   0  0  0  0  0  0  0  0  0  0  0  0
    9.6947   -4.8407   18.8534 C   0  0  0  0  0  0  0  0  0  0  0  0
    9.1596    1.7042   24.1381 C   0  0  0  0  0  0  0  0  0  0  0  0
   11.0456   -2.9774   18.2694 N   0  0  0  0  0  0  0  0  0  0  0  0
   10.4788   -3.0457   21.8593 C   0  0  0  0  0  0  0  0  0  0  0  0
    8.8693   -5.8099   18.4657 N   0  0  0  0  0  0  0  0  0  0  0  0
    8.9892   -0.7926   25.4573 C   0  0  0  0  0  0  0  0  0  0  0  0
   10.5677   -3.4462   20.5323 C   0  0  0  0  0  0  0  0  0  0  0  0
  1  8  1  0
  1 12  4  0
  1 14  4  0
  2  3  4  0
  2 18  4  0
  3 20  4  0
  3 22  4  0
  4 11  4  0
  4 21  4  0
  5  9  4  0
  5 16  4  0
  6 15  4  0
  6 16  4  0
  7 22  4  0
  7 26  4  0
  8 10  4  0
  8 25  4  0
  9 15  4  0
  9 17  1  0
 10 21  4  0
 11 25  4  0
 12 23  4  0
 13 20  4  0
 13 26  4  0
 14 19  4  0
 17 18  4  0
 17 24  4  0
 19 23  4  0
 20 24  4  0
 23 26  1  0
M  END
$$$$

 Created by Python create_sdf_string function

 26 30  0  0  0  0  0  0  0  0999 V2000
   10.0084   -1.8019   23.4945 C   0  0  0  0  0  0  0  0  0  0  0  0
   10.0005   -4.2520   16.5631 C   0  0  0  0  0  0  0  0  0  0  0  0
   10.2759   -4.0036   17.8845 C   0  0  0  0  0  0  0  0  0  0  0  0
    8.5652    1.5478   25.3778 N   0  0  0  0  0  0  0  0  0  0  0  0
    6.8048   -7.5457   17.8752 C   0  0  0  0  0  0  0  0  0  0  0  0
    6.1721   -8.2186   15.9886 N   0  0  0  0  0  0  0  0  0  0  0  0
   11.1764   -2.6600   19.5604 C   0  0  0  0  0  0  0  0  0  0  0  0
    9.5491   -0.6380   24.1912 C   0  0  0  0  0  0  0  0  0  0  0  0
    7.5337   -6.9256   16.9519 C   0  0  0  0  0  0  0  0  0  0  0  0
    9.6782    0.5671   23.5143 C   0  0  0  0  0  0  0  0  0  0  0  0
    8.4532    0.3482   26.0821 C   0  0  0  0  0  0  0  0  0  0  0  0
   10.4239   -1.7677   22.2230 N   0  0  0  0  0  0  0  0  0  0  0  0
    9.9468   -4.5953   20.1709 C   0  0  0  0  0  0  0  0  0  0  0  0
   10.0366   -3.0590   23.9864 N   0  0  0  0  0  0  0  0  0  0  0  0
    7.1191   -7.3636   15.7739 C   0  0  0  0  0  0  0  0  0  0  0  0
    5.9612   -8.3203   17.2732 N   0  0  0  0  0  0  0  0  0  0  0  0
    8.5296   -5.9814   17.1841 C   0  0  0  0  0  0  0  0  0  0  0  0
    9.1527   -5.2118   16.2116 C   0  0  0  0  0  0  0  0  0  0  0  0
   10.3364   -3.8368   22.9255 O   0  0  0  0  0  0  0  0  0  0  0  0
    9.6947   -4.8407   18.8534 C   0  0  0  0  0  0  0  0  0  0  0  0
    9.1596    1.7042   24.1381 C   0  0  0  0  0  0  0  0  0  0  0  0
   11.0456   -2.9774   18.2694 N   0  0  0  0  0  0  0  0  0  0  0  0
   10.4788   -3.0457   21.8593 C   0  0  0  0  0  0  0  0  0  0  0  0
    8.8693   -5.8099   18.4657 N   0  0  0  0  0  0  0  0  0  0  0  0
    8.9892   -0.7926   25.4573 C   0  0  0  0  0  0  0  0  0  0  0  0
   10.5677   -3.4462   20.5323 C   0  0  0  0  0  0  0  0  0  0  0  0
  1  8  1  0
  1 12  4  0
  1 14  4  0
  2  3  4  0
  2 18  4  0
  3 20  4  0
  3 22  4  0
  4 11  4  0
  4 21  4  0
  5  9  4  0
  5 16  4  0
  6 15  4  0
  6 16  4  0
  7 22  4  0
  7 26  4  0
  8 10  4  0
  8 25  4  0
  9 15  4  0
  9 17  1  0
 10 21  4  0
 11 25  4  0
 12 23  4  0
 13 20  4  0
 13 26  4  0
 14 19  4  0
 17 18  4  0
 17 24  4  0
 19 23  4  0
 20 24  4  0
 23 26  1  0
M  END
$$$$

 Created by Python create_sdf_string function

 26 30  0  0  0  0  0  0  0  0999 V2000
   10.0084   -1.8019   23.4945 C   0  0  0  0  0  0  0  0  0  0  0  0
   10.0005   -4.2520   16.5631 C   0  0  0  0  0  0  0  0  0  0  0  0
   10.2759   -4.0036   17.8845 C   0  0  0  0  0  0  0  0  0  0  0  0
    8.5652    1.5478   25.3778 N   0  0  0  0  0  0  0  0  0  0  0  0
    6.8048   -7.5457   17.8752 C   0  0  0  0  0  0  0  0  0  0  0  0
    6.1721   -8.2186   15.9886 N   0  0  0  0  0  0  0  0  0  0  0  0
   11.1764   -2.6600   19.5604 C   0  0  0  0  0  0  0  0  0  0  0  0
    9.5491   -0.6380   24.1912 C   0  0  0  0  0  0  0  0  0  0  0  0
    7.5337   -6.9256   16.9519 C   0  0  0  0  0  0  0  0  0  0  0  0
    9.6782    0.5671   23.5143 C   0  0  0  0  0  0  0  0  0  0  0  0
    8.4532    0.3482   26.0821 C   0  0  0  0  0  0  0  0  0  0  0  0
   10.4239   -1.7677   22.2230 N   0  0  0  0  0  0  0  0  0  0  0  0
    9.9468   -4.5953   20.1709 C   0  0  0  0  0  0  0  0  0  0  0  0
   10.0366   -3.0590   23.9864 N   0  0  0  0  0  0  0  0  0  0  0  0
    7.1191   -7.3636   15.7739 C   0  0  0  0  0  0  0  0  0  0  0  0
    5.9612   -8.3203   17.2732 N   0  0  0  0  0  0  0  0  0  0  0  0
    8.5296   -5.9814   17.1841 C   0  0  0  0  0  0  0  0  0  0  0  0
    9.1527   -5.2118   16.2116 C   0  0  0  0  0  0  0  0  0  0  0  0
   10.3364   -3.8368   22.9255 O   0  0  0  0  0  0  0  0  0  0  0  0
    9.6947   -4.8407   18.8534 C   0  0  0  0  0  0  0  0  0  0  0  0
    9.1596    1.7042   24.1381 C   0  0  0  0  0  0  0  0  0  0  0  0
   11.0456   -2.9774   18.2694 N   0  0  0  0  0  0  0  0  0  0  0  0
   10.4788   -3.0457   21.8593 C   0  0  0  0  0  0  0  0  0  0  0  0
    8.8693   -5.8099   18.4657 N   0  0  0  0  0  0  0  0  0  0  0  0
    8.9892   -0.7926   25.4573 C   0  0  0  0  0  0  0  0  0  0  0  0
   10.5677   -3.4462   20.5323 C   0  0  0  0  0  0  0  0  0  0  0  0
  1  8  1  0
  1 12  4  0
  1 14  4  0
  2  3  4  0
  2 18  4  0
  3 20  4  0
  3 22  4  0
  4 11  4  0
  4 21  4  0
  5  9  4  0
  5 16  4  0
  6 15  4  0
  6 16  4  0
  7 22  4  0
  7 26  4  0
  8 10  4  0
  8 25  4  0
  9 15  4  0
  9 17  1  0
 10 21  4  0
 11 25  4  0
 12 23  4  0
 13 20  4  0
 13 26  4  0
 14 19  4  0
 17 18  4  0
 17 24  4  0
 19 23  4  0
 20 24  4  0
 23 26  1  0
M  END
$$$$

 Created by Python create_sdf_string function

 26 30  0  0  0  0  0  0  0  0999 V2000
   10.0084   -1.8019   23.4945 C   0  0  0  0  0  0  0  0  0  0  0  0
   10.0005   -4.2520   16.5631 C   0  0  0  0  0  0  0  0  0  0  0  0
   10.2759   -4.0036   17.8845 C   0  0  0  0  0  0  0  0  0  0  0  0
    8.5652    1.5478   25.3778 N   0  0  0  0  0  0  0  0  0  0  0  0
    6.8048   -7.5457   17.8752 C   0  0  0  0  0  0  0  0  0  0  0  0
    6.1721   -8.2186   15.9886 N   0  0  0  0  0  0  0  0  0  0  0  0
   11.1764   -2.6600   19.5604 C   0  0  0  0  0  0  0  0  0  0  0  0
    9.5491   -0.6380   24.1912 C   0  0  0  0  0  0  0  0  0  0  0  0
    7.5337   -6.9256   16.9519 C   0  0  0  0  0  0  0  0  0  0  0  0
    9.6782    0.5671   23.5143 C   0  0  0  0  0  0  0  0  0  0  0  0
    8.4532    0.3482   26.0821 C   0  0  0  0  0  0  0  0  0  0  0  0
   10.4239   -1.7677   22.2230 N   0  0  0  0  0  0  0  0  0  0  0  0
    9.9468   -4.5953   20.1709 C   0  0  0  0  0  0  0  0  0  0  0  0
   10.0366   -3.0590   23.9864 N   0  0  0  0  0  0  0  0  0  0  0  0
    7.1191   -7.3636   15.7739 C   0  0  0  0  0  0  0  0  0  0  0  0
    5.9612   -8.3203   17.2732 N   0  0  0  0  0  0  0  0  0  0  0  0
    8.5296   -5.9814   17.1841 C   0  0  0  0  0  0  0  0  0  0  0  0
    9.1527   -5.2118   16.2116 C   0  0  0  0  0  0  0  0  0  0  0  0
   10.3364   -3.8368   22.9255 O   0  0  0  0  0  0  0  0  0  0  0  0
    9.6947   -4.8407   18.8534 C   0  0  0  0  0  0  0  0  0  0  0  0
    9.1596    1.7042   24.1381 C   0  0  0  0  0  0  0  0  0  0  0  0
   11.0456   -2.9774   18.2694 N   0  0  0  0  0  0  0  0  0  0  0  0
   10.4788   -3.0457   21.8593 C   0  0  0  0  0  0  0  0  0  0  0  0
    8.8693   -5.8099   18.4657 N   0  0  0  0  0  0  0  0  0  0  0  0
    8.9892   -0.7926   25.4573 C   0  0  0  0  0  0  0  0  0  0  0  0
   10.5677   -3.4462   20.5323 C   0  0  0  0  0  0  0  0  0  0  0  0
  1  8  1  0
  1 12  4  0
  1 14  4  0
  2  3  4  0
  2 18  4  0
  3 20  4  0
  3 22  4  0
  4 11  4  0
  4 21  4  0
  5  9  4  0
  5 16  4  0
  6 15  4  0
  6 16  4  0
  7 22  4  0
  7 26  4  0
  8 10  4  0
  8 25  4  0
  9 15  4  0
  9 17  1  0
 10 21  4  0
 11 25  4  0
 12 23  4  0
 13 20  4  0
 13 26  4  0
 14 19  4  0
 17 18  4  0
 17 24  4  0
 19 23  4  0
 20 24  4  0
 23 26  1  0
M  END
$$$$

 Created by Python create_sdf_string function

 26 30  0  0  0  0  0  0  0  0999 V2000
   10.0084   -1.8019   23.4945 C   0  0  0  0  0  0  0  0  0  0  0  0
   10.0005   -4.2520   16.5631 C   0  0  0  0  0  0  0  0  0  0  0  0
   10.2759   -4.0036   17.8845 C   0  0  0  0  0  0  0  0  0  0  0  0
    8.5652    1.5478   25.3778 N   0  0  0  0  0  0  0  0  0  0  0  0
    6.8048   -7.5457   17.8752 C   0  0  0  0  0  0  0  0  0  0  0  0
    6.1721   -8.2186   15.9886 N   0  0  0  0  0  0  0  0  0  0  0  0
   11.1764   -2.6600   19.5604 C   0  0  0  0  0  0  0  0  0  0  0  0
    9.5491   -0.6380   24.1912 C   0  0  0  0  0  0  0  0  0  0  0  0
    7.5337   -6.9256   16.9519 C   0  0  0  0  0  0  0  0  0  0  0  0
    9.6782    0.5671   23.5143 C   0  0  0  0  0  0  0  0  0  0  0  0
    8.4532    0.3482   26.0821 C   0  0  0  0  0  0  0  0  0  0  0  0
   10.4239   -1.7677   22.2230 N   0  0  0  0  0  0  0  0  0  0  0  0
    9.9468   -4.5953   20.1709 C   0  0  0  0  0  0  0  0  0  0  0  0
   10.0366   -3.0590   23.9864 N   0  0  0  0  0  0  0  0  0  0  0  0
    7.1191   -7.3636   15.7739 C   0  0  0  0  0  0  0  0  0  0  0  0
    5.9612   -8.3203   17.2732 N   0  0  0  0  0  0  0  0  0  0  0  0
    8.5296   -5.9814   17.1841 C   0  0  0  0  0  0  0  0  0  0  0  0
    9.1527   -5.2118   16.2116 C   0  0  0  0  0  0  0  0  0  0  0  0
   10.3364   -3.8368   22.9255 O   0  0  0  0  0  0  0  0  0  0  0  0
    9.6947   -4.8407   18.8534 C   0  0  0  0  0  0  0  0  0  0  0  0
    9.1596    1.7042   24.1381 C   0  0  0  0  0  0  0  0  0  0  0  0
   11.0456   -2.9774   18.2694 N   0  0  0  0  0  0  0  0  0  0  0  0
   10.4788   -3.0457   21.8593 C   0  0  0  0  0  0  0  0  0  0  0  0
    8.8693   -5.8099   18.4657 N   0  0  0  0  0  0  0  0  0  0  0  0
    8.9892   -0.7926   25.4573 C   0  0  0  0  0  0  0  0  0  0  0  0
   10.5677   -3.4462   20.5323 C   0  0  0  0  0  0  0  0  0  0  0  0
  1  8  1  0
  1 12  4  0
  1 14  4  0
  2  3  4  0
  2 18  4  0
  3 20  4  0
  3 22  4  0
  4 11  4  0
  4 21  4  0
  5  9  4  0
  5 16  4  0
  6 15  4  0
  6 16  4  0
  7 22  4  0
  7 26  4  0
  8 10  4  0
  8 25  4  0
  9 15  4  0
  9 17  1  0
 10 21  4  0
 11 25  4  0
 12 23  4  0
 13 20  4  0
 13 26  4  0
 14 19  4  0
 17 18  4  0
 17 24  4  0
 19 23  4  0
 20 24  4  0
 23 26  1  0
M  END
$$$$

 Created by Python create_sdf_string function

 26 30  0  0  0  0  0  0  0  0999 V2000
   10.0084   -1.8019   23.4945 C   0  0  0  0  0  0  0  0  0  0  0  0
   10.0005   -4.2520   16.5631 C   0  0  0  0  0  0  0  0  0  0  0  0
   10.2759   -4.0036   17.8845 C   0  0  0  0  0  0  0  0  0  0  0  0
    8.5652    1.5478   25.3778 N   0  0  0  0  0  0  0  0  0  0  0  0
    6.8048   -7.5457   17.8752 C   0  0  0  0  0  0  0  0  0  0  0  0
    6.1721   -8.2186   15.9886 N   0  0  0  0  0  0  0  0  0  0  0  0
   11.1764   -2.6600   19.5604 C   0  0  0  0  0  0  0  0  0  0  0  0
    9.5491   -0.6380   24.1912 C   0  0  0  0  0  0  0  0  0  0  0  0
    7.5337   -6.9256   16.9519 C   0  0  0  0  0  0  0  0  0  0  0  0
    9.6782    0.5671   23.5143 C   0  0  0  0  0  0  0  0  0  0  0  0
    8.4532    0.3482   26.0821 C   0  0  0  0  0  0  0  0  0  0  0  0
   10.4239   -1.7677   22.2230 N   0  0  0  0  0  0  0  0  0  0  0  0
    9.9468   -4.5953   20.1709 C   0  0  0  0  0  0  0  0  0  0  0  0
   10.0366   -3.0590   23.9864 N   0  0  0  0  0  0  0  0  0  0  0  0
    7.1191   -7.3636   15.7739 C   0  0  0  0  0  0  0  0  0  0  0  0
    5.9612   -8.3203   17.2732 N   0  0  0  0  0  0  0  0  0  0  0  0
    8.5296   -5.9814   17.1841 C   0  0  0  0  0  0  0  0  0  0  0  0
    9.1527   -5.2118   16.2116 C   0  0  0  0  0  0  0  0  0  0  0  0
   10.3364   -3.8368   22.9255 O   0  0  0  0  0  0  0  0  0  0  0  0
    9.6947   -4.8407   18.8534 C   0  0  0  0  0  0  0  0  0  0  0  0
    9.1596    1.7042   24.1381 C   0  0  0  0  0  0  0  0  0  0  0  0
   11.0456   -2.9774   18.2694 N   0  0  0  0  0  0  0  0  0  0  0  0
   10.4788   -3.0457   21.8593 C   0  0  0  0  0  0  0  0  0  0  0  0
    8.8693   -5.8099   18.4657 N   0  0  0  0  0  0  0  0  0  0  0  0
    8.9892   -0.7926   25.4573 C   0  0  0  0  0  0  0  0  0  0  0  0
   10.5677   -3.4462   20.5323 C   0  0  0  0  0  0  0  0  0  0  0  0
  1  8  1  0
  1 12  4  0
  1 14  4  0
  2  3  4  0
  2 18  4  0
  3 20  4  0
  3 22  4  0
  4 11  4  0
  4 21  4  0
  5  9  4  0
  5 16  4  0
  6 15  4  0
  6 16  4  0
  7 22  4  0
  7 26  4  0
  8 10  4  0
  8 25  4  0
  9 15  4  0
  9 17  1  0
 10 21  4  0
 11 25  4  0
 12 23  4  0
 13 20  4  0
 13 26  4  0
 14 19  4  0
 17 18  4  0
 17 24  4  0
 19 23  4  0
 20 24  4  0
 23 26  1  0
M  END
$$$$

 Created by Python create_sdf_string function

 26 30  0  0  0  0  0  0  0  0999 V2000
   10.0084   -1.8019   23.4945 C   0  0  0  0  0  0  0  0  0  0  0  0
   10.0005   -4.2520   16.5631 C   0  0  0  0  0  0  0  0  0  0  0  0
   10.2759   -4.0036   17.8845 C   0  0  0  0  0  0  0  0  0  0  0  0
    8.5652    1.5478   25.3778 N   0  0  0  0  0  0  0  0  0  0  0  0
    6.8048   -7.5457   17.8752 C   0  0  0  0  0  0  0  0  0  0  0  0
    6.1721   -8.2186   15.9886 N   0  0  0  0  0  0  0  0  0  0  0  0
   11.1764   -2.6600   19.5604 C   0  0  0  0  0  0  0  0  0  0  0  0
    9.5491   -0.6380   24.1912 C   0  0  0  0  0  0  0  0  0  0  0  0
    7.5337   -6.9256   16.9519 C   0  0  0  0  0  0  0  0  0  0  0  0
    9.6782    0.5671   23.5143 C   0  0  0  0  0  0  0  0  0  0  0  0
    8.4532    0.3482   26.0821 C   0  0  0  0  0  0  0  0  0  0  0  0
   10.4239   -1.7677   22.2230 N   0  0  0  0  0  0  0  0  0  0  0  0
    9.9468   -4.5953   20.1709 C   0  0  0  0  0  0  0  0  0  0  0  0
   10.0366   -3.0590   23.9864 N   0  0  0  0  0  0  0  0  0  0  0  0
    7.1191   -7.3636   15.7739 C   0  0  0  0  0  0  0  0  0  0  0  0
    5.9612   -8.3203   17.2732 N   0  0  0  0  0  0  0  0  0  0  0  0
    8.5296   -5.9814   17.1841 C   0  0  0  0  0  0  0  0  0  0  0  0
    9.1527   -5.2118   16.2116 C   0  0  0  0  0  0  0  0  0  0  0  0
   10.3364   -3.8368   22.9255 O   0  0  0  0  0  0  0  0  0  0  0  0
    9.6947   -4.8407   18.8534 C   0  0  0  0  0  0  0  0  0  0  0  0
    9.1596    1.7042   24.1381 C   0  0  0  0  0  0  0  0  0  0  0  0
   11.0456   -2.9774   18.2694 N   0  0  0  0  0  0  0  0  0  0  0  0
   10.4788   -3.0457   21.8593 C   0  0  0  0  0  0  0  0  0  0  0  0
    8.8693   -5.8099   18.4657 N   0  0  0  0  0  0  0  0  0  0  0  0
    8.9892   -0.7926   25.4573 C   0  0  0  0  0  0  0  0  0  0  0  0
   10.5677   -3.4462   20.5323 C   0  0  0  0  0  0  0  0  0  0  0  0
  1  8  1  0
  1 12  4  0
  1 14  4  0
  2  3  4  0
  2 18  4  0
  3 20  4  0
  3 22  4  0
  4 11  4  0
  4 21  4  0
  5  9  4  0
  5 16  4  0
  6 15  4  0
  6 16  4  0
  7 22  4  0
  7 26  4  0
  8 10  4  0
  8 25  4  0
  9 15  4  0
  9 17  1  0
 10 21  4  0
 11 25  4  0
 12 23  4  0
 13 20  4  0
 13 26  4  0
 14 19  4  0
 17 18  4  0
 17 24  4  0
 19 23  4  0
 20 24  4  0
 23 26  1  0
M  END
$$$$

 Created by Python create_sdf_string function

 26 30  0  0  0  0  0  0  0  0999 V2000
   10.0084   -1.8019   23.4945 C   0  0  0  0  0  0  0  0  0  0  0  0
   10.0005   -4.2520   16.5631 C   0  0  0  0  0  0  0  0  0  0  0  0
   10.2759   -4.0036   17.8845 C   0  0  0  0  0  0  0  0  0  0  0  0
    8.5652    1.5478   25.3778 N   0  0  0  0  0  0  0  0  0  0  0  0
    6.8048   -7.5457   17.8752 C   0  0  0  0  0  0  0  0  0  0  0  0
    6.1721   -8.2186   15.9886 N   0  0  0  0  0  0  0  0  0  0  0  0
   11.1764   -2.6600   19.5604 C   0  0  0  0  0  0  0  0  0  0  0  0
    9.5491   -0.6380   24.1912 C   0  0  0  0  0  0  0  0  0  0  0  0
    7.5337   -6.9256   16.9519 C   0  0  0  0  0  0  0  0  0  0  0  0
    9.6782    0.5671   23.5143 C   0  0  0  0  0  0  0  0  0  0  0  0
    8.4532    0.3482   26.0821 C   0  0  0  0  0  0  0  0  0  0  0  0
   10.4239   -1.7677   22.2230 N   0  0  0  0  0  0  0  0  0  0  0  0
    9.9468   -4.5953   20.1709 C   0  0  0  0  0  0  0  0  0  0  0  0
   10.0366   -3.0590   23.9864 N   0  0  0  0  0  0  0  0  0  0  0  0
    7.1191   -7.3636   15.7739 C   0  0  0  0  0  0  0  0  0  0  0  0
    5.9612   -8.3203   17.2732 N   0  0  0  0  0  0  0  0  0  0  0  0
    8.5296   -5.9814   17.1841 C   0  0  0  0  0  0  0  0  0  0  0  0
    9.1527   -5.2118   16.2116 C   0  0  0  0  0  0  0  0  0  0  0  0
   10.3364   -3.8368   22.9255 O   0  0  0  0  0  0  0  0  0  0  0  0
    9.6947   -4.8407   18.8534 C   0  0  0  0  0  0  0  0  0  0  0  0
    9.1596    1.7042   24.1381 C   0  0  0  0  0  0  0  0  0  0  0  0
   11.0456   -2.9774   18.2694 N   0  0  0  0  0  0  0  0  0  0  0  0
   10.4788   -3.0457   21.8593 C   0  0  0  0  0  0  0  0  0  0  0  0
    8.8693   -5.8099   18.4657 N   0  0  0  0  0  0  0  0  0  0  0  0
    8.9892   -0.7926   25.4573 C   0  0  0  0  0  0  0  0  0  0  0  0
   10.5677   -3.4462   20.5323 C   0  0  0  0  0  0  0  0  0  0  0  0
  1  8  1  0
  1 12  4  0
  1 14  4  0
  2  3  4  0
  2 18  4  0
  3 20  4  0
  3 22  4  0
  4 11  4  0
  4 21  4  0
  5  9  4  0
  5 16  4  0
  6 15  4  0
  6 16  4  0
  7 22  4  0
  7 26  4  0
  8 10  4  0
  8 25  4  0
  9 15  4  0
  9 17  1  0
 10 21  4  0
 11 25  4  0
 12 23  4  0
 13 20  4  0
 13 26  4  0
 14 19  4  0
 17 18  4  0
 17 24  4  0
 19 23  4  0
 20 24  4  0
 23 26  1  0
M  END
$$$$

 Created by Python create_sdf_string function

 26 30  0  0  0  0  0  0  0  0999 V2000
   10.0084   -1.8019   23.4945 C   0  0  0  0  0  0  0  0  0  0  0  0
   10.0005   -4.2520   16.5631 C   0  0  0  0  0  0  0  0  0  0  0  0
   10.2759   -4.0036   17.8845 C   0  0  0  0  0  0  0  0  0  0  0  0
    8.5652    1.5478   25.3778 N   0  0  0  0  0  0  0  0  0  0  0  0
    6.8048   -7.5457   17.8752 C   0  0  0  0  0  0  0  0  0  0  0  0
    6.1721   -8.2186   15.9886 N   0  0  0  0  0  0  0  0  0  0  0  0
   11.1764   -2.6600   19.5604 C   0  0  0  0  0  0  0  0  0  0  0  0
    9.5491   -0.6380   24.1912 C   0  0  0  0  0  0  0  0  0  0  0  0
    7.5337   -6.9256   16.9519 C   0  0  0  0  0  0  0  0  0  0  0  0
    9.6782    0.5671   23.5143 C   0  0  0  0  0  0  0  0  0  0  0  0
    8.4532    0.3482   26.0821 C   0  0  0  0  0  0  0  0  0  0  0  0
   10.4239   -1.7677   22.2230 N   0  0  0  0  0  0  0  0  0  0  0  0
    9.9468   -4.5953   20.1709 C   0  0  0  0  0  0  0  0  0  0  0  0
   10.0366   -3.0590   23.9864 N   0  0  0  0  0  0  0  0  0  0  0  0
    7.1191   -7.3636   15.7739 C   0  0  0  0  0  0  0  0  0  0  0  0
    5.9612   -8.3203   17.2732 N   0  0  0  0  0  0  0  0  0  0  0  0
    8.5296   -5.9814   17.1841 C   0  0  0  0  0  0  0  0  0  0  0  0
    9.1527   -5.2118   16.2116 C   0  0  0  0  0  0  0  0  0  0  0  0
   10.3364   -3.8368   22.9255 O   0  0  0  0  0  0  0  0  0  0  0  0
    9.6947   -4.8407   18.8534 C   0  0  0  0  0  0  0  0  0  0  0  0
    9.1596    1.7042   24.1381 C   0  0  0  0  0  0  0  0  0  0  0  0
   11.0456   -2.9774   18.2694 N   0  0  0  0  0  0  0  0  0  0  0  0
   10.4788   -3.0457   21.8593 C   0  0  0  0  0  0  0  0  0  0  0  0
    8.8693   -5.8099   18.4657 N   0  0  0  0  0  0  0  0  0  0  0  0
    8.9892   -0.7926   25.4573 C   0  0  0  0  0  0  0  0  0  0  0  0
   10.5677   -3.4462   20.5323 C   0  0  0  0  0  0  0  0  0  0  0  0
  1  8  1  0
  1 12  4  0
  1 14  4  0
  2  3  4  0
  2 18  4  0
  3 20  4  0
  3 22  4  0
  4 11  4  0
  4 21  4  0
  5  9  4  0
  5 16  4  0
  6 15  4  0
  6 16  4  0
  7 22  4  0
  7 26  4  0
  8 10  4  0
  8 25  4  0
  9 15  4  0
  9 17  1  0
 10 21  4  0
 11 25  4  0
 12 23  4  0
 13 20  4  0
 13 26  4  0
 14 19  4  0
 17 18  4  0
 17 24  4  0
 19 23  4  0
 20 24  4  0
 23 26  1  0
M  END
$$$$

 Created by Python create_sdf_string function

 26 30  0  0  0  0  0  0  0  0999 V2000
   10.0084   -1.8019   23.4945 C   0  0  0  0  0  0  0  0  0  0  0  0
   10.0005   -4.2520   16.5631 C   0  0  0  0  0  0  0  0  0  0  0  0
   10.2759   -4.0036   17.8845 C   0  0  0  0  0  0  0  0  0  0  0  0
    8.5652    1.5478   25.3778 N   0  0  0  0  0  0  0  0  0  0  0  0
    6.8048   -7.5457   17.8752 C   0  0  0  0  0  0  0  0  0  0  0  0
    6.1721   -8.2186   15.9886 N   0  0  0  0  0  0  0  0  0  0  0  0
   11.1764   -2.6600   19.5604 C   0  0  0  0  0  0  0  0  0  0  0  0
    9.5491   -0.6380   24.1912 C   0  0  0  0  0  0  0  0  0  0  0  0
    7.5337   -6.9256   16.9519 C   0  0  0  0  0  0  0  0  0  0  0  0
    9.6782    0.5671   23.5143 C   0  0  0  0  0  0  0  0  0  0  0  0
    8.4532    0.3482   26.0821 C   0  0  0  0  0  0  0  0  0  0  0  0
   10.4239   -1.7677   22.2230 N   0  0  0  0  0  0  0  0  0  0  0  0
    9.9468   -4.5953   20.1709 C   0  0  0  0  0  0  0  0  0  0  0  0
   10.0366   -3.0590   23.9864 N   0  0  0  0  0  0  0  0  0  0  0  0
    7.1191   -7.3636   15.7739 C   0  0  0  0  0  0  0  0  0  0  0  0
    5.9612   -8.3203   17.2732 N   0  0  0  0  0  0  0  0  0  0  0  0
    8.5296   -5.9814   17.1841 C   0  0  0  0  0  0  0  0  0  0  0  0
    9.1527   -5.2118   16.2116 C   0  0  0  0  0  0  0  0  0  0  0  0
   10.3364   -3.8368   22.9255 O   0  0  0  0  0  0  0  0  0  0  0  0
    9.6947   -4.8407   18.8534 C   0  0  0  0  0  0  0  0  0  0  0  0
    9.1596    1.7042   24.1381 C   0  0  0  0  0  0  0  0  0  0  0  0
   11.0456   -2.9774   18.2694 N   0  0  0  0  0  0  0  0  0  0  0  0
   10.4788   -3.0457   21.8593 C   0  0  0  0  0  0  0  0  0  0  0  0
    8.8693   -5.8099   18.4657 N   0  0  0  0  0  0  0  0  0  0  0  0
    8.9892   -0.7926   25.4573 C   0  0  0  0  0  0  0  0  0  0  0  0
   10.5677   -3.4462   20.5323 C   0  0  0  0  0  0  0  0  0  0  0  0
  1  8  1  0
  1 12  4  0
  1 14  4  0
  2  3  4  0
  2 18  4  0
  3 20  4  0
  3 22  4  0
  4 11  4  0
  4 21  4  0
  5  9  4  0
  5 16  4  0
  6 15  4  0
  6 16  4  0
  7 22  4  0
  7 26  4  0
  8 10  4  0
  8 25  4  0
  9 15  4  0
  9 17  1  0
 10 21  4  0
 11 25  4  0
 12 23  4  0
 13 20  4  0
 13 26  4  0
 14 19  4  0
 17 18  4  0
 17 24  4  0
 19 23  4  0
 20 24  4  0
 23 26  1  0
M  END
$$$$

 Created by Python create_sdf_string function

 26 30  0  0  0  0  0  0  0  0999 V2000
   10.0084   -1.8019   23.4945 C   0  0  0  0  0  0  0  0  0  0  0  0
   10.0005   -4.2520   16.5631 C   0  0  0  0  0  0  0  0  0  0  0  0
   10.2759   -4.0036   17.8845 C   0  0  0  0  0  0  0  0  0  0  0  0
    8.5652    1.5478   25.3778 N   0  0  0  0  0  0  0  0  0  0  0  0
    6.8048   -7.5457   17.8752 C   0  0  0  0  0  0  0  0  0  0  0  0
    6.1721   -8.2186   15.9886 N   0  0  0  0  0  0  0  0  0  0  0  0
   11.1764   -2.6600   19.5604 C   0  0  0  0  0  0  0  0  0  0  0  0
    9.5491   -0.6380   24.1912 C   0  0  0  0  0  0  0  0  0  0  0  0
    7.5337   -6.9256   16.9519 C   0  0  0  0  0  0  0  0  0  0  0  0
    9.6782    0.5671   23.5143 C   0  0  0  0  0  0  0  0  0  0  0  0
    8.4532    0.3482   26.0821 C   0  0  0  0  0  0  0  0  0  0  0  0
   10.4239   -1.7677   22.2230 N   0  0  0  0  0  0  0  0  0  0  0  0
    9.9468   -4.5953   20.1709 C   0  0  0  0  0  0  0  0  0  0  0  0
   10.0366   -3.0590   23.9864 N   0  0  0  0  0  0  0  0  0  0  0  0
    7.1191   -7.3636   15.7739 C   0  0  0  0  0  0  0  0  0  0  0  0
    5.9612   -8.3203   17.2732 N   0  0  0  0  0  0  0  0  0  0  0  0
    8.5296   -5.9814   17.1841 C   0  0  0  0  0  0  0  0  0  0  0  0
    9.1527   -5.2118   16.2116 C   0  0  0  0  0  0  0  0  0  0  0  0
   10.3364   -3.8368   22.9255 O   0  0  0  0  0  0  0  0  0  0  0  0
    9.6947   -4.8407   18.8534 C   0  0  0  0  0  0  0  0  0  0  0  0
    9.1596    1.7042   24.1381 C   0  0  0  0  0  0  0  0  0  0  0  0
   11.0456   -2.9774   18.2694 N   0  0  0  0  0  0  0  0  0  0  0  0
   10.4788   -3.0457   21.8593 C   0  0  0  0  0  0  0  0  0  0  0  0
    8.8693   -5.8099   18.4657 N   0  0  0  0  0  0  0  0  0  0  0  0
    8.9892   -0.7926   25.4573 C   0  0  0  0  0  0  0  0  0  0  0  0
   10.5677   -3.4462   20.5323 C   0  0  0  0  0  0  0  0  0  0  0  0
  1  8  1  0
  1 12  4  0
  1 14  4  0
  2  3  4  0
  2 18  4  0
  3 20  4  0
  3 22  4  0
  4 11  4  0
  4 21  4  0
  5  9  4  0
  5 16  4  0
  6 15  4  0
  6 16  4  0
  7 22  4  0
  7 26  4  0
  8 10  4  0
  8 25  4  0
  9 15  4  0
  9 17  1  0
 10 21  4  0
 11 25  4  0
 12 23  4  0
 13 20  4  0
 13 26  4  0
 14 19  4  0
 17 18  4  0
 17 24  4  0
 19 23  4  0
 20 24  4  0
 23 26  1  0
M  END
$$$$

 Created by Python create_sdf_string function

 26 30  0  0  0  0  0  0  0  0999 V2000
   10.0084   -1.8019   23.4945 C   0  0  0  0  0  0  0  0  0  0  0  0
   10.0005   -4.2520   16.5631 C   0  0  0  0  0  0  0  0  0  0  0  0
   10.2759   -4.0036   17.8845 C   0  0  0  0  0  0  0  0  0  0  0  0
    8.5652    1.5478   25.3778 N   0  0  0  0  0  0  0  0  0  0  0  0
    6.8048   -7.5457   17.8752 C   0  0  0  0  0  0  0  0  0  0  0  0
    6.1721   -8.2186   15.9886 N   0  0  0  0  0  0  0  0  0  0  0  0
   11.1764   -2.6600   19.5604 C   0  0  0  0  0  0  0  0  0  0  0  0
    9.5491   -0.6380   24.1912 C   0  0  0  0  0  0  0  0  0  0  0  0
    7.5337   -6.9256   16.9519 C   0  0  0  0  0  0  0  0  0  0  0  0
    9.6782    0.5671   23.5143 C   0  0  0  0  0  0  0  0  0  0  0  0
    8.4532    0.3482   26.0821 C   0  0  0  0  0  0  0  0  0  0  0  0
   10.4239   -1.7677   22.2230 N   0  0  0  0  0  0  0  0  0  0  0  0
    9.9468   -4.5953   20.1709 C   0  0  0  0  0  0  0  0  0  0  0  0
   10.0366   -3.0590   23.9864 N   0  0  0  0  0  0  0  0  0  0  0  0
    7.1191   -7.3636   15.7739 C   0  0  0  0  0  0  0  0  0  0  0  0
    5.9612   -8.3203   17.2732 N   0  0  0  0  0  0  0  0  0  0  0  0
    8.5296   -5.9814   17.1841 C   0  0  0  0  0  0  0  0  0  0  0  0
    9.1527   -5.2118   16.2116 C   0  0  0  0  0  0  0  0  0  0  0  0
   10.3364   -3.8368   22.9255 O   0  0  0  0  0  0  0  0  0  0  0  0
    9.6947   -4.8407   18.8534 C   0  0  0  0  0  0  0  0  0  0  0  0
    9.1596    1.7042   24.1381 C   0  0  0  0  0  0  0  0  0  0  0  0
   11.0456   -2.9774   18.2694 N   0  0  0  0  0  0  0  0  0  0  0  0
   10.4788   -3.0457   21.8593 C   0  0  0  0  0  0  0  0  0  0  0  0
    8.8693   -5.8099   18.4657 N   0  0  0  0  0  0  0  0  0  0  0  0
    8.9892   -0.7926   25.4573 C   0  0  0  0  0  0  0  0  0  0  0  0
   10.5677   -3.4462   20.5323 C   0  0  0  0  0  0  0  0  0  0  0  0
  1  8  1  0
  1 12  4  0
  1 14  4  0
  2  3  4  0
  2 18  4  0
  3 20  4  0
  3 22  4  0
  4 11  4  0
  4 21  4  0
  5  9  4  0
  5 16  4  0
  6 15  4  0
  6 16  4  0
  7 22  4  0
  7 26  4  0
  8 10  4  0
  8 25  4  0
  9 15  4  0
  9 17  1  0
 10 21  4  0
 11 25  4  0
 12 23  4  0
 13 20  4  0
 13 26  4  0
 14 19  4  0
 17 18  4  0
 17 24  4  0
 19 23  4  0
 20 24  4  0
 23 26  1  0
M  END
$$$$

 Created by Python create_sdf_string function

 26 30  0  0  0  0  0  0  0  0999 V2000
   10.0084   -1.8019   23.4945 C   0  0  0  0  0  0  0  0  0  0  0  0
   10.0005   -4.2520   16.5631 C   0  0  0  0  0  0  0  0  0  0  0  0
   10.2759   -4.0036   17.8845 C   0  0  0  0  0  0  0  0  0  0  0  0
    8.5652    1.5478   25.3778 N   0  0  0  0  0  0  0  0  0  0  0  0
    6.8048   -7.5457   17.8752 C   0  0  0  0  0  0  0  0  0  0  0  0
    6.1721   -8.2186   15.9886 N   0  0  0  0  0  0  0  0  0  0  0  0
   11.1764   -2.6600   19.5604 C   0  0  0  0  0  0  0  0  0  0  0  0
    9.5491   -0.6380   24.1912 C   0  0  0  0  0  0  0  0  0  0  0  0
    7.5337   -6.9256   16.9519 C   0  0  0  0  0  0  0  0  0  0  0  0
    9.6782    0.5671   23.5143 C   0  0  0  0  0  0  0  0  0  0  0  0
    8.4532    0.3482   26.0821 C   0  0  0  0  0  0  0  0  0  0  0  0
   10.4239   -1.7677   22.2230 N   0  0  0  0  0  0  0  0  0  0  0  0
    9.9468   -4.5953   20.1709 C   0  0  0  0  0  0  0  0  0  0  0  0
   10.0366   -3.0590   23.9864 N   0  0  0  0  0  0  0  0  0  0  0  0
    7.1191   -7.3636   15.7739 C   0  0  0  0  0  0  0  0  0  0  0  0
    5.9612   -8.3203   17.2732 N   0  0  0  0  0  0  0  0  0  0  0  0
    8.5296   -5.9814   17.1841 C   0  0  0  0  0  0  0  0  0  0  0  0
    9.1527   -5.2118   16.2116 C   0  0  0  0  0  0  0  0  0  0  0  0
   10.3364   -3.8368   22.9255 O   0  0  0  0  0  0  0  0  0  0  0  0
    9.6947   -4.8407   18.8534 C   0  0  0  0  0  0  0  0  0  0  0  0
    9.1596    1.7042   24.1381 C   0  0  0  0  0  0  0  0  0  0  0  0
   11.0456   -2.9774   18.2694 N   0  0  0  0  0  0  0  0  0  0  0  0
   10.4788   -3.0457   21.8593 C   0  0  0  0  0  0  0  0  0  0  0  0
    8.8693   -5.8099   18.4657 N   0  0  0  0  0  0  0  0  0  0  0  0
    8.9892   -0.7926   25.4573 C   0  0  0  0  0  0  0  0  0  0  0  0
   10.5677   -3.4462   20.5323 C   0  0  0  0  0  0  0  0  0  0  0  0
  1  8  1  0
  1 12  4  0
  1 14  4  0
  2  3  4  0
  2 18  4  0
  3 20  4  0
  3 22  4  0
  4 11  4  0
  4 21  4  0
  5  9  4  0
  5 16  4  0
  6 15  4  0
  6 16  4  0
  7 22  4  0
  7 26  4  0
  8 10  4  0
  8 25  4  0
  9 15  4  0
  9 17  1  0
 10 21  4  0
 11 25  4  0
 12 23  4  0
 13 20  4  0
 13 26  4  0
 14 19  4  0
 17 18  4  0
 17 24  4  0
 19 23  4  0
 20 24  4  0
 23 26  1  0
M  END
$$$$

 Created by Python create_sdf_string function

 26 30  0  0  0  0  0  0  0  0999 V2000
   10.0084   -1.8019   23.4945 C   0  0  0  0  0  0  0  0  0  0  0  0
   10.0005   -4.2520   16.5631 C   0  0  0  0  0  0  0  0  0  0  0  0
   10.2759   -4.0036   17.8845 C   0  0  0  0  0  0  0  0  0  0  0  0
    8.5652    1.5478   25.3778 N   0  0  0  0  0  0  0  0  0  0  0  0
    6.8048   -7.5457   17.8752 C   0  0  0  0  0  0  0  0  0  0  0  0
    6.1721   -8.2186   15.9886 N   0  0  0  0  0  0  0  0  0  0  0  0
   11.1764   -2.6600   19.5604 C   0  0  0  0  0  0  0  0  0  0  0  0
    9.5491   -0.6380   24.1912 C   0  0  0  0  0  0  0  0  0  0  0  0
    7.5337   -6.9256   16.9519 C   0  0  0  0  0  0  0  0  0  0  0  0
    9.6782    0.5671   23.5143 C   0  0  0  0  0  0  0  0  0  0  0  0
    8.4532    0.3482   26.0821 C   0  0  0  0  0  0  0  0  0  0  0  0
   10.4239   -1.7677   22.2230 N   0  0  0  0  0  0  0  0  0  0  0  0
    9.9468   -4.5953   20.1709 C   0  0  0  0  0  0  0  0  0  0  0  0
   10.0366   -3.0590   23.9864 N   0  0  0  0  0  0  0  0  0  0  0  0
    7.1191   -7.3636   15.7739 C   0  0  0  0  0  0  0  0  0  0  0  0
    5.9612   -8.3203   17.2732 N   0  0  0  0  0  0  0  0  0  0  0  0
    8.5296   -5.9814   17.1841 C   0  0  0  0  0  0  0  0  0  0  0  0
    9.1527   -5.2118   16.2116 C   0  0  0  0  0  0  0  0  0  0  0  0
   10.3364   -3.8368   22.9255 O   0  0  0  0  0  0  0  0  0  0  0  0
    9.6947   -4.8407   18.8534 C   0  0  0  0  0  0  0  0  0  0  0  0
    9.1596    1.7042   24.1381 C   0  0  0  0  0  0  0  0  0  0  0  0
   11.0456   -2.9774   18.2694 N   0  0  0  0  0  0  0  0  0  0  0  0
   10.4788   -3.0457   21.8593 C   0  0  0  0  0  0  0  0  0  0  0  0
    8.8693   -5.8099   18.4657 N   0  0  0  0  0  0  0  0  0  0  0  0
    8.9892   -0.7926   25.4573 C   0  0  0  0  0  0  0  0  0  0  0  0
   10.5677   -3.4462   20.5323 C   0  0  0  0  0  0  0  0  0  0  0  0
  1  8  1  0
  1 12  4  0
  1 14  4  0
  2  3  4  0
  2 18  4  0
  3 20  4  0
  3 22  4  0
  4 11  4  0
  4 21  4  0
  5  9  4  0
  5 16  4  0
  6 15  4  0
  6 16  4  0
  7 22  4  0
  7 26  4  0
  8 10  4  0
  8 25  4  0
  9 15  4  0
  9 17  1  0
 10 21  4  0
 11 25  4  0
 12 23  4  0
 13 20  4  0
 13 26  4  0
 14 19  4  0
 17 18  4  0
 17 24  4  0
 19 23  4  0
 20 24  4  0
 23 26  1  0
M  END
$$$$

 Created by Python create_sdf_string function

 26 30  0  0  0  0  0  0  0  0999 V2000
   10.0084   -1.8019   23.4945 C   0  0  0  0  0  0  0  0  0  0  0  0
   10.0005   -4.2520   16.5631 C   0  0  0  0  0  0  0  0  0  0  0  0
   10.2759   -4.0036   17.8845 C   0  0  0  0  0  0  0  0  0  0  0  0
    8.5652    1.5478   25.3778 N   0  0  0  0  0  0  0  0  0  0  0  0
    6.8048   -7.5457   17.8752 C   0  0  0  0  0  0  0  0  0  0  0  0
    6.1721   -8.2186   15.9886 N   0  0  0  0  0  0  0  0  0  0  0  0
   11.1764   -2.6600   19.5604 C   0  0  0  0  0  0  0  0  0  0  0  0
    9.5491   -0.6380   24.1912 C   0  0  0  0  0  0  0  0  0  0  0  0
    7.5337   -6.9256   16.9519 C   0  0  0  0  0  0  0  0  0  0  0  0
    9.6782    0.5671   23.5143 C   0  0  0  0  0  0  0  0  0  0  0  0
    8.4532    0.3482   26.0821 C   0  0  0  0  0  0  0  0  0  0  0  0
   10.4239   -1.7677   22.2230 N   0  0  0  0  0  0  0  0  0  0  0  0
    9.9468   -4.5953   20.1709 C   0  0  0  0  0  0  0  0  0  0  0  0
   10.0366   -3.0590   23.9864 N   0  0  0  0  0  0  0  0  0  0  0  0
    7.1191   -7.3636   15.7739 C   0  0  0  0  0  0  0  0  0  0  0  0
    5.9612   -8.3203   17.2732 N   0  0  0  0  0  0  0  0  0  0  0  0
    8.5296   -5.9814   17.1841 C   0  0  0  0  0  0  0  0  0  0  0  0
    9.1527   -5.2118   16.2116 C   0  0  0  0  0  0  0  0  0  0  0  0
   10.3364   -3.8368   22.9255 O   0  0  0  0  0  0  0  0  0  0  0  0
    9.6947   -4.8407   18.8534 C   0  0  0  0  0  0  0  0  0  0  0  0
    9.1596    1.7042   24.1381 C   0  0  0  0  0  0  0  0  0  0  0  0
   11.0456   -2.9774   18.2694 N   0  0  0  0  0  0  0  0  0  0  0  0
   10.4788   -3.0457   21.8593 C   0  0  0  0  0  0  0  0  0  0  0  0
    8.8693   -5.8099   18.4657 N   0  0  0  0  0  0  0  0  0  0  0  0
    8.9892   -0.7926   25.4573 C   0  0  0  0  0  0  0  0  0  0  0  0
   10.5677   -3.4462   20.5323 C   0  0  0  0  0  0  0  0  0  0  0  0
  1  8  1  0
  1 12  4  0
  1 14  4  0
  2  3  4  0
  2 18  4  0
  3 20  4  0
  3 22  4  0
  4 11  4  0
  4 21  4  0
  5  9  4  0
  5 16  4  0
  6 15  4  0
  6 16  4  0
  7 22  4  0
  7 26  4  0
  8 10  4  0
  8 25  4  0
  9 15  4  0
  9 17  1  0
 10 21  4  0
 11 25  4  0
 12 23  4  0
 13 20  4  0
 13 26  4  0
 14 19  4  0
 17 18  4  0
 17 24  4  0
 19 23  4  0
 20 24  4  0
 23 26  1  0
M  END
$$$$

 Created by Python create_sdf_string function

 26 30  0  0  0  0  0  0  0  0999 V2000
   10.0084   -1.8019   23.4945 C   0  0  0  0  0  0  0  0  0  0  0  0
   10.0005   -4.2520   16.5631 C   0  0  0  0  0  0  0  0  0  0  0  0
   10.2759   -4.0036   17.8845 C   0  0  0  0  0  0  0  0  0  0  0  0
    8.5652    1.5478   25.3778 N   0  0  0  0  0  0  0  0  0  0  0  0
    6.8048   -7.5457   17.8752 C   0  0  0  0  0  0  0  0  0  0  0  0
    6.1721   -8.2186   15.9886 N   0  0  0  0  0  0  0  0  0  0  0  0
   11.1764   -2.6600   19.5604 C   0  0  0  0  0  0  0  0  0  0  0  0
    9.5491   -0.6380   24.1912 C   0  0  0  0  0  0  0  0  0  0  0  0
    7.5337   -6.9256   16.9519 C   0  0  0  0  0  0  0  0  0  0  0  0
    9.6782    0.5671   23.5143 C   0  0  0  0  0  0  0  0  0  0  0  0
    8.4532    0.3482   26.0821 C   0  0  0  0  0  0  0  0  0  0  0  0
   10.4239   -1.7677   22.2230 N   0  0  0  0  0  0  0  0  0  0  0  0
    9.9468   -4.5953   20.1709 C   0  0  0  0  0  0  0  0  0  0  0  0
   10.0366   -3.0590   23.9864 N   0  0  0  0  0  0  0  0  0  0  0  0
    7.1191   -7.3636   15.7739 C   0  0  0  0  0  0  0  0  0  0  0  0
    5.9612   -8.3203   17.2732 N   0  0  0  0  0  0  0  0  0  0  0  0
    8.5296   -5.9814   17.1841 C   0  0  0  0  0  0  0  0  0  0  0  0
    9.1527   -5.2118   16.2116 C   0  0  0  0  0  0  0  0  0  0  0  0
   10.3364   -3.8368   22.9255 O   0  0  0  0  0  0  0  0  0  0  0  0
    9.6947   -4.8407   18.8534 C   0  0  0  0  0  0  0  0  0  0  0  0
    9.1596    1.7042   24.1381 C   0  0  0  0  0  0  0  0  0  0  0  0
   11.0456   -2.9774   18.2694 N   0  0  0  0  0  0  0  0  0  0  0  0
   10.4788   -3.0457   21.8593 C   0  0  0  0  0  0  0  0  0  0  0  0
    8.8693   -5.8099   18.4657 N   0  0  0  0  0  0  0  0  0  0  0  0
    8.9892   -0.7926   25.4573 C   0  0  0  0  0  0  0  0  0  0  0  0
   10.5677   -3.4462   20.5323 C   0  0  0  0  0  0  0  0  0  0  0  0
  1  8  1  0
  1 12  4  0
  1 14  4  0
  2  3  4  0
  2 18  4  0
  3 20  4  0
  3 22  4  0
  4 11  4  0
  4 21  4  0
  5  9  4  0
  5 16  4  0
  6 15  4  0
  6 16  4  0
  7 22  4  0
  7 26  4  0
  8 10  4  0
  8 25  4  0
  9 15  4  0
  9 17  1  0
 10 21  4  0
 11 25  4  0
 12 23  4  0
 13 20  4  0
 13 26  4  0
 14 19  4  0
 17 18  4  0
 17 24  4  0
 19 23  4  0
 20 24  4  0
 23 26  1  0
M  END
$$$$

 Created by Python create_sdf_string function

 26 30  0  0  0  0  0  0  0  0999 V2000
   10.0084   -1.8019   23.4945 C   0  0  0  0  0  0  0  0  0  0  0  0
   10.0005   -4.2520   16.5631 C   0  0  0  0  0  0  0  0  0  0  0  0
   10.2759   -4.0036   17.8845 C   0  0  0  0  0  0  0  0  0  0  0  0
    8.5652    1.5478   25.3778 N   0  0  0  0  0  0  0  0  0  0  0  0
    6.8048   -7.5457   17.8752 C   0  0  0  0  0  0  0  0  0  0  0  0
    6.1721   -8.2186   15.9886 N   0  0  0  0  0  0  0  0  0  0  0  0
   11.1764   -2.6600   19.5604 C   0  0  0  0  0  0  0  0  0  0  0  0
    9.5491   -0.6380   24.1912 C   0  0  0  0  0  0  0  0  0  0  0  0
    7.5337   -6.9256   16.9519 C   0  0  0  0  0  0  0  0  0  0  0  0
    9.6782    0.5671   23.5143 C   0  0  0  0  0  0  0  0  0  0  0  0
    8.4532    0.3482   26.0821 C   0  0  0  0  0  0  0  0  0  0  0  0
   10.4239   -1.7677   22.2230 N   0  0  0  0  0  0  0  0  0  0  0  0
    9.9468   -4.5953   20.1709 C   0  0  0  0  0  0  0  0  0  0  0  0
   10.0366   -3.0590   23.9864 N   0  0  0  0  0  0  0  0  0  0  0  0
    7.1191   -7.3636   15.7739 C   0  0  0  0  0  0  0  0  0  0  0  0
    5.9612   -8.3203   17.2732 N   0  0  0  0  0  0  0  0  0  0  0  0
    8.5296   -5.9814   17.1841 C   0  0  0  0  0  0  0  0  0  0  0  0
    9.1527   -5.2118   16.2116 C   0  0  0  0  0  0  0  0  0  0  0  0
   10.3364   -3.8368   22.9255 O   0  0  0  0  0  0  0  0  0  0  0  0
    9.6947   -4.8407   18.8534 C   0  0  0  0  0  0  0  0  0  0  0  0
    9.1596    1.7042   24.1381 C   0  0  0  0  0  0  0  0  0  0  0  0
   11.0456   -2.9774   18.2694 N   0  0  0  0  0  0  0  0  0  0  0  0
   10.4788   -3.0457   21.8593 C   0  0  0  0  0  0  0  0  0  0  0  0
    8.8693   -5.8099   18.4657 N   0  0  0  0  0  0  0  0  0  0  0  0
    8.9892   -0.7926   25.4573 C   0  0  0  0  0  0  0  0  0  0  0  0
   10.5677   -3.4462   20.5323 C   0  0  0  0  0  0  0  0  0  0  0  0
  1  8  1  0
  1 12  4  0
  1 14  4  0
  2  3  4  0
  2 18  4  0
  3 20  4  0
  3 22  4  0
  4 11  4  0
  4 21  4  0
  5  9  4  0
  5 16  4  0
  6 15  4  0
  6 16  4  0
  7 22  4  0
  7 26  4  0
  8 10  4  0
  8 25  4  0
  9 15  4  0
  9 17  1  0
 10 21  4  0
 11 25  4  0
 12 23  4  0
 13 20  4  0
 13 26  4  0
 14 19  4  0
 17 18  4  0
 17 24  4  0
 19 23  4  0
 20 24  4  0
 23 26  1  0
M  END
$$$$

 Created by Python create_sdf_string function

 26 30  0  0  0  0  0  0  0  0999 V2000
   10.0084   -1.8019   23.4945 C   0  0  0  0  0  0  0  0  0  0  0  0
   10.0005   -4.2520   16.5631 C   0  0  0  0  0  0  0  0  0  0  0  0
   10.2759   -4.0036   17.8845 C   0  0  0  0  0  0  0  0  0  0  0  0
    8.5652    1.5478   25.3778 N   0  0  0  0  0  0  0  0  0  0  0  0
    6.8048   -7.5457   17.8752 C   0  0  0  0  0  0  0  0  0  0  0  0
    6.1721   -8.2186   15.9886 N   0  0  0  0  0  0  0  0  0  0  0  0
   11.1764   -2.6600   19.5604 C   0  0  0  0  0  0  0  0  0  0  0  0
    9.5491   -0.6380   24.1912 C   0  0  0  0  0  0  0  0  0  0  0  0
    7.5337   -6.9256   16.9519 C   0  0  0  0  0  0  0  0  0  0  0  0
    9.6782    0.5671   23.5143 C   0  0  0  0  0  0  0  0  0  0  0  0
    8.4532    0.3482   26.0821 C   0  0  0  0  0  0  0  0  0  0  0  0
   10.4239   -1.7677   22.2230 N   0  0  0  0  0  0  0  0  0  0  0  0
    9.9468   -4.5953   20.1709 C   0  0  0  0  0  0  0  0  0  0  0  0
   10.0366   -3.0590   23.9864 N   0  0  0  0  0  0  0  0  0  0  0  0
    7.1191   -7.3636   15.7739 C   0  0  0  0  0  0  0  0  0  0  0  0
    5.9612   -8.3203   17.2732 N   0  0  0  0  0  0  0  0  0  0  0  0
    8.5296   -5.9814   17.1841 C   0  0  0  0  0  0  0  0  0  0  0  0
    9.1527   -5.2118   16.2116 C   0  0  0  0  0  0  0  0  0  0  0  0
   10.3364   -3.8368   22.9255 O   0  0  0  0  0  0  0  0  0  0  0  0
    9.6947   -4.8407   18.8534 C   0  0  0  0  0  0  0  0  0  0  0  0
    9.1596    1.7042   24.1381 C   0  0  0  0  0  0  0  0  0  0  0  0
   11.0456   -2.9774   18.2694 N   0  0  0  0  0  0  0  0  0  0  0  0
   10.4788   -3.0457   21.8593 C   0  0  0  0  0  0  0  0  0  0  0  0
    8.8693   -5.8099   18.4657 N   0  0  0  0  0  0  0  0  0  0  0  0
    8.9892   -0.7926   25.4573 C   0  0  0  0  0  0  0  0  0  0  0  0
   10.5677   -3.4462   20.5323 C   0  0  0  0  0  0  0  0  0  0  0  0
  1  8  1  0
  1 12  4  0
  1 14  4  0
  2  3  4  0
  2 18  4  0
  3 20  4  0
  3 22  4  0
  4 11  4  0
  4 21  4  0
  5  9  4  0
  5 16  4  0
  6 15  4  0
  6 16  4  0
  7 22  4  0
  7 26  4  0
  8 10  4  0
  8 25  4  0
  9 15  4  0
  9 17  1  0
 10 21  4  0
 11 25  4  0
 12 23  4  0
 13 20  4  0
 13 26  4  0
 14 19  4  0
 17 18  4  0
 17 24  4  0
 19 23  4  0
 20 24  4  0
 23 26  1  0
M  END
$$$$

 Created by Python create_sdf_string function

 26 30  0  0  0  0  0  0  0  0999 V2000
   10.0084   -1.8019   23.4945 C   0  0  0  0  0  0  0  0  0  0  0  0
   10.0005   -4.2520   16.5631 C   0  0  0  0  0  0  0  0  0  0  0  0
   10.2759   -4.0036   17.8845 C   0  0  0  0  0  0  0  0  0  0  0  0
    8.5652    1.5478   25.3778 N   0  0  0  0  0  0  0  0  0  0  0  0
    6.8048   -7.5457   17.8752 C   0  0  0  0  0  0  0  0  0  0  0  0
    6.1721   -8.2186   15.9886 N   0  0  0  0  0  0  0  0  0  0  0  0
   11.1764   -2.6600   19.5604 C   0  0  0  0  0  0  0  0  0  0  0  0
    9.5491   -0.6380   24.1912 C   0  0  0  0  0  0  0  0  0  0  0  0
    7.5337   -6.9256   16.9519 C   0  0  0  0  0  0  0  0  0  0  0  0
    9.6782    0.5671   23.5143 C   0  0  0  0  0  0  0  0  0  0  0  0
    8.4532    0.3482   26.0821 C   0  0  0  0  0  0  0  0  0  0  0  0
   10.4239   -1.7677   22.2230 N   0  0  0  0  0  0  0  0  0  0  0  0
    9.9468   -4.5953   20.1709 C   0  0  0  0  0  0  0  0  0  0  0  0
   10.0366   -3.0590   23.9864 N   0  0  0  0  0  0  0  0  0  0  0  0
    7.1191   -7.3636   15.7739 C   0  0  0  0  0  0  0  0  0  0  0  0
    5.9612   -8.3203   17.2732 N   0  0  0  0  0  0  0  0  0  0  0  0
    8.5296   -5.9814   17.1841 C   0  0  0  0  0  0  0  0  0  0  0  0
    9.1527   -5.2118   16.2116 C   0  0  0  0  0  0  0  0  0  0  0  0
   10.3364   -3.8368   22.9255 O   0  0  0  0  0  0  0  0  0  0  0  0
    9.6947   -4.8407   18.8534 C   0  0  0  0  0  0  0  0  0  0  0  0
    9.1596    1.7042   24.1381 C   0  0  0  0  0  0  0  0  0  0  0  0
   11.0456   -2.9774   18.2694 N   0  0  0  0  0  0  0  0  0  0  0  0
   10.4788   -3.0457   21.8593 C   0  0  0  0  0  0  0  0  0  0  0  0
    8.8693   -5.8099   18.4657 N   0  0  0  0  0  0  0  0  0  0  0  0
    8.9892   -0.7926   25.4573 C   0  0  0  0  0  0  0  0  0  0  0  0
   10.5677   -3.4462   20.5323 C   0  0  0  0  0  0  0  0  0  0  0  0
  1  8  1  0
  1 12  4  0
  1 14  4  0
  2  3  4  0
  2 18  4  0
  3 20  4  0
  3 22  4  0
  4 11  4  0
  4 21  4  0
  5  9  4  0
  5 16  4  0
  6 15  4  0
  6 16  4  0
  7 22  4  0
  7 26  4  0
  8 10  4  0
  8 25  4  0
  9 15  4  0
  9 17  1  0
 10 21  4  0
 11 25  4  0
 12 23  4  0
 13 20  4  0
 13 26  4  0
 14 19  4  0
 17 18  4  0
 17 24  4  0
 19 23  4  0
 20 24  4  0
 23 26  1  0
M  END
$$$$

 Created by Python create_sdf_string function

 26 30  0  0  0  0  0  0  0  0999 V2000
   10.0084   -1.8019   23.4945 C   0  0  0  0  0  0  0  0  0  0  0  0
   10.0005   -4.2520   16.5631 C   0  0  0  0  0  0  0  0  0  0  0  0
   10.2759   -4.0036   17.8845 C   0  0  0  0  0  0  0  0  0  0  0  0
    8.5652    1.5478   25.3778 N   0  0  0  0  0  0  0  0  0  0  0  0
    6.8048   -7.5457   17.8752 C   0  0  0  0  0  0  0  0  0  0  0  0
    6.1721   -8.2186   15.9886 N   0  0  0  0  0  0  0  0  0  0  0  0
   11.1764   -2.6600   19.5604 C   0  0  0  0  0  0  0  0  0  0  0  0
    9.5491   -0.6380   24.1912 C   0  0  0  0  0  0  0  0  0  0  0  0
    7.5337   -6.9256   16.9519 C   0  0  0  0  0  0  0  0  0  0  0  0
    9.6782    0.5671   23.5143 C   0  0  0  0  0  0  0  0  0  0  0  0
    8.4532    0.3482   26.0821 C   0  0  0  0  0  0  0  0  0  0  0  0
   10.4239   -1.7677   22.2230 N   0  0  0  0  0  0  0  0  0  0  0  0
    9.9468   -4.5953   20.1709 C   0  0  0  0  0  0  0  0  0  0  0  0
   10.0366   -3.0590   23.9864 N   0  0  0  0  0  0  0  0  0  0  0  0
    7.1191   -7.3636   15.7739 C   0  0  0  0  0  0  0  0  0  0  0  0
    5.9612   -8.3203   17.2732 N   0  0  0  0  0  0  0  0  0  0  0  0
    8.5296   -5.9814   17.1841 C   0  0  0  0  0  0  0  0  0  0  0  0
    9.1527   -5.2118   16.2116 C   0  0  0  0  0  0  0  0  0  0  0  0
   10.3364   -3.8368   22.9255 O   0  0  0  0  0  0  0  0  0  0  0  0
    9.6947   -4.8407   18.8534 C   0  0  0  0  0  0  0  0  0  0  0  0
    9.1596    1.7042   24.1381 C   0  0  0  0  0  0  0  0  0  0  0  0
   11.0456   -2.9774   18.2694 N   0  0  0  0  0  0  0  0  0  0  0  0
   10.4788   -3.0457   21.8593 C   0  0  0  0  0  0  0  0  0  0  0  0
    8.8693   -5.8099   18.4657 N   0  0  0  0  0  0  0  0  0  0  0  0
    8.9892   -0.7926   25.4573 C   0  0  0  0  0  0  0  0  0  0  0  0
   10.5677   -3.4462   20.5323 C   0  0  0  0  0  0  0  0  0  0  0  0
  1  8  1  0
  1 12  4  0
  1 14  4  0
  2  3  4  0
  2 18  4  0
  3 20  4  0
  3 22  4  0
  4 11  4  0
  4 21  4  0
  5  9  4  0
  5 16  4  0
  6 15  4  0
  6 16  4  0
  7 22  4  0
  7 26  4  0
  8 10  4  0
  8 25  4  0
  9 15  4  0
  9 17  1  0
 10 21  4  0
 11 25  4  0
 12 23  4  0
 13 20  4  0
 13 26  4  0
 14 19  4  0
 17 18  4  0
 17 24  4  0
 19 23  4  0
 20 24  4  0
 23 26  1  0
M  END
$$$$

 Created by Python create_sdf_string function

 26 30  0  0  0  0  0  0  0  0999 V2000
   10.0084   -1.8019   23.4945 C   0  0  0  0  0  0  0  0  0  0  0  0
   10.0005   -4.2520   16.5631 C   0  0  0  0  0  0  0  0  0  0  0  0
   10.2759   -4.0036   17.8845 C   0  0  0  0  0  0  0  0  0  0  0  0
    8.5652    1.5478   25.3778 N   0  0  0  0  0  0  0  0  0  0  0  0
    6.8048   -7.5457   17.8752 C   0  0  0  0  0  0  0  0  0  0  0  0
    6.1721   -8.2186   15.9886 N   0  0  0  0  0  0  0  0  0  0  0  0
   11.1764   -2.6600   19.5604 C   0  0  0  0  0  0  0  0  0  0  0  0
    9.5491   -0.6380   24.1912 C   0  0  0  0  0  0  0  0  0  0  0  0
    7.5337   -6.9256   16.9519 C   0  0  0  0  0  0  0  0  0  0  0  0
    9.6782    0.5671   23.5143 C   0  0  0  0  0  0  0  0  0  0  0  0
    8.4532    0.3482   26.0821 C   0  0  0  0  0  0  0  0  0  0  0  0
   10.4239   -1.7677   22.2230 N   0  0  0  0  0  0  0  0  0  0  0  0
    9.9468   -4.5953   20.1709 C   0  0  0  0  0  0  0  0  0  0  0  0
   10.0366   -3.0590   23.9864 N   0  0  0  0  0  0  0  0  0  0  0  0
    7.1191   -7.3636   15.7739 C   0  0  0  0  0  0  0  0  0  0  0  0
    5.9612   -8.3203   17.2732 N   0  0  0  0  0  0  0  0  0  0  0  0
    8.5296   -5.9814   17.1841 C   0  0  0  0  0  0  0  0  0  0  0  0
    9.1527   -5.2118   16.2116 C   0  0  0  0  0  0  0  0  0  0  0  0
   10.3364   -3.8368   22.9255 O   0  0  0  0  0  0  0  0  0  0  0  0
    9.6947   -4.8407   18.8534 C   0  0  0  0  0  0  0  0  0  0  0  0
    9.1596    1.7042   24.1381 C   0  0  0  0  0  0  0  0  0  0  0  0
   11.0456   -2.9774   18.2694 N   0  0  0  0  0  0  0  0  0  0  0  0
   10.4788   -3.0457   21.8593 C   0  0  0  0  0  0  0  0  0  0  0  0
    8.8693   -5.8099   18.4657 N   0  0  0  0  0  0  0  0  0  0  0  0
    8.9892   -0.7926   25.4573 C   0  0  0  0  0  0  0  0  0  0  0  0
   10.5677   -3.4462   20.5323 C   0  0  0  0  0  0  0  0  0  0  0  0
  1  8  1  0
  1 12  4  0
  1 14  4  0
  2  3  4  0
  2 18  4  0
  3 20  4  0
  3 22  4  0
  4 11  4  0
  4 21  4  0
  5  9  4  0
  5 16  4  0
  6 15  4  0
  6 16  4  0
  7 22  4  0
  7 26  4  0
  8 10  4  0
  8 25  4  0
  9 15  4  0
  9 17  1  0
 10 21  4  0
 11 25  4  0
 12 23  4  0
 13 20  4  0
 13 26  4  0
 14 19  4  0
 17 18  4  0
 17 24  4  0
 19 23  4  0
 20 24  4  0
 23 26  1  0
M  END
$$$$

 Created by Python create_sdf_string function

 26 30  0  0  0  0  0  0  0  0999 V2000
   10.0084   -1.8019   23.4945 C   0  0  0  0  0  0  0  0  0  0  0  0
   10.0005   -4.2520   16.5631 C   0  0  0  0  0  0  0  0  0  0  0  0
   10.2759   -4.0036   17.8845 C   0  0  0  0  0  0  0  0  0  0  0  0
    8.5652    1.5478   25.3778 N   0  0  0  0  0  0  0  0  0  0  0  0
    6.8048   -7.5457   17.8752 C   0  0  0  0  0  0  0  0  0  0  0  0
    6.1721   -8.2186   15.9886 N   0  0  0  0  0  0  0  0  0  0  0  0
   11.1764   -2.6600   19.5604 C   0  0  0  0  0  0  0  0  0  0  0  0
    9.5491   -0.6380   24.1912 C   0  0  0  0  0  0  0  0  0  0  0  0
    7.5337   -6.9256   16.9519 C   0  0  0  0  0  0  0  0  0  0  0  0
    9.6782    0.5671   23.5143 C   0  0  0  0  0  0  0  0  0  0  0  0
    8.4532    0.3482   26.0821 C   0  0  0  0  0  0  0  0  0  0  0  0
   10.4239   -1.7677   22.2230 N   0  0  0  0  0  0  0  0  0  0  0  0
    9.9468   -4.5953   20.1709 C   0  0  0  0  0  0  0  0  0  0  0  0
   10.0366   -3.0590   23.9864 N   0  0  0  0  0  0  0  0  0  0  0  0
    7.1191   -7.3636   15.7739 C   0  0  0  0  0  0  0  0  0  0  0  0
    5.9612   -8.3203   17.2732 N   0  0  0  0  0  0  0  0  0  0  0  0
    8.5296   -5.9814   17.1841 C   0  0  0  0  0  0  0  0  0  0  0  0
    9.1527   -5.2118   16.2116 C   0  0  0  0  0  0  0  0  0  0  0  0
   10.3364   -3.8368   22.9255 O   0  0  0  0  0  0  0  0  0  0  0  0
    9.6947   -4.8407   18.8534 C   0  0  0  0  0  0  0  0  0  0  0  0
    9.1596    1.7042   24.1381 C   0  0  0  0  0  0  0  0  0  0  0  0
   11.0456   -2.9774   18.2694 N   0  0  0  0  0  0  0  0  0  0  0  0
   10.4788   -3.0457   21.8593 C   0  0  0  0  0  0  0  0  0  0  0  0
    8.8693   -5.8099   18.4657 N   0  0  0  0  0  0  0  0  0  0  0  0
    8.9892   -0.7926   25.4573 C   0  0  0  0  0  0  0  0  0  0  0  0
   10.5677   -3.4462   20.5323 C   0  0  0  0  0  0  0  0  0  0  0  0
  1  8  1  0
  1 12  4  0
  1 14  4  0
  2  3  4  0
  2 18  4  0
  3 20  4  0
  3 22  4  0
  4 11  4  0
  4 21  4  0
  5  9  4  0
  5 16  4  0
  6 15  4  0
  6 16  4  0
  7 22  4  0
  7 26  4  0
  8 10  4  0
  8 25  4  0
  9 15  4  0
  9 17  1  0
 10 21  4  0
 11 25  4  0
 12 23  4  0
 13 20  4  0
 13 26  4  0
 14 19  4  0
 17 18  4  0
 17 24  4  0
 19 23  4  0
 20 24  4  0
 23 26  1  0
M  END
$$$$

 Created by Python create_sdf_string function

 26 30  0  0  0  0  0  0  0  0999 V2000
   10.0084   -1.8019   23.4945 C   0  0  0  0  0  0  0  0  0  0  0  0
   10.0005   -4.2520   16.5631 C   0  0  0  0  0  0  0  0  0  0  0  0
   10.2759   -4.0036   17.8845 C   0  0  0  0  0  0  0  0  0  0  0  0
    8.5652    1.5478   25.3778 N   0  0  0  0  0  0  0  0  0  0  0  0
    6.8048   -7.5457   17.8752 C   0  0  0  0  0  0  0  0  0  0  0  0
    6.1721   -8.2186   15.9886 N   0  0  0  0  0  0  0  0  0  0  0  0
   11.1764   -2.6600   19.5604 C   0  0  0  0  0  0  0  0  0  0  0  0
    9.5491   -0.6380   24.1912 C   0  0  0  0  0  0  0  0  0  0  0  0
    7.5337   -6.9256   16.9519 C   0  0  0  0  0  0  0  0  0  0  0  0
    9.6782    0.5671   23.5143 C   0  0  0  0  0  0  0  0  0  0  0  0
    8.4532    0.3482   26.0821 C   0  0  0  0  0  0  0  0  0  0  0  0
   10.4239   -1.7677   22.2230 N   0  0  0  0  0  0  0  0  0  0  0  0
    9.9468   -4.5953   20.1709 C   0  0  0  0  0  0  0  0  0  0  0  0
   10.0366   -3.0590   23.9864 N   0  0  0  0  0  0  0  0  0  0  0  0
    7.1191   -7.3636   15.7739 C   0  0  0  0  0  0  0  0  0  0  0  0
    5.9612   -8.3203   17.2732 N   0  0  0  0  0  0  0  0  0  0  0  0
    8.5296   -5.9814   17.1841 C   0  0  0  0  0  0  0  0  0  0  0  0
    9.1527   -5.2118   16.2116 C   0  0  0  0  0  0  0  0  0  0  0  0
   10.3364   -3.8368   22.9255 O   0  0  0  0  0  0  0  0  0  0  0  0
    9.6947   -4.8407   18.8534 C   0  0  0  0  0  0  0  0  0  0  0  0
    9.1596    1.7042   24.1381 C   0  0  0  0  0  0  0  0  0  0  0  0
   11.0456   -2.9774   18.2694 N   0  0  0  0  0  0  0  0  0  0  0  0
   10.4788   -3.0457   21.8593 C   0  0  0  0  0  0  0  0  0  0  0  0
    8.8693   -5.8099   18.4657 N   0  0  0  0  0  0  0  0  0  0  0  0
    8.9892   -0.7926   25.4573 C   0  0  0  0  0  0  0  0  0  0  0  0
   10.5677   -3.4462   20.5323 C   0  0  0  0  0  0  0  0  0  0  0  0
  1  8  1  0
  1 12  4  0
  1 14  4  0
  2  3  4  0
  2 18  4  0
  3 20  4  0
  3 22  4  0
  4 11  4  0
  4 21  4  0
  5  9  4  0
  5 16  4  0
  6 15  4  0
  6 16  4  0
  7 22  4  0
  7 26  4  0
  8 10  4  0
  8 25  4  0
  9 15  4  0
  9 17  1  0
 10 21  4  0
 11 25  4  0
 12 23  4  0
 13 20  4  0
 13 26  4  0
 14 19  4  0
 17 18  4  0
 17 24  4  0
 19 23  4  0
 20 24  4  0
 23 26  1  0
M  END
$$$$

 Created by Python create_sdf_string function

 26 30  0  0  0  0  0  0  0  0999 V2000
   10.0084   -1.8019   23.4945 C   0  0  0  0  0  0  0  0  0  0  0  0
   10.0005   -4.2520   16.5631 C   0  0  0  0  0  0  0  0  0  0  0  0
   10.2759   -4.0036   17.8845 C   0  0  0  0  0  0  0  0  0  0  0  0
    8.5652    1.5478   25.3778 N   0  0  0  0  0  0  0  0  0  0  0  0
    6.8048   -7.5457   17.8752 C   0  0  0  0  0  0  0  0  0  0  0  0
    6.1721   -8.2186   15.9886 N   0  0  0  0  0  0  0  0  0  0  0  0
   11.1764   -2.6600   19.5604 C   0  0  0  0  0  0  0  0  0  0  0  0
    9.5491   -0.6380   24.1912 C   0  0  0  0  0  0  0  0  0  0  0  0
    7.5337   -6.9256   16.9519 C   0  0  0  0  0  0  0  0  0  0  0  0
    9.6782    0.5671   23.5143 C   0  0  0  0  0  0  0  0  0  0  0  0
    8.4532    0.3482   26.0821 C   0  0  0  0  0  0  0  0  0  0  0  0
   10.4239   -1.7677   22.2230 N   0  0  0  0  0  0  0  0  0  0  0  0
    9.9468   -4.5953   20.1709 C   0  0  0  0  0  0  0  0  0  0  0  0
   10.0366   -3.0590   23.9864 N   0  0  0  0  0  0  0  0  0  0  0  0
    7.1191   -7.3636   15.7739 C   0  0  0  0  0  0  0  0  0  0  0  0
    5.9612   -8.3203   17.2732 N   0  0  0  0  0  0  0  0  0  0  0  0
    8.5296   -5.9814   17.1841 C   0  0  0  0  0  0  0  0  0  0  0  0
    9.1527   -5.2118   16.2116 C   0  0  0  0  0  0  0  0  0  0  0  0
   10.3364   -3.8368   22.9255 O   0  0  0  0  0  0  0  0  0  0  0  0
    9.6947   -4.8407   18.8534 C   0  0  0  0  0  0  0  0  0  0  0  0
    9.1596    1.7042   24.1381 C   0  0  0  0  0  0  0  0  0  0  0  0
   11.0456   -2.9774   18.2694 N   0  0  0  0  0  0  0  0  0  0  0  0
   10.4788   -3.0457   21.8593 C   0  0  0  0  0  0  0  0  0  0  0  0
    8.8693   -5.8099   18.4657 N   0  0  0  0  0  0  0  0  0  0  0  0
    8.9892   -0.7926   25.4573 C   0  0  0  0  0  0  0  0  0  0  0  0
   10.5677   -3.4462   20.5323 C   0  0  0  0  0  0  0  0  0  0  0  0
  1  8  1  0
  1 12  4  0
  1 14  4  0
  2  3  4  0
  2 18  4  0
  3 20  4  0
  3 22  4  0
  4 11  4  0
  4 21  4  0
  5  9  4  0
  5 16  4  0
  6 15  4  0
  6 16  4  0
  7 22  4  0
  7 26  4  0
  8 10  4  0
  8 25  4  0
  9 15  4  0
  9 17  1  0
 10 21  4  0
 11 25  4  0
 12 23  4  0
 13 20  4  0
 13 26  4  0
 14 19  4  0
 17 18  4  0
 17 24  4  0
 19 23  4  0
 20 24  4  0
 23 26  1  0
M  END
$$$$

 Created by Python create_sdf_string function

 26 30  0  0  0  0  0  0  0  0999 V2000
   10.0084   -1.8019   23.4945 C   0  0  0  0  0  0  0  0  0  0  0  0
   10.0005   -4.2520   16.5631 C   0  0  0  0  0  0  0  0  0  0  0  0
   10.2759   -4.0036   17.8845 C   0  0  0  0  0  0  0  0  0  0  0  0
    8.5652    1.5478   25.3778 N   0  0  0  0  0  0  0  0  0  0  0  0
    6.8048   -7.5457   17.8752 C   0  0  0  0  0  0  0  0  0  0  0  0
    6.1721   -8.2186   15.9886 N   0  0  0  0  0  0  0  0  0  0  0  0
   11.1764   -2.6600   19.5604 C   0  0  0  0  0  0  0  0  0  0  0  0
    9.5491   -0.6380   24.1912 C   0  0  0  0  0  0  0  0  0  0  0  0
    7.5337   -6.9256   16.9519 C   0  0  0  0  0  0  0  0  0  0  0  0
    9.6782    0.5671   23.5143 C   0  0  0  0  0  0  0  0  0  0  0  0
    8.4532    0.3482   26.0821 C   0  0  0  0  0  0  0  0  0  0  0  0
   10.4239   -1.7677   22.2230 N   0  0  0  0  0  0  0  0  0  0  0  0
    9.9468   -4.5953   20.1709 C   0  0  0  0  0  0  0  0  0  0  0  0
   10.0366   -3.0590   23.9864 N   0  0  0  0  0  0  0  0  0  0  0  0
    7.1191   -7.3636   15.7739 C   0  0  0  0  0  0  0  0  0  0  0  0
    5.9612   -8.3203   17.2732 N   0  0  0  0  0  0  0  0  0  0  0  0
    8.5296   -5.9814   17.1841 C   0  0  0  0  0  0  0  0  0  0  0  0
    9.1527   -5.2118   16.2116 C   0  0  0  0  0  0  0  0  0  0  0  0
   10.3364   -3.8368   22.9255 O   0  0  0  0  0  0  0  0  0  0  0  0
    9.6947   -4.8407   18.8534 C   0  0  0  0  0  0  0  0  0  0  0  0
    9.1596    1.7042   24.1381 C   0  0  0  0  0  0  0  0  0  0  0  0
   11.0456   -2.9774   18.2694 N   0  0  0  0  0  0  0  0  0  0  0  0
   10.4788   -3.0457   21.8593 C   0  0  0  0  0  0  0  0  0  0  0  0
    8.8693   -5.8099   18.4657 N   0  0  0  0  0  0  0  0  0  0  0  0
    8.9892   -0.7926   25.4573 C   0  0  0  0  0  0  0  0  0  0  0  0
   10.5677   -3.4462   20.5323 C   0  0  0  0  0  0  0  0  0  0  0  0
  1  8  1  0
  1 12  4  0
  1 14  4  0
  2  3  4  0
  2 18  4  0
  3 20  4  0
  3 22  4  0
  4 11  4  0
  4 21  4  0
  5  9  4  0
  5 16  4  0
  6 15  4  0
  6 16  4  0
  7 22  4  0
  7 26  4  0
  8 10  4  0
  8 25  4  0
  9 15  4  0
  9 17  1  0
 10 21  4  0
 11 25  4  0
 12 23  4  0
 13 20  4  0
 13 26  4  0
 14 19  4  0
 17 18  4  0
 17 24  4  0
 19 23  4  0
 20 24  4  0
 23 26  1  0
M  END
$$$$

 Created by Python create_sdf_string function

 26 30  0  0  0  0  0  0  0  0999 V2000
   10.0084   -1.8019   23.4945 C   0  0  0  0  0  0  0  0  0  0  0  0
   10.0005   -4.2520   16.5631 C   0  0  0  0  0  0  0  0  0  0  0  0
   10.2759   -4.0036   17.8845 C   0  0  0  0  0  0  0  0  0  0  0  0
    8.5652    1.5478   25.3778 N   0  0  0  0  0  0  0  0  0  0  0  0
    6.8048   -7.5457   17.8752 C   0  0  0  0  0  0  0  0  0  0  0  0
    6.1721   -8.2186   15.9886 N   0  0  0  0  0  0  0  0  0  0  0  0
   11.1764   -2.6600   19.5604 C   0  0  0  0  0  0  0  0  0  0  0  0
    9.5491   -0.6380   24.1912 C   0  0  0  0  0  0  0  0  0  0  0  0
    7.5337   -6.9256   16.9519 C   0  0  0  0  0  0  0  0  0  0  0  0
    9.6782    0.5671   23.5143 C   0  0  0  0  0  0  0  0  0  0  0  0
    8.4532    0.3482   26.0821 C   0  0  0  0  0  0  0  0  0  0  0  0
   10.4239   -1.7677   22.2230 N   0  0  0  0  0  0  0  0  0  0  0  0
    9.9468   -4.5953   20.1709 C   0  0  0  0  0  0  0  0  0  0  0  0
   10.0366   -3.0590   23.9864 N   0  0  0  0  0  0  0  0  0  0  0  0
    7.1191   -7.3636   15.7739 C   0  0  0  0  0  0  0  0  0  0  0  0
    5.9612   -8.3203   17.2732 N   0  0  0  0  0  0  0  0  0  0  0  0
    8.5296   -5.9814   17.1841 C   0  0  0  0  0  0  0  0  0  0  0  0
    9.1527   -5.2118   16.2116 C   0  0  0  0  0  0  0  0  0  0  0  0
   10.3364   -3.8368   22.9255 O   0  0  0  0  0  0  0  0  0  0  0  0
    9.6947   -4.8407   18.8534 C   0  0  0  0  0  0  0  0  0  0  0  0
    9.1596    1.7042   24.1381 C   0  0  0  0  0  0  0  0  0  0  0  0
   11.0456   -2.9774   18.2694 N   0  0  0  0  0  0  0  0  0  0  0  0
   10.4788   -3.0457   21.8593 C   0  0  0  0  0  0  0  0  0  0  0  0
    8.8693   -5.8099   18.4657 N   0  0  0  0  0  0  0  0  0  0  0  0
    8.9892   -0.7926   25.4573 C   0  0  0  0  0  0  0  0  0  0  0  0
   10.5677   -3.4462   20.5323 C   0  0  0  0  0  0  0  0  0  0  0  0
  1  8  1  0
  1 12  4  0
  1 14  4  0
  2  3  4  0
  2 18  4  0
  3 20  4  0
  3 22  4  0
  4 11  4  0
  4 21  4  0
  5  9  4  0
  5 16  4  0
  6 15  4  0
  6 16  4  0
  7 22  4  0
  7 26  4  0
  8 10  4  0
  8 25  4  0
  9 15  4  0
  9 17  1  0
 10 21  4  0
 11 25  4  0
 12 23  4  0
 13 20  4  0
 13 26  4  0
 14 19  4  0
 17 18  4  0
 17 24  4  0
 19 23  4  0
 20 24  4  0
 23 26  1  0
M  END
$$$$

 Created by Python create_sdf_string function

 26 30  0  0  0  0  0  0  0  0999 V2000
   10.0084   -1.8019   23.4945 C   0  0  0  0  0  0  0  0  0  0  0  0
   10.0005   -4.2520   16.5631 C   0  0  0  0  0  0  0  0  0  0  0  0
   10.2759   -4.0036   17.8845 C   0  0  0  0  0  0  0  0  0  0  0  0
    8.5652    1.5478   25.3778 N   0  0  0  0  0  0  0  0  0  0  0  0
    6.8048   -7.5457   17.8752 C   0  0  0  0  0  0  0  0  0  0  0  0
    6.1721   -8.2186   15.9886 N   0  0  0  0  0  0  0  0  0  0  0  0
   11.1764   -2.6600   19.5604 C   0  0  0  0  0  0  0  0  0  0  0  0
    9.5491   -0.6380   24.1912 C   0  0  0  0  0  0  0  0  0  0  0  0
    7.5337   -6.9256   16.9519 C   0  0  0  0  0  0  0  0  0  0  0  0
    9.6782    0.5671   23.5143 C   0  0  0  0  0  0  0  0  0  0  0  0
    8.4532    0.3482   26.0821 C   0  0  0  0  0  0  0  0  0  0  0  0
   10.4239   -1.7677   22.2230 N   0  0  0  0  0  0  0  0  0  0  0  0
    9.9468   -4.5953   20.1709 C   0  0  0  0  0  0  0  0  0  0  0  0
   10.0366   -3.0590   23.9864 N   0  0  0  0  0  0  0  0  0  0  0  0
    7.1191   -7.3636   15.7739 C   0  0  0  0  0  0  0  0  0  0  0  0
    5.9612   -8.3203   17.2732 N   0  0  0  0  0  0  0  0  0  0  0  0
    8.5296   -5.9814   17.1841 C   0  0  0  0  0  0  0  0  0  0  0  0
    9.1527   -5.2118   16.2116 C   0  0  0  0  0  0  0  0  0  0  0  0
   10.3364   -3.8368   22.9255 O   0  0  0  0  0  0  0  0  0  0  0  0
    9.6947   -4.8407   18.8534 C   0  0  0  0  0  0  0  0  0  0  0  0
    9.1596    1.7042   24.1381 C   0  0  0  0  0  0  0  0  0  0  0  0
   11.0456   -2.9774   18.2694 N   0  0  0  0  0  0  0  0  0  0  0  0
   10.4788   -3.0457   21.8593 C   0  0  0  0  0  0  0  0  0  0  0  0
    8.8693   -5.8099   18.4657 N   0  0  0  0  0  0  0  0  0  0  0  0
    8.9892   -0.7926   25.4573 C   0  0  0  0  0  0  0  0  0  0  0  0
   10.5677   -3.4462   20.5323 C   0  0  0  0  0  0  0  0  0  0  0  0
  1  8  1  0
  1 12  4  0
  1 14  4  0
  2  3  4  0
  2 18  4  0
  3 20  4  0
  3 22  4  0
  4 11  4  0
  4 21  4  0
  5  9  4  0
  5 16  4  0
  6 15  4  0
  6 16  4  0
  7 22  4  0
  7 26  4  0
  8 10  4  0
  8 25  4  0
  9 15  4  0
  9 17  1  0
 10 21  4  0
 11 25  4  0
 12 23  4  0
 13 20  4  0
 13 26  4  0
 14 19  4  0
 17 18  4  0
 17 24  4  0
 19 23  4  0
 20 24  4  0
 23 26  1  0
M  END
$$$$

 Created by Python create_sdf_string function

 26 30  0  0  0  0  0  0  0  0999 V2000
   10.0084   -1.8019   23.4945 C   0  0  0  0  0  0  0  0  0  0  0  0
   10.0005   -4.2520   16.5631 C   0  0  0  0  0  0  0  0  0  0  0  0
   10.2759   -4.0036   17.8845 C   0  0  0  0  0  0  0  0  0  0  0  0
    8.5652    1.5478   25.3778 N   0  0  0  0  0  0  0  0  0  0  0  0
    6.8048   -7.5457   17.8752 C   0  0  0  0  0  0  0  0  0  0  0  0
    6.1721   -8.2186   15.9886 N   0  0  0  0  0  0  0  0  0  0  0  0
   11.1764   -2.6600   19.5604 C   0  0  0  0  0  0  0  0  0  0  0  0
    9.5491   -0.6380   24.1912 C   0  0  0  0  0  0  0  0  0  0  0  0
    7.5337   -6.9256   16.9519 C   0  0  0  0  0  0  0  0  0  0  0  0
    9.6782    0.5671   23.5143 C   0  0  0  0  0  0  0  0  0  0  0  0
    8.4532    0.3482   26.0821 C   0  0  0  0  0  0  0  0  0  0  0  0
   10.4239   -1.7677   22.2230 N   0  0  0  0  0  0  0  0  0  0  0  0
    9.9468   -4.5953   20.1709 C   0  0  0  0  0  0  0  0  0  0  0  0
   10.0366   -3.0590   23.9864 N   0  0  0  0  0  0  0  0  0  0  0  0
    7.1191   -7.3636   15.7739 C   0  0  0  0  0  0  0  0  0  0  0  0
    5.9612   -8.3203   17.2732 N   0  0  0  0  0  0  0  0  0  0  0  0
    8.5296   -5.9814   17.1841 C   0  0  0  0  0  0  0  0  0  0  0  0
    9.1527   -5.2118   16.2116 C   0  0  0  0  0  0  0  0  0  0  0  0
   10.3364   -3.8368   22.9255 O   0  0  0  0  0  0  0  0  0  0  0  0
    9.6947   -4.8407   18.8534 C   0  0  0  0  0  0  0  0  0  0  0  0
    9.1596    1.7042   24.1381 C   0  0  0  0  0  0  0  0  0  0  0  0
   11.0456   -2.9774   18.2694 N   0  0  0  0  0  0  0  0  0  0  0  0
   10.4788   -3.0457   21.8593 C   0  0  0  0  0  0  0  0  0  0  0  0
    8.8693   -5.8099   18.4657 N   0  0  0  0  0  0  0  0  0  0  0  0
    8.9892   -0.7926   25.4573 C   0  0  0  0  0  0  0  0  0  0  0  0
   10.5677   -3.4462   20.5323 C   0  0  0  0  0  0  0  0  0  0  0  0
  1  8  1  0
  1 12  4  0
  1 14  4  0
  2  3  4  0
  2 18  4  0
  3 20  4  0
  3 22  4  0
  4 11  4  0
  4 21  4  0
  5  9  4  0
  5 16  4  0
  6 15  4  0
  6 16  4  0
  7 22  4  0
  7 26  4  0
  8 10  4  0
  8 25  4  0
  9 15  4  0
  9 17  1  0
 10 21  4  0
 11 25  4  0
 12 23  4  0
 13 20  4  0
 13 26  4  0
 14 19  4  0
 17 18  4  0
 17 24  4  0
 19 23  4  0
 20 24  4  0
 23 26  1  0
M  END
$$$$

 Created by Python create_sdf_string function

 26 30  0  0  0  0  0  0  0  0999 V2000
   10.0084   -1.8019   23.4945 C   0  0  0  0  0  0  0  0  0  0  0  0
   10.0005   -4.2520   16.5631 C   0  0  0  0  0  0  0  0  0  0  0  0
   10.2759   -4.0036   17.8845 C   0  0  0  0  0  0  0  0  0  0  0  0
    8.5652    1.5478   25.3778 N   0  0  0  0  0  0  0  0  0  0  0  0
    6.8048   -7.5457   17.8752 C   0  0  0  0  0  0  0  0  0  0  0  0
    6.1721   -8.2186   15.9886 N   0  0  0  0  0  0  0  0  0  0  0  0
   11.1764   -2.6600   19.5604 C   0  0  0  0  0  0  0  0  0  0  0  0
    9.5491   -0.6380   24.1912 C   0  0  0  0  0  0  0  0  0  0  0  0
    7.5337   -6.9256   16.9519 C   0  0  0  0  0  0  0  0  0  0  0  0
    9.6782    0.5671   23.5143 C   0  0  0  0  0  0  0  0  0  0  0  0
    8.4532    0.3482   26.0821 C   0  0  0  0  0  0  0  0  0  0  0  0
   10.4239   -1.7677   22.2230 N   0  0  0  0  0  0  0  0  0  0  0  0
    9.9468   -4.5953   20.1709 C   0  0  0  0  0  0  0  0  0  0  0  0
   10.0366   -3.0590   23.9864 N   0  0  0  0  0  0  0  0  0  0  0  0
    7.1191   -7.3636   15.7739 C   0  0  0  0  0  0  0  0  0  0  0  0
    5.9612   -8.3203   17.2732 N   0  0  0  0  0  0  0  0  0  0  0  0
    8.5296   -5.9814   17.1841 C   0  0  0  0  0  0  0  0  0  0  0  0
    9.1527   -5.2118   16.2116 C   0  0  0  0  0  0  0  0  0  0  0  0
   10.3364   -3.8368   22.9255 O   0  0  0  0  0  0  0  0  0  0  0  0
    9.6947   -4.8407   18.8534 C   0  0  0  0  0  0  0  0  0  0  0  0
    9.1596    1.7042   24.1381 C   0  0  0  0  0  0  0  0  0  0  0  0
   11.0456   -2.9774   18.2694 N   0  0  0  0  0  0  0  0  0  0  0  0
   10.4788   -3.0457   21.8593 C   0  0  0  0  0  0  0  0  0  0  0  0
    8.8693   -5.8099   18.4657 N   0  0  0  0  0  0  0  0  0  0  0  0
    8.9892   -0.7926   25.4573 C   0  0  0  0  0  0  0  0  0  0  0  0
   10.5677   -3.4462   20.5323 C   0  0  0  0  0  0  0  0  0  0  0  0
  1  8  1  0
  1 12  4  0
  1 14  4  0
  2  3  4  0
  2 18  4  0
  3 20  4  0
  3 22  4  0
  4 11  4  0
  4 21  4  0
  5  9  4  0
  5 16  4  0
  6 15  4  0
  6 16  4  0
  7 22  4  0
  7 26  4  0
  8 10  4  0
  8 25  4  0
  9 15  4  0
  9 17  1  0
 10 21  4  0
 11 25  4  0
 12 23  4  0
 13 20  4  0
 13 26  4  0
 14 19  4  0
 17 18  4  0
 17 24  4  0
 19 23  4  0
 20 24  4  0
 23 26  1  0
M  END
$$$$

 Created by Python create_sdf_string function

 26 30  0  0  0  0  0  0  0  0999 V2000
   10.0084   -1.8019   23.4945 C   0  0  0  0  0  0  0  0  0  0  0  0
   10.0005   -4.2520   16.5631 C   0  0  0  0  0  0  0  0  0  0  0  0
   10.2759   -4.0036   17.8845 C   0  0  0  0  0  0  0  0  0  0  0  0
    8.5652    1.5478   25.3778 N   0  0  0  0  0  0  0  0  0  0  0  0
    6.8048   -7.5457   17.8752 C   0  0  0  0  0  0  0  0  0  0  0  0
    6.1721   -8.2186   15.9886 N   0  0  0  0  0  0  0  0  0  0  0  0
   11.1764   -2.6600   19.5604 C   0  0  0  0  0  0  0  0  0  0  0  0
    9.5491   -0.6380   24.1912 C   0  0  0  0  0  0  0  0  0  0  0  0
    7.5337   -6.9256   16.9519 C   0  0  0  0  0  0  0  0  0  0  0  0
    9.6782    0.5671   23.5143 C   0  0  0  0  0  0  0  0  0  0  0  0
    8.4532    0.3482   26.0821 C   0  0  0  0  0  0  0  0  0  0  0  0
   10.4239   -1.7677   22.2230 N   0  0  0  0  0  0  0  0  0  0  0  0
    9.9468   -4.5953   20.1709 C   0  0  0  0  0  0  0  0  0  0  0  0
   10.0366   -3.0590   23.9864 N   0  0  0  0  0  0  0  0  0  0  0  0
    7.1191   -7.3636   15.7739 C   0  0  0  0  0  0  0  0  0  0  0  0
    5.9612   -8.3203   17.2732 N   0  0  0  0  0  0  0  0  0  0  0  0
    8.5296   -5.9814   17.1841 C   0  0  0  0  0  0  0  0  0  0  0  0
    9.1527   -5.2118   16.2116 C   0  0  0  0  0  0  0  0  0  0  0  0
   10.3364   -3.8368   22.9255 O   0  0  0  0  0  0  0  0  0  0  0  0
    9.6947   -4.8407   18.8534 C   0  0  0  0  0  0  0  0  0  0  0  0
    9.1596    1.7042   24.1381 C   0  0  0  0  0  0  0  0  0  0  0  0
   11.0456   -2.9774   18.2694 N   0  0  0  0  0  0  0  0  0  0  0  0
   10.4788   -3.0457   21.8593 C   0  0  0  0  0  0  0  0  0  0  0  0
    8.8693   -5.8099   18.4657 N   0  0  0  0  0  0  0  0  0  0  0  0
    8.9892   -0.7926   25.4573 C   0  0  0  0  0  0  0  0  0  0  0  0
   10.5677   -3.4462   20.5323 C   0  0  0  0  0  0  0  0  0  0  0  0
  1  8  1  0
  1 12  4  0
  1 14  4  0
  2  3  4  0
  2 18  4  0
  3 20  4  0
  3 22  4  0
  4 11  4  0
  4 21  4  0
  5  9  4  0
  5 16  4  0
  6 15  4  0
  6 16  4  0
  7 22  4  0
  7 26  4  0
  8 10  4  0
  8 25  4  0
  9 15  4  0
  9 17  1  0
 10 21  4  0
 11 25  4  0
 12 23  4  0
 13 20  4  0
 13 26  4  0
 14 19  4  0
 17 18  4  0
 17 24  4  0
 19 23  4  0
 20 24  4  0
 23 26  1  0
M  END
$$$$

 Created by Python create_sdf_string function

 26 30  0  0  0  0  0  0  0  0999 V2000
   10.0084   -1.8019   23.4945 C   0  0  0  0  0  0  0  0  0  0  0  0
   10.0005   -4.2520   16.5631 C   0  0  0  0  0  0  0  0  0  0  0  0
   10.2759   -4.0036   17.8845 C   0  0  0  0  0  0  0  0  0  0  0  0
    8.5652    1.5478   25.3778 N   0  0  0  0  0  0  0  0  0  0  0  0
    6.8048   -7.5457   17.8752 C   0  0  0  0  0  0  0  0  0  0  0  0
    6.1721   -8.2186   15.9886 N   0  0  0  0  0  0  0  0  0  0  0  0
   11.1764   -2.6600   19.5604 C   0  0  0  0  0  0  0  0  0  0  0  0
    9.5491   -0.6380   24.1912 C   0  0  0  0  0  0  0  0  0  0  0  0
    7.5337   -6.9256   16.9519 C   0  0  0  0  0  0  0  0  0  0  0  0
    9.6782    0.5671   23.5143 C   0  0  0  0  0  0  0  0  0  0  0  0
    8.4532    0.3482   26.0821 C   0  0  0  0  0  0  0  0  0  0  0  0
   10.4239   -1.7677   22.2230 N   0  0  0  0  0  0  0  0  0  0  0  0
    9.9468   -4.5953   20.1709 C   0  0  0  0  0  0  0  0  0  0  0  0
   10.0366   -3.0590   23.9864 N   0  0  0  0  0  0  0  0  0  0  0  0
    7.1191   -7.3636   15.7739 C   0  0  0  0  0  0  0  0  0  0  0  0
    5.9612   -8.3203   17.2732 N   0  0  0  0  0  0  0  0  0  0  0  0
    8.5296   -5.9814   17.1841 C   0  0  0  0  0  0  0  0  0  0  0  0
    9.1527   -5.2118   16.2116 C   0  0  0  0  0  0  0  0  0  0  0  0
   10.3364   -3.8368   22.9255 O   0  0  0  0  0  0  0  0  0  0  0  0
    9.6947   -4.8407   18.8534 C   0  0  0  0  0  0  0  0  0  0  0  0
    9.1596    1.7042   24.1381 C   0  0  0  0  0  0  0  0  0  0  0  0
   11.0456   -2.9774   18.2694 N   0  0  0  0  0  0  0  0  0  0  0  0
   10.4788   -3.0457   21.8593 C   0  0  0  0  0  0  0  0  0  0  0  0
    8.8693   -5.8099   18.4657 N   0  0  0  0  0  0  0  0  0  0  0  0
    8.9892   -0.7926   25.4573 C   0  0  0  0  0  0  0  0  0  0  0  0
   10.5677   -3.4462   20.5323 C   0  0  0  0  0  0  0  0  0  0  0  0
  1  8  1  0
  1 12  4  0
  1 14  4  0
  2  3  4  0
  2 18  4  0
  3 20  4  0
  3 22  4  0
  4 11  4  0
  4 21  4  0
  5  9  4  0
  5 16  4  0
  6 15  4  0
  6 16  4  0
  7 22  4  0
  7 26  4  0
  8 10  4  0
  8 25  4  0
  9 15  4  0
  9 17  1  0
 10 21  4  0
 11 25  4  0
 12 23  4  0
 13 20  4  0
 13 26  4  0
 14 19  4  0
 17 18  4  0
 17 24  4  0
 19 23  4  0
 20 24  4  0
 23 26  1  0
M  END
$$$$

 Created by Python create_sdf_string function

 26 30  0  0  0  0  0  0  0  0999 V2000
   10.0084   -1.8019   23.4945 C   0  0  0  0  0  0  0  0  0  0  0  0
   10.0005   -4.2520   16.5631 C   0  0  0  0  0  0  0  0  0  0  0  0
   10.2759   -4.0036   17.8845 C   0  0  0  0  0  0  0  0  0  0  0  0
    8.5652    1.5478   25.3778 N   0  0  0  0  0  0  0  0  0  0  0  0
    6.8048   -7.5457   17.8752 C   0  0  0  0  0  0  0  0  0  0  0  0
    6.1721   -8.2186   15.9886 N   0  0  0  0  0  0  0  0  0  0  0  0
   11.1764   -2.6600   19.5604 C   0  0  0  0  0  0  0  0  0  0  0  0
    9.5491   -0.6380   24.1912 C   0  0  0  0  0  0  0  0  0  0  0  0
    7.5337   -6.9256   16.9519 C   0  0  0  0  0  0  0  0  0  0  0  0
    9.6782    0.5671   23.5143 C   0  0  0  0  0  0  0  0  0  0  0  0
    8.4532    0.3482   26.0821 C   0  0  0  0  0  0  0  0  0  0  0  0
   10.4239   -1.7677   22.2230 N   0  0  0  0  0  0  0  0  0  0  0  0
    9.9468   -4.5953   20.1709 C   0  0  0  0  0  0  0  0  0  0  0  0
   10.0366   -3.0590   23.9864 N   0  0  0  0  0  0  0  0  0  0  0  0
    7.1191   -7.3636   15.7739 C   0  0  0  0  0  0  0  0  0  0  0  0
    5.9612   -8.3203   17.2732 N   0  0  0  0  0  0  0  0  0  0  0  0
    8.5296   -5.9814   17.1841 C   0  0  0  0  0  0  0  0  0  0  0  0
    9.1527   -5.2118   16.2116 C   0  0  0  0  0  0  0  0  0  0  0  0
   10.3364   -3.8368   22.9255 O   0  0  0  0  0  0  0  0  0  0  0  0
    9.6947   -4.8407   18.8534 C   0  0  0  0  0  0  0  0  0  0  0  0
    9.1596    1.7042   24.1381 C   0  0  0  0  0  0  0  0  0  0  0  0
   11.0456   -2.9774   18.2694 N   0  0  0  0  0  0  0  0  0  0  0  0
   10.4788   -3.0457   21.8593 C   0  0  0  0  0  0  0  0  0  0  0  0
    8.8693   -5.8099   18.4657 N   0  0  0  0  0  0  0  0  0  0  0  0
    8.9892   -0.7926   25.4573 C   0  0  0  0  0  0  0  0  0  0  0  0
   10.5677   -3.4462   20.5323 C   0  0  0  0  0  0  0  0  0  0  0  0
  1  8  1  0
  1 12  4  0
  1 14  4  0
  2  3  4  0
  2 18  4  0
  3 20  4  0
  3 22  4  0
  4 11  4  0
  4 21  4  0
  5  9  4  0
  5 16  4  0
  6 15  4  0
  6 16  4  0
  7 22  4  0
  7 26  4  0
  8 10  4  0
  8 25  4  0
  9 15  4  0
  9 17  1  0
 10 21  4  0
 11 25  4  0
 12 23  4  0
 13 20  4  0
 13 26  4  0
 14 19  4  0
 17 18  4  0
 17 24  4  0
 19 23  4  0
 20 24  4  0
 23 26  1  0
M  END
$$$$

 Created by Python create_sdf_string function

 26 30  0  0  0  0  0  0  0  0999 V2000
   10.0084   -1.8019   23.4945 C   0  0  0  0  0  0  0  0  0  0  0  0
   10.0005   -4.2520   16.5631 C   0  0  0  0  0  0  0  0  0  0  0  0
   10.2759   -4.0036   17.8845 C   0  0  0  0  0  0  0  0  0  0  0  0
    8.5652    1.5478   25.3778 N   0  0  0  0  0  0  0  0  0  0  0  0
    6.8048   -7.5457   17.8752 C   0  0  0  0  0  0  0  0  0  0  0  0
    6.1721   -8.2186   15.9886 N   0  0  0  0  0  0  0  0  0  0  0  0
   11.1764   -2.6600   19.5604 C   0  0  0  0  0  0  0  0  0  0  0  0
    9.5491   -0.6380   24.1912 C   0  0  0  0  0  0  0  0  0  0  0  0
    7.5337   -6.9256   16.9519 C   0  0  0  0  0  0  0  0  0  0  0  0
    9.6782    0.5671   23.5143 C   0  0  0  0  0  0  0  0  0  0  0  0
    8.4532    0.3482   26.0821 C   0  0  0  0  0  0  0  0  0  0  0  0
   10.4239   -1.7677   22.2230 N   0  0  0  0  0  0  0  0  0  0  0  0
    9.9468   -4.5953   20.1709 C   0  0  0  0  0  0  0  0  0  0  0  0
   10.0366   -3.0590   23.9864 N   0  0  0  0  0  0  0  0  0  0  0  0
    7.1191   -7.3636   15.7739 C   0  0  0  0  0  0  0  0  0  0  0  0
    5.9612   -8.3203   17.2732 N   0  0  0  0  0  0  0  0  0  0  0  0
    8.5296   -5.9814   17.1841 C   0  0  0  0  0  0  0  0  0  0  0  0
    9.1527   -5.2118   16.2116 C   0  0  0  0  0  0  0  0  0  0  0  0
   10.3364   -3.8368   22.9255 O   0  0  0  0  0  0  0  0  0  0  0  0
    9.6947   -4.8407   18.8534 C   0  0  0  0  0  0  0  0  0  0  0  0
    9.1596    1.7042   24.1381 C   0  0  0  0  0  0  0  0  0  0  0  0
   11.0456   -2.9774   18.2694 N   0  0  0  0  0  0  0  0  0  0  0  0
   10.4788   -3.0457   21.8593 C   0  0  0  0  0  0  0  0  0  0  0  0
    8.8693   -5.8099   18.4657 N   0  0  0  0  0  0  0  0  0  0  0  0
    8.9892   -0.7926   25.4573 C   0  0  0  0  0  0  0  0  0  0  0  0
   10.5677   -3.4462   20.5323 C   0  0  0  0  0  0  0  0  0  0  0  0
  1  8  1  0
  1 12  4  0
  1 14  4  0
  2  3  4  0
  2 18  4  0
  3 20  4  0
  3 22  4  0
  4 11  4  0
  4 21  4  0
  5  9  4  0
  5 16  4  0
  6 15  4  0
  6 16  4  0
  7 22  4  0
  7 26  4  0
  8 10  4  0
  8 25  4  0
  9 15  4  0
  9 17  1  0
 10 21  4  0
 11 25  4  0
 12 23  4  0
 13 20  4  0
 13 26  4  0
 14 19  4  0
 17 18  4  0
 17 24  4  0
 19 23  4  0
 20 24  4  0
 23 26  1  0
M  END
$$$$

 Created by Python create_sdf_string function

 26 30  0  0  0  0  0  0  0  0999 V2000
   10.0084   -1.8019   23.4945 C   0  0  0  0  0  0  0  0  0  0  0  0
   10.0005   -4.2520   16.5631 C   0  0  0  0  0  0  0  0  0  0  0  0
   10.2759   -4.0036   17.8845 C   0  0  0  0  0  0  0  0  0  0  0  0
    8.5652    1.5478   25.3778 N   0  0  0  0  0  0  0  0  0  0  0  0
    6.8048   -7.5457   17.8752 C   0  0  0  0  0  0  0  0  0  0  0  0
    6.1721   -8.2186   15.9886 N   0  0  0  0  0  0  0  0  0  0  0  0
   11.1764   -2.6600   19.5604 C   0  0  0  0  0  0  0  0  0  0  0  0
    9.5491   -0.6380   24.1912 C   0  0  0  0  0  0  0  0  0  0  0  0
    7.5337   -6.9256   16.9519 C   0  0  0  0  0  0  0  0  0  0  0  0
    9.6782    0.5671   23.5143 C   0  0  0  0  0  0  0  0  0  0  0  0
    8.4532    0.3482   26.0821 C   0  0  0  0  0  0  0  0  0  0  0  0
   10.4239   -1.7677   22.2230 N   0  0  0  0  0  0  0  0  0  0  0  0
    9.9468   -4.5953   20.1709 C   0  0  0  0  0  0  0  0  0  0  0  0
   10.0366   -3.0590   23.9864 N   0  0  0  0  0  0  0  0  0  0  0  0
    7.1191   -7.3636   15.7739 C   0  0  0  0  0  0  0  0  0  0  0  0
    5.9612   -8.3203   17.2732 N   0  0  0  0  0  0  0  0  0  0  0  0
    8.5296   -5.9814   17.1841 C   0  0  0  0  0  0  0  0  0  0  0  0
    9.1527   -5.2118   16.2116 C   0  0  0  0  0  0  0  0  0  0  0  0
   10.3364   -3.8368   22.9255 O   0  0  0  0  0  0  0  0  0  0  0  0
    9.6947   -4.8407   18.8534 C   0  0  0  0  0  0  0  0  0  0  0  0
    9.1596    1.7042   24.1381 C   0  0  0  0  0  0  0  0  0  0  0  0
   11.0456   -2.9774   18.2694 N   0  0  0  0  0  0  0  0  0  0  0  0
   10.4788   -3.0457   21.8593 C   0  0  0  0  0  0  0  0  0  0  0  0
    8.8693   -5.8099   18.4657 N   0  0  0  0  0  0  0  0  0  0  0  0
    8.9892   -0.7926   25.4573 C   0  0  0  0  0  0  0  0  0  0  0  0
   10.5677   -3.4462   20.5323 C   0  0  0  0  0  0  0  0  0  0  0  0
  1  8  1  0
  1 12  4  0
  1 14  4  0
  2  3  4  0
  2 18  4  0
  3 20  4  0
  3 22  4  0
  4 11  4  0
  4 21  4  0
  5  9  4  0
  5 16  4  0
  6 15  4  0
  6 16  4  0
  7 22  4  0
  7 26  4  0
  8 10  4  0
  8 25  4  0
  9 15  4  0
  9 17  1  0
 10 21  4  0
 11 25  4  0
 12 23  4  0
 13 20  4  0
 13 26  4  0
 14 19  4  0
 17 18  4  0
 17 24  4  0
 19 23  4  0
 20 24  4  0
 23 26  1  0
M  END
$$$$

 Created by Python create_sdf_string function

 26 30  0  0  0  0  0  0  0  0999 V2000
   10.0084   -1.8019   23.4945 C   0  0  0  0  0  0  0  0  0  0  0  0
   10.0005   -4.2520   16.5631 C   0  0  0  0  0  0  0  0  0  0  0  0
   10.2759   -4.0036   17.8845 C   0  0  0  0  0  0  0  0  0  0  0  0
    8.5652    1.5478   25.3778 N   0  0  0  0  0  0  0  0  0  0  0  0
    6.8048   -7.5457   17.8752 C   0  0  0  0  0  0  0  0  0  0  0  0
    6.1721   -8.2186   15.9886 N   0  0  0  0  0  0  0  0  0  0  0  0
   11.1764   -2.6600   19.5604 C   0  0  0  0  0  0  0  0  0  0  0  0
    9.5491   -0.6380   24.1912 C   0  0  0  0  0  0  0  0  0  0  0  0
    7.5337   -6.9256   16.9519 C   0  0  0  0  0  0  0  0  0  0  0  0
    9.6782    0.5671   23.5143 C   0  0  0  0  0  0  0  0  0  0  0  0
    8.4532    0.3482   26.0821 C   0  0  0  0  0  0  0  0  0  0  0  0
   10.4239   -1.7677   22.2230 N   0  0  0  0  0  0  0  0  0  0  0  0
    9.9468   -4.5953   20.1709 C   0  0  0  0  0  0  0  0  0  0  0  0
   10.0366   -3.0590   23.9864 N   0  0  0  0  0  0  0  0  0  0  0  0
    7.1191   -7.3636   15.7739 C   0  0  0  0  0  0  0  0  0  0  0  0
    5.9612   -8.3203   17.2732 N   0  0  0  0  0  0  0  0  0  0  0  0
    8.5296   -5.9814   17.1841 C   0  0  0  0  0  0  0  0  0  0  0  0
    9.1527   -5.2118   16.2116 C   0  0  0  0  0  0  0  0  0  0  0  0
   10.3364   -3.8368   22.9255 O   0  0  0  0  0  0  0  0  0  0  0  0
    9.6947   -4.8407   18.8534 C   0  0  0  0  0  0  0  0  0  0  0  0
    9.1596    1.7042   24.1381 C   0  0  0  0  0  0  0  0  0  0  0  0
   11.0456   -2.9774   18.2694 N   0  0  0  0  0  0  0  0  0  0  0  0
   10.4788   -3.0457   21.8593 C   0  0  0  0  0  0  0  0  0  0  0  0
    8.8693   -5.8099   18.4657 N   0  0  0  0  0  0  0  0  0  0  0  0
    8.9892   -0.7926   25.4573 C   0  0  0  0  0  0  0  0  0  0  0  0
   10.5677   -3.4462   20.5323 C   0  0  0  0  0  0  0  0  0  0  0  0
  1  8  1  0
  1 12  4  0
  1 14  4  0
  2  3  4  0
  2 18  4  0
  3 20  4  0
  3 22  4  0
  4 11  4  0
  4 21  4  0
  5  9  4  0
  5 16  4  0
  6 15  4  0
  6 16  4  0
  7 22  4  0
  7 26  4  0
  8 10  4  0
  8 25  4  0
  9 15  4  0
  9 17  1  0
 10 21  4  0
 11 25  4  0
 12 23  4  0
 13 20  4  0
 13 26  4  0
 14 19  4  0
 17 18  4  0
 17 24  4  0
 19 23  4  0
 20 24  4  0
 23 26  1  0
M  END
$$$$

 Created by Python create_sdf_string function

 26 30  0  0  0  0  0  0  0  0999 V2000
   10.0084   -1.8019   23.4945 C   0  0  0  0  0  0  0  0  0  0  0  0
   10.0005   -4.2520   16.5631 C   0  0  0  0  0  0  0  0  0  0  0  0
   10.2759   -4.0036   17.8845 C   0  0  0  0  0  0  0  0  0  0  0  0
    8.5652    1.5478   25.3778 N   0  0  0  0  0  0  0  0  0  0  0  0
    6.8048   -7.5457   17.8752 C   0  0  0  0  0  0  0  0  0  0  0  0
    6.1721   -8.2186   15.9886 N   0  0  0  0  0  0  0  0  0  0  0  0
   11.1764   -2.6600   19.5604 C   0  0  0  0  0  0  0  0  0  0  0  0
    9.5491   -0.6380   24.1912 C   0  0  0  0  0  0  0  0  0  0  0  0
    7.5337   -6.9256   16.9519 C   0  0  0  0  0  0  0  0  0  0  0  0
    9.6782    0.5671   23.5143 C   0  0  0  0  0  0  0  0  0  0  0  0
    8.4532    0.3482   26.0821 C   0  0  0  0  0  0  0  0  0  0  0  0
   10.4239   -1.7677   22.2230 N   0  0  0  0  0  0  0  0  0  0  0  0
    9.9468   -4.5953   20.1709 C   0  0  0  0  0  0  0  0  0  0  0  0
   10.0366   -3.0590   23.9864 N   0  0  0  0  0  0  0  0  0  0  0  0
    7.1191   -7.3636   15.7739 C   0  0  0  0  0  0  0  0  0  0  0  0
    5.9612   -8.3203   17.2732 N   0  0  0  0  0  0  0  0  0  0  0  0
    8.5296   -5.9814   17.1841 C   0  0  0  0  0  0  0  0  0  0  0  0
    9.1527   -5.2118   16.2116 C   0  0  0  0  0  0  0  0  0  0  0  0
   10.3364   -3.8368   22.9255 O   0  0  0  0  0  0  0  0  0  0  0  0
    9.6947   -4.8407   18.8534 C   0  0  0  0  0  0  0  0  0  0  0  0
    9.1596    1.7042   24.1381 C   0  0  0  0  0  0  0  0  0  0  0  0
   11.0456   -2.9774   18.2694 N   0  0  0  0  0  0  0  0  0  0  0  0
   10.4788   -3.0457   21.8593 C   0  0  0  0  0  0  0  0  0  0  0  0
    8.8693   -5.8099   18.4657 N   0  0  0  0  0  0  0  0  0  0  0  0
    8.9892   -0.7926   25.4573 C   0  0  0  0  0  0  0  0  0  0  0  0
   10.5677   -3.4462   20.5323 C   0  0  0  0  0  0  0  0  0  0  0  0
  1  8  1  0
  1 12  4  0
  1 14  4  0
  2  3  4  0
  2 18  4  0
  3 20  4  0
  3 22  4  0
  4 11  4  0
  4 21  4  0
  5  9  4  0
  5 16  4  0
  6 15  4  0
  6 16  4  0
  7 22  4  0
  7 26  4  0
  8 10  4  0
  8 25  4  0
  9 15  4  0
  9 17  1  0
 10 21  4  0
 11 25  4  0
 12 23  4  0
 13 20  4  0
 13 26  4  0
 14 19  4  0
 17 18  4  0
 17 24  4  0
 19 23  4  0
 20 24  4  0
 23 26  1  0
M  END
$$$$

 Created by Python create_sdf_string function

 26 30  0  0  0  0  0  0  0  0999 V2000
   10.0084   -1.8019   23.4945 C   0  0  0  0  0  0  0  0  0  0  0  0
   10.0005   -4.2520   16.5631 C   0  0  0  0  0  0  0  0  0  0  0  0
   10.2759   -4.0036   17.8845 C   0  0  0  0  0  0  0  0  0  0  0  0
    8.5652    1.5478   25.3778 N   0  0  0  0  0  0  0  0  0  0  0  0
    6.8048   -7.5457   17.8752 C   0  0  0  0  0  0  0  0  0  0  0  0
    6.1721   -8.2186   15.9886 N   0  0  0  0  0  0  0  0  0  0  0  0
   11.1764   -2.6600   19.5604 C   0  0  0  0  0  0  0  0  0  0  0  0
    9.5491   -0.6380   24.1912 C   0  0  0  0  0  0  0  0  0  0  0  0
    7.5337   -6.9256   16.9519 C   0  0  0  0  0  0  0  0  0  0  0  0
    9.6782    0.5671   23.5143 C   0  0  0  0  0  0  0  0  0  0  0  0
    8.4532    0.3482   26.0821 C   0  0  0  0  0  0  0  0  0  0  0  0
   10.4239   -1.7677   22.2230 N   0  0  0  0  0  0  0  0  0  0  0  0
    9.9468   -4.5953   20.1709 C   0  0  0  0  0  0  0  0  0  0  0  0
   10.0366   -3.0590   23.9864 N   0  0  0  0  0  0  0  0  0  0  0  0
    7.1191   -7.3636   15.7739 C   0  0  0  0  0  0  0  0  0  0  0  0
    5.9612   -8.3203   17.2732 N   0  0  0  0  0  0  0  0  0  0  0  0
    8.5296   -5.9814   17.1841 C   0  0  0  0  0  0  0  0  0  0  0  0
    9.1527   -5.2118   16.2116 C   0  0  0  0  0  0  0  0  0  0  0  0
   10.3364   -3.8368   22.9255 O   0  0  0  0  0  0  0  0  0  0  0  0
    9.6947   -4.8407   18.8534 C   0  0  0  0  0  0  0  0  0  0  0  0
    9.1596    1.7042   24.1381 C   0  0  0  0  0  0  0  0  0  0  0  0
   11.0456   -2.9774   18.2694 N   0  0  0  0  0  0  0  0  0  0  0  0
   10.4788   -3.0457   21.8593 C   0  0  0  0  0  0  0  0  0  0  0  0
    8.8693   -5.8099   18.4657 N   0  0  0  0  0  0  0  0  0  0  0  0
    8.9892   -0.7926   25.4573 C   0  0  0  0  0  0  0  0  0  0  0  0
   10.5677   -3.4462   20.5323 C   0  0  0  0  0  0  0  0  0  0  0  0
  1  8  1  0
  1 12  4  0
  1 14  4  0
  2  3  4  0
  2 18  4  0
  3 20  4  0
  3 22  4  0
  4 11  4  0
  4 21  4  0
  5  9  4  0
  5 16  4  0
  6 15  4  0
  6 16  4  0
  7 22  4  0
  7 26  4  0
  8 10  4  0
  8 25  4  0
  9 15  4  0
  9 17  1  0
 10 21  4  0
 11 25  4  0
 12 23  4  0
 13 20  4  0
 13 26  4  0
 14 19  4  0
 17 18  4  0
 17 24  4  0
 19 23  4  0
 20 24  4  0
 23 26  1  0
M  END
$$$$

 Created by Python create_sdf_string function

 26 30  0  0  0  0  0  0  0  0999 V2000
   10.0084   -1.8019   23.4945 C   0  0  0  0  0  0  0  0  0  0  0  0
   10.0005   -4.2520   16.5631 C   0  0  0  0  0  0  0  0  0  0  0  0
   10.2759   -4.0036   17.8845 C   0  0  0  0  0  0  0  0  0  0  0  0
    8.5652    1.5478   25.3778 N   0  0  0  0  0  0  0  0  0  0  0  0
    6.8048   -7.5457   17.8752 C   0  0  0  0  0  0  0  0  0  0  0  0
    6.1721   -8.2186   15.9886 N   0  0  0  0  0  0  0  0  0  0  0  0
   11.1764   -2.6600   19.5604 C   0  0  0  0  0  0  0  0  0  0  0  0
    9.5491   -0.6380   24.1912 C   0  0  0  0  0  0  0  0  0  0  0  0
    7.5337   -6.9256   16.9519 C   0  0  0  0  0  0  0  0  0  0  0  0
    9.6782    0.5671   23.5143 C   0  0  0  0  0  0  0  0  0  0  0  0
    8.4532    0.3482   26.0821 C   0  0  0  0  0  0  0  0  0  0  0  0
   10.4239   -1.7677   22.2230 N   0  0  0  0  0  0  0  0  0  0  0  0
    9.9468   -4.5953   20.1709 C   0  0  0  0  0  0  0  0  0  0  0  0
   10.0366   -3.0590   23.9864 N   0  0  0  0  0  0  0  0  0  0  0  0
    7.1191   -7.3636   15.7739 C   0  0  0  0  0  0  0  0  0  0  0  0
    5.9612   -8.3203   17.2732 N   0  0  0  0  0  0  0  0  0  0  0  0
    8.5296   -5.9814   17.1841 C   0  0  0  0  0  0  0  0  0  0  0  0
    9.1527   -5.2118   16.2116 C   0  0  0  0  0  0  0  0  0  0  0  0
   10.3364   -3.8368   22.9255 O   0  0  0  0  0  0  0  0  0  0  0  0
    9.6947   -4.8407   18.8534 C   0  0  0  0  0  0  0  0  0  0  0  0
    9.1596    1.7042   24.1381 C   0  0  0  0  0  0  0  0  0  0  0  0
   11.0456   -2.9774   18.2694 N   0  0  0  0  0  0  0  0  0  0  0  0
   10.4788   -3.0457   21.8593 C   0  0  0  0  0  0  0  0  0  0  0  0
    8.8693   -5.8099   18.4657 N   0  0  0  0  0  0  0  0  0  0  0  0
    8.9892   -0.7926   25.4573 C   0  0  0  0  0  0  0  0  0  0  0  0
   10.5677   -3.4462   20.5323 C   0  0  0  0  0  0  0  0  0  0  0  0
  1  8  1  0
  1 12  4  0
  1 14  4  0
  2  3  4  0
  2 18  4  0
  3 20  4  0
  3 22  4  0
  4 11  4  0
  4 21  4  0
  5  9  4  0
  5 16  4  0
  6 15  4  0
  6 16  4  0
  7 22  4  0
  7 26  4  0
  8 10  4  0
  8 25  4  0
  9 15  4  0
  9 17  1  0
 10 21  4  0
 11 25  4  0
 12 23  4  0
 13 20  4  0
 13 26  4  0
 14 19  4  0
 17 18  4  0
 17 24  4  0
 19 23  4  0
 20 24  4  0
 23 26  1  0
M  END
$$$$

 Created by Python create_sdf_string function

 26 30  0  0  0  0  0  0  0  0999 V2000
   10.0084   -1.8019   23.4945 C   0  0  0  0  0  0  0  0  0  0  0  0
   10.0005   -4.2520   16.5631 C   0  0  0  0  0  0  0  0  0  0  0  0
   10.2759   -4.0036   17.8845 C   0  0  0  0  0  0  0  0  0  0  0  0
    8.5652    1.5478   25.3778 N   0  0  0  0  0  0  0  0  0  0  0  0
    6.8048   -7.5457   17.8752 C   0  0  0  0  0  0  0  0  0  0  0  0
    6.1721   -8.2186   15.9886 N   0  0  0  0  0  0  0  0  0  0  0  0
   11.1764   -2.6600   19.5604 C   0  0  0  0  0  0  0  0  0  0  0  0
    9.5491   -0.6380   24.1912 C   0  0  0  0  0  0  0  0  0  0  0  0
    7.5337   -6.9256   16.9519 C   0  0  0  0  0  0  0  0  0  0  0  0
    9.6782    0.5671   23.5143 C   0  0  0  0  0  0  0  0  0  0  0  0
    8.4532    0.3482   26.0821 C   0  0  0  0  0  0  0  0  0  0  0  0
   10.4239   -1.7677   22.2230 N   0  0  0  0  0  0  0  0  0  0  0  0
    9.9468   -4.5953   20.1709 C   0  0  0  0  0  0  0  0  0  0  0  0
   10.0366   -3.0590   23.9864 N   0  0  0  0  0  0  0  0  0  0  0  0
    7.1191   -7.3636   15.7739 C   0  0  0  0  0  0  0  0  0  0  0  0
    5.9612   -8.3203   17.2732 N   0  0  0  0  0  0  0  0  0  0  0  0
    8.5296   -5.9814   17.1841 C   0  0  0  0  0  0  0  0  0  0  0  0
    9.1527   -5.2118   16.2116 C   0  0  0  0  0  0  0  0  0  0  0  0
   10.3364   -3.8368   22.9255 O   0  0  0  0  0  0  0  0  0  0  0  0
    9.6947   -4.8407   18.8534 C   0  0  0  0  0  0  0  0  0  0  0  0
    9.1596    1.7042   24.1381 C   0  0  0  0  0  0  0  0  0  0  0  0
   11.0456   -2.9774   18.2694 N   0  0  0  0  0  0  0  0  0  0  0  0
   10.4788   -3.0457   21.8593 C   0  0  0  0  0  0  0  0  0  0  0  0
    8.8693   -5.8099   18.4657 N   0  0  0  0  0  0  0  0  0  0  0  0
    8.9892   -0.7926   25.4573 C   0  0  0  0  0  0  0  0  0  0  0  0
   10.5677   -3.4462   20.5323 C   0  0  0  0  0  0  0  0  0  0  0  0
  1  8  1  0
  1 12  4  0
  1 14  4  0
  2  3  4  0
  2 18  4  0
  3 20  4  0
  3 22  4  0
  4 11  4  0
  4 21  4  0
  5  9  4  0
  5 16  4  0
  6 15  4  0
  6 16  4  0
  7 22  4  0
  7 26  4  0
  8 10  4  0
  8 25  4  0
  9 15  4  0
  9 17  1  0
 10 21  4  0
 11 25  4  0
 12 23  4  0
 13 20  4  0
 13 26  4  0
 14 19  4  0
 17 18  4  0
 17 24  4  0
 19 23  4  0
 20 24  4  0
 23 26  1  0
M  END
$$$$

 Created by Python create_sdf_string function

 26 30  0  0  0  0  0  0  0  0999 V2000
   10.0084   -1.8019   23.4945 C   0  0  0  0  0  0  0  0  0  0  0  0
   10.0005   -4.2520   16.5631 C   0  0  0  0  0  0  0  0  0  0  0  0
   10.2759   -4.0036   17.8845 C   0  0  0  0  0  0  0  0  0  0  0  0
    8.5652    1.5478   25.3778 N   0  0  0  0  0  0  0  0  0  0  0  0
    6.8048   -7.5457   17.8752 C   0  0  0  0  0  0  0  0  0  0  0  0
    6.1721   -8.2186   15.9886 N   0  0  0  0  0  0  0  0  0  0  0  0
   11.1764   -2.6600   19.5604 C   0  0  0  0  0  0  0  0  0  0  0  0
    9.5491   -0.6380   24.1912 C   0  0  0  0  0  0  0  0  0  0  0  0
    7.5337   -6.9256   16.9519 C   0  0  0  0  0  0  0  0  0  0  0  0
    9.6782    0.5671   23.5143 C   0  0  0  0  0  0  0  0  0  0  0  0
    8.4532    0.3482   26.0821 C   0  0  0  0  0  0  0  0  0  0  0  0
   10.4239   -1.7677   22.2230 N   0  0  0  0  0  0  0  0  0  0  0  0
    9.9468   -4.5953   20.1709 C   0  0  0  0  0  0  0  0  0  0  0  0
   10.0366   -3.0590   23.9864 N   0  0  0  0  0  0  0  0  0  0  0  0
    7.1191   -7.3636   15.7739 C   0  0  0  0  0  0  0  0  0  0  0  0
    5.9612   -8.3203   17.2732 N   0  0  0  0  0  0  0  0  0  0  0  0
    8.5296   -5.9814   17.1841 C   0  0  0  0  0  0  0  0  0  0  0  0
    9.1527   -5.2118   16.2116 C   0  0  0  0  0  0  0  0  0  0  0  0
   10.3364   -3.8368   22.9255 O   0  0  0  0  0  0  0  0  0  0  0  0
    9.6947   -4.8407   18.8534 C   0  0  0  0  0  0  0  0  0  0  0  0
    9.1596    1.7042   24.1381 C   0  0  0  0  0  0  0  0  0  0  0  0
   11.0456   -2.9774   18.2694 N   0  0  0  0  0  0  0  0  0  0  0  0
   10.4788   -3.0457   21.8593 C   0  0  0  0  0  0  0  0  0  0  0  0
    8.8693   -5.8099   18.4657 N   0  0  0  0  0  0  0  0  0  0  0  0
    8.9892   -0.7926   25.4573 C   0  0  0  0  0  0  0  0  0  0  0  0
   10.5677   -3.4462   20.5323 C   0  0  0  0  0  0  0  0  0  0  0  0
  1  8  1  0
  1 12  4  0
  1 14  4  0
  2  3  4  0
  2 18  4  0
  3 20  4  0
  3 22  4  0
  4 11  4  0
  4 21  4  0
  5  9  4  0
  5 16  4  0
  6 15  4  0
  6 16  4  0
  7 22  4  0
  7 26  4  0
  8 10  4  0
  8 25  4  0
  9 15  4  0
  9 17  1  0
 10 21  4  0
 11 25  4  0
 12 23  4  0
 13 20  4  0
 13 26  4  0
 14 19  4  0
 17 18  4  0
 17 24  4  0
 19 23  4  0
 20 24  4  0
 23 26  1  0
M  END
$$$$

 Created by Python create_sdf_string function

 26 30  0  0  0  0  0  0  0  0999 V2000
   10.0084   -1.8019   23.4945 C   0  0  0  0  0  0  0  0  0  0  0  0
   10.0005   -4.2520   16.5631 C   0  0  0  0  0  0  0  0  0  0  0  0
   10.2759   -4.0036   17.8845 C   0  0  0  0  0  0  0  0  0  0  0  0
    8.5652    1.5478   25.3778 N   0  0  0  0  0  0  0  0  0  0  0  0
    6.8048   -7.5457   17.8752 C   0  0  0  0  0  0  0  0  0  0  0  0
    6.1721   -8.2186   15.9886 N   0  0  0  0  0  0  0  0  0  0  0  0
   11.1764   -2.6600   19.5604 C   0  0  0  0  0  0  0  0  0  0  0  0
    9.5491   -0.6380   24.1912 C   0  0  0  0  0  0  0  0  0  0  0  0
    7.5337   -6.9256   16.9519 C   0  0  0  0  0  0  0  0  0  0  0  0
    9.6782    0.5671   23.5143 C   0  0  0  0  0  0  0  0  0  0  0  0
    8.4532    0.3482   26.0821 C   0  0  0  0  0  0  0  0  0  0  0  0
   10.4239   -1.7677   22.2230 N   0  0  0  0  0  0  0  0  0  0  0  0
    9.9468   -4.5953   20.1709 C   0  0  0  0  0  0  0  0  0  0  0  0
   10.0366   -3.0590   23.9864 N   0  0  0  0  0  0  0  0  0  0  0  0
    7.1191   -7.3636   15.7739 C   0  0  0  0  0  0  0  0  0  0  0  0
    5.9612   -8.3203   17.2732 N   0  0  0  0  0  0  0  0  0  0  0  0
    8.5296   -5.9814   17.1841 C   0  0  0  0  0  0  0  0  0  0  0  0
    9.1527   -5.2118   16.2116 C   0  0  0  0  0  0  0  0  0  0  0  0
   10.3364   -3.8368   22.9255 O   0  0  0  0  0  0  0  0  0  0  0  0
    9.6947   -4.8407   18.8534 C   0  0  0  0  0  0  0  0  0  0  0  0
    9.1596    1.7042   24.1381 C   0  0  0  0  0  0  0  0  0  0  0  0
   11.0456   -2.9774   18.2694 N   0  0  0  0  0  0  0  0  0  0  0  0
   10.4788   -3.0457   21.8593 C   0  0  0  0  0  0  0  0  0  0  0  0
    8.8693   -5.8099   18.4657 N   0  0  0  0  0  0  0  0  0  0  0  0
    8.9892   -0.7926   25.4573 C   0  0  0  0  0  0  0  0  0  0  0  0
   10.5677   -3.4462   20.5323 C   0  0  0  0  0  0  0  0  0  0  0  0
  1  8  1  0
  1 12  4  0
  1 14  4  0
  2  3  4  0
  2 18  4  0
  3 20  4  0
  3 22  4  0
  4 11  4  0
  4 21  4  0
  5  9  4  0
  5 16  4  0
  6 15  4  0
  6 16  4  0
  7 22  4  0
  7 26  4  0
  8 10  4  0
  8 25  4  0
  9 15  4  0
  9 17  1  0
 10 21  4  0
 11 25  4  0
 12 23  4  0
 13 20  4  0
 13 26  4  0
 14 19  4  0
 17 18  4  0
 17 24  4  0
 19 23  4  0
 20 24  4  0
 23 26  1  0
M  END
$$$$

 Created by Python create_sdf_string function

 26 30  0  0  0  0  0  0  0  0999 V2000
   10.0084   -1.8019   23.4945 C   0  0  0  0  0  0  0  0  0  0  0  0
   10.0005   -4.2520   16.5631 C   0  0  0  0  0  0  0  0  0  0  0  0
   10.2759   -4.0036   17.8845 C   0  0  0  0  0  0  0  0  0  0  0  0
    8.5652    1.5478   25.3778 N   0  0  0  0  0  0  0  0  0  0  0  0
    6.8048   -7.5457   17.8752 C   0  0  0  0  0  0  0  0  0  0  0  0
    6.1721   -8.2186   15.9886 N   0  0  0  0  0  0  0  0  0  0  0  0
   11.1764   -2.6600   19.5604 C   0  0  0  0  0  0  0  0  0  0  0  0
    9.5491   -0.6380   24.1912 C   0  0  0  0  0  0  0  0  0  0  0  0
    7.5337   -6.9256   16.9519 C   0  0  0  0  0  0  0  0  0  0  0  0
    9.6782    0.5671   23.5143 C   0  0  0  0  0  0  0  0  0  0  0  0
    8.4532    0.3482   26.0821 C   0  0  0  0  0  0  0  0  0  0  0  0
   10.4239   -1.7677   22.2230 N   0  0  0  0  0  0  0  0  0  0  0  0
    9.9468   -4.5953   20.1709 C   0  0  0  0  0  0  0  0  0  0  0  0
   10.0366   -3.0590   23.9864 N   0  0  0  0  0  0  0  0  0  0  0  0
    7.1191   -7.3636   15.7739 C   0  0  0  0  0  0  0  0  0  0  0  0
    5.9612   -8.3203   17.2732 N   0  0  0  0  0  0  0  0  0  0  0  0
    8.5296   -5.9814   17.1841 C   0  0  0  0  0  0  0  0  0  0  0  0
    9.1527   -5.2118   16.2116 C   0  0  0  0  0  0  0  0  0  0  0  0
   10.3364   -3.8368   22.9255 O   0  0  0  0  0  0  0  0  0  0  0  0
    9.6947   -4.8407   18.8534 C   0  0  0  0  0  0  0  0  0  0  0  0
    9.1596    1.7042   24.1381 C   0  0  0  0  0  0  0  0  0  0  0  0
   11.0456   -2.9774   18.2694 N   0  0  0  0  0  0  0  0  0  0  0  0
   10.4788   -3.0457   21.8593 C   0  0  0  0  0  0  0  0  0  0  0  0
    8.8693   -5.8099   18.4657 N   0  0  0  0  0  0  0  0  0  0  0  0
    8.9892   -0.7926   25.4573 C   0  0  0  0  0  0  0  0  0  0  0  0
   10.5677   -3.4462   20.5323 C   0  0  0  0  0  0  0  0  0  0  0  0
  1  8  1  0
  1 12  4  0
  1 14  4  0
  2  3  4  0
  2 18  4  0
  3 20  4  0
  3 22  4  0
  4 11  4  0
  4 21  4  0
  5  9  4  0
  5 16  4  0
  6 15  4  0
  6 16  4  0
  7 22  4  0
  7 26  4  0
  8 10  4  0
  8 25  4  0
  9 15  4  0
  9 17  1  0
 10 21  4  0
 11 25  4  0
 12 23  4  0
 13 20  4  0
 13 26  4  0
 14 19  4  0
 17 18  4  0
 17 24  4  0
 19 23  4  0
 20 24  4  0
 23 26  1  0
M  END
$$$$

 Created by Python create_sdf_string function

 26 30  0  0  0  0  0  0  0  0999 V2000
   10.0084   -1.8019   23.4945 C   0  0  0  0  0  0  0  0  0  0  0  0
   10.0005   -4.2520   16.5631 C   0  0  0  0  0  0  0  0  0  0  0  0
   10.2759   -4.0036   17.8845 C   0  0  0  0  0  0  0  0  0  0  0  0
    8.5652    1.5478   25.3778 N   0  0  0  0  0  0  0  0  0  0  0  0
    6.8048   -7.5457   17.8752 C   0  0  0  0  0  0  0  0  0  0  0  0
    6.1721   -8.2186   15.9886 N   0  0  0  0  0  0  0  0  0  0  0  0
   11.1764   -2.6600   19.5604 C   0  0  0  0  0  0  0  0  0  0  0  0
    9.5491   -0.6380   24.1912 C   0  0  0  0  0  0  0  0  0  0  0  0
    7.5337   -6.9256   16.9519 C   0  0  0  0  0  0  0  0  0  0  0  0
    9.6782    0.5671   23.5143 C   0  0  0  0  0  0  0  0  0  0  0  0
    8.4532    0.3482   26.0821 C   0  0  0  0  0  0  0  0  0  0  0  0
   10.4239   -1.7677   22.2230 N   0  0  0  0  0  0  0  0  0  0  0  0
    9.9468   -4.5953   20.1709 C   0  0  0  0  0  0  0  0  0  0  0  0
   10.0366   -3.0590   23.9864 N   0  0  0  0  0  0  0  0  0  0  0  0
    7.1191   -7.3636   15.7739 C   0  0  0  0  0  0  0  0  0  0  0  0
    5.9612   -8.3203   17.2732 N   0  0  0  0  0  0  0  0  0  0  0  0
    8.5296   -5.9814   17.1841 C   0  0  0  0  0  0  0  0  0  0  0  0
    9.1527   -5.2118   16.2116 C   0  0  0  0  0  0  0  0  0  0  0  0
   10.3364   -3.8368   22.9255 O   0  0  0  0  0  0  0  0  0  0  0  0
    9.6947   -4.8407   18.8534 C   0  0  0  0  0  0  0  0  0  0  0  0
    9.1596    1.7042   24.1381 C   0  0  0  0  0  0  0  0  0  0  0  0
   11.0456   -2.9774   18.2694 N   0  0  0  0  0  0  0  0  0  0  0  0
   10.4788   -3.0457   21.8593 C   0  0  0  0  0  0  0  0  0  0  0  0
    8.8693   -5.8099   18.4657 N   0  0  0  0  0  0  0  0  0  0  0  0
    8.9892   -0.7926   25.4573 C   0  0  0  0  0  0  0  0  0  0  0  0
   10.5677   -3.4462   20.5323 C   0  0  0  0  0  0  0  0  0  0  0  0
  1  8  1  0
  1 12  4  0
  1 14  4  0
  2  3  4  0
  2 18  4  0
  3 20  4  0
  3 22  4  0
  4 11  4  0
  4 21  4  0
  5  9  4  0
  5 16  4  0
  6 15  4  0
  6 16  4  0
  7 22  4  0
  7 26  4  0
  8 10  4  0
  8 25  4  0
  9 15  4  0
  9 17  1  0
 10 21  4  0
 11 25  4  0
 12 23  4  0
 13 20  4  0
 13 26  4  0
 14 19  4  0
 17 18  4  0
 17 24  4  0
 19 23  4  0
 20 24  4  0
 23 26  1  0
M  END
$$$$

 Created by Python create_sdf_string function

 26 30  0  0  0  0  0  0  0  0999 V2000
   10.0084   -1.8019   23.4945 C   0  0  0  0  0  0  0  0  0  0  0  0
   10.0005   -4.2520   16.5631 C   0  0  0  0  0  0  0  0  0  0  0  0
   10.2759   -4.0036   17.8845 C   0  0  0  0  0  0  0  0  0  0  0  0
    8.5652    1.5478   25.3778 N   0  0  0  0  0  0  0  0  0  0  0  0
    6.8048   -7.5457   17.8752 C   0  0  0  0  0  0  0  0  0  0  0  0
    6.1721   -8.2186   15.9886 N   0  0  0  0  0  0  0  0  0  0  0  0
   11.1764   -2.6600   19.5604 C   0  0  0  0  0  0  0  0  0  0  0  0
    9.5491   -0.6380   24.1912 C   0  0  0  0  0  0  0  0  0  0  0  0
    7.5337   -6.9256   16.9519 C   0  0  0  0  0  0  0  0  0  0  0  0
    9.6782    0.5671   23.5143 C   0  0  0  0  0  0  0  0  0  0  0  0
    8.4532    0.3482   26.0821 C   0  0  0  0  0  0  0  0  0  0  0  0
   10.4239   -1.7677   22.2230 N   0  0  0  0  0  0  0  0  0  0  0  0
    9.9468   -4.5953   20.1709 C   0  0  0  0  0  0  0  0  0  0  0  0
   10.0366   -3.0590   23.9864 N   0  0  0  0  0  0  0  0  0  0  0  0
    7.1191   -7.3636   15.7739 C   0  0  0  0  0  0  0  0  0  0  0  0
    5.9612   -8.3203   17.2732 N   0  0  0  0  0  0  0  0  0  0  0  0
    8.5296   -5.9814   17.1841 C   0  0  0  0  0  0  0  0  0  0  0  0
    9.1527   -5.2118   16.2116 C   0  0  0  0  0  0  0  0  0  0  0  0
   10.3364   -3.8368   22.9255 O   0  0  0  0  0  0  0  0  0  0  0  0
    9.6947   -4.8407   18.8534 C   0  0  0  0  0  0  0  0  0  0  0  0
    9.1596    1.7042   24.1381 C   0  0  0  0  0  0  0  0  0  0  0  0
   11.0456   -2.9774   18.2694 N   0  0  0  0  0  0  0  0  0  0  0  0
   10.4788   -3.0457   21.8593 C   0  0  0  0  0  0  0  0  0  0  0  0
    8.8693   -5.8099   18.4657 N   0  0  0  0  0  0  0  0  0  0  0  0
    8.9892   -0.7926   25.4573 C   0  0  0  0  0  0  0  0  0  0  0  0
   10.5677   -3.4462   20.5323 C   0  0  0  0  0  0  0  0  0  0  0  0
  1  8  1  0
  1 12  4  0
  1 14  4  0
  2  3  4  0
  2 18  4  0
  3 20  4  0
  3 22  4  0
  4 11  4  0
  4 21  4  0
  5  9  4  0
  5 16  4  0
  6 15  4  0
  6 16  4  0
  7 22  4  0
  7 26  4  0
  8 10  4  0
  8 25  4  0
  9 15  4  0
  9 17  1  0
 10 21  4  0
 11 25  4  0
 12 23  4  0
 13 20  4  0
 13 26  4  0
 14 19  4  0
 17 18  4  0
 17 24  4  0
 19 23  4  0
 20 24  4  0
 23 26  1  0
M  END
$$$$

 Created by Python create_sdf_string function

 26 30  0  0  0  0  0  0  0  0999 V2000
   10.0084   -1.8019   23.4945 C   0  0  0  0  0  0  0  0  0  0  0  0
   10.0005   -4.2520   16.5631 C   0  0  0  0  0  0  0  0  0  0  0  0
   10.2759   -4.0036   17.8845 C   0  0  0  0  0  0  0  0  0  0  0  0
    8.5652    1.5478   25.3778 N   0  0  0  0  0  0  0  0  0  0  0  0
    6.8048   -7.5457   17.8752 C   0  0  0  0  0  0  0  0  0  0  0  0
    6.1721   -8.2186   15.9886 N   0  0  0  0  0  0  0  0  0  0  0  0
   11.1764   -2.6600   19.5604 C   0  0  0  0  0  0  0  0  0  0  0  0
    9.5491   -0.6380   24.1912 C   0  0  0  0  0  0  0  0  0  0  0  0
    7.5337   -6.9256   16.9519 C   0  0  0  0  0  0  0  0  0  0  0  0
    9.6782    0.5671   23.5143 C   0  0  0  0  0  0  0  0  0  0  0  0
    8.4532    0.3482   26.0821 C   0  0  0  0  0  0  0  0  0  0  0  0
   10.4239   -1.7677   22.2230 N   0  0  0  0  0  0  0  0  0  0  0  0
    9.9468   -4.5953   20.1709 C   0  0  0  0  0  0  0  0  0  0  0  0
   10.0366   -3.0590   23.9864 N   0  0  0  0  0  0  0  0  0  0  0  0
    7.1191   -7.3636   15.7739 C   0  0  0  0  0  0  0  0  0  0  0  0
    5.9612   -8.3203   17.2732 N   0  0  0  0  0  0  0  0  0  0  0  0
    8.5296   -5.9814   17.1841 C   0  0  0  0  0  0  0  0  0  0  0  0
    9.1527   -5.2118   16.2116 C   0  0  0  0  0  0  0  0  0  0  0  0
   10.3364   -3.8368   22.9255 O   0  0  0  0  0  0  0  0  0  0  0  0
    9.6947   -4.8407   18.8534 C   0  0  0  0  0  0  0  0  0  0  0  0
    9.1596    1.7042   24.1381 C   0  0  0  0  0  0  0  0  0  0  0  0
   11.0456   -2.9774   18.2694 N   0  0  0  0  0  0  0  0  0  0  0  0
   10.4788   -3.0457   21.8593 C   0  0  0  0  0  0  0  0  0  0  0  0
    8.8693   -5.8099   18.4657 N   0  0  0  0  0  0  0  0  0  0  0  0
    8.9892   -0.7926   25.4573 C   0  0  0  0  0  0  0  0  0  0  0  0
   10.5677   -3.4462   20.5323 C   0  0  0  0  0  0  0  0  0  0  0  0
  1  8  1  0
  1 12  4  0
  1 14  4  0
  2  3  4  0
  2 18  4  0
  3 20  4  0
  3 22  4  0
  4 11  4  0
  4 21  4  0
  5  9  4  0
  5 16  4  0
  6 15  4  0
  6 16  4  0
  7 22  4  0
  7 26  4  0
  8 10  4  0
  8 25  4  0
  9 15  4  0
  9 17  1  0
 10 21  4  0
 11 25  4  0
 12 23  4  0
 13 20  4  0
 13 26  4  0
 14 19  4  0
 17 18  4  0
 17 24  4  0
 19 23  4  0
 20 24  4  0
 23 26  1  0
M  END
$$$$

 Created by Python create_sdf_string function

 26 30  0  0  0  0  0  0  0  0999 V2000
   10.0084   -1.8019   23.4945 C   0  0  0  0  0  0  0  0  0  0  0  0
   10.0005   -4.2520   16.5631 C   0  0  0  0  0  0  0  0  0  0  0  0
   10.2759   -4.0036   17.8845 C   0  0  0  0  0  0  0  0  0  0  0  0
    8.5652    1.5478   25.3778 N   0  0  0  0  0  0  0  0  0  0  0  0
    6.8048   -7.5457   17.8752 C   0  0  0  0  0  0  0  0  0  0  0  0
    6.1721   -8.2186   15.9886 N   0  0  0  0  0  0  0  0  0  0  0  0
   11.1764   -2.6600   19.5604 C   0  0  0  0  0  0  0  0  0  0  0  0
    9.5491   -0.6380   24.1912 C   0  0  0  0  0  0  0  0  0  0  0  0
    7.5337   -6.9256   16.9519 C   0  0  0  0  0  0  0  0  0  0  0  0
    9.6782    0.5671   23.5143 C   0  0  0  0  0  0  0  0  0  0  0  0
    8.4532    0.3482   26.0821 C   0  0  0  0  0  0  0  0  0  0  0  0
   10.4239   -1.7677   22.2230 N   0  0  0  0  0  0  0  0  0  0  0  0
    9.9468   -4.5953   20.1709 C   0  0  0  0  0  0  0  0  0  0  0  0
   10.0366   -3.0590   23.9864 N   0  0  0  0  0  0  0  0  0  0  0  0
    7.1191   -7.3636   15.7739 C   0  0  0  0  0  0  0  0  0  0  0  0
    5.9612   -8.3203   17.2732 N   0  0  0  0  0  0  0  0  0  0  0  0
    8.5296   -5.9814   17.1841 C   0  0  0  0  0  0  0  0  0  0  0  0
    9.1527   -5.2118   16.2116 C   0  0  0  0  0  0  0  0  0  0  0  0
   10.3364   -3.8368   22.9255 O   0  0  0  0  0  0  0  0  0  0  0  0
    9.6947   -4.8407   18.8534 C   0  0  0  0  0  0  0  0  0  0  0  0
    9.1596    1.7042   24.1381 C   0  0  0  0  0  0  0  0  0  0  0  0
   11.0456   -2.9774   18.2694 N   0  0  0  0  0  0  0  0  0  0  0  0
   10.4788   -3.0457   21.8593 C   0  0  0  0  0  0  0  0  0  0  0  0
    8.8693   -5.8099   18.4657 N   0  0  0  0  0  0  0  0  0  0  0  0
    8.9892   -0.7926   25.4573 C   0  0  0  0  0  0  0  0  0  0  0  0
   10.5677   -3.4462   20.5323 C   0  0  0  0  0  0  0  0  0  0  0  0
  1  8  1  0
  1 12  4  0
  1 14  4  0
  2  3  4  0
  2 18  4  0
  3 20  4  0
  3 22  4  0
  4 11  4  0
  4 21  4  0
  5  9  4  0
  5 16  4  0
  6 15  4  0
  6 16  4  0
  7 22  4  0
  7 26  4  0
  8 10  4  0
  8 25  4  0
  9 15  4  0
  9 17  1  0
 10 21  4  0
 11 25  4  0
 12 23  4  0
 13 20  4  0
 13 26  4  0
 14 19  4  0
 17 18  4  0
 17 24  4  0
 19 23  4  0
 20 24  4  0
 23 26  1  0
M  END
$$$$

 Created by Python create_sdf_string function

 26 30  0  0  0  0  0  0  0  0999 V2000
   10.0084   -1.8019   23.4945 C   0  0  0  0  0  0  0  0  0  0  0  0
   10.0005   -4.2520   16.5631 C   0  0  0  0  0  0  0  0  0  0  0  0
   10.2759   -4.0036   17.8845 C   0  0  0  0  0  0  0  0  0  0  0  0
    8.5652    1.5478   25.3778 N   0  0  0  0  0  0  0  0  0  0  0  0
    6.8048   -7.5457   17.8752 C   0  0  0  0  0  0  0  0  0  0  0  0
    6.1721   -8.2186   15.9886 N   0  0  0  0  0  0  0  0  0  0  0  0
   11.1764   -2.6600   19.5604 C   0  0  0  0  0  0  0  0  0  0  0  0
    9.5491   -0.6380   24.1912 C   0  0  0  0  0  0  0  0  0  0  0  0
    7.5337   -6.9256   16.9519 C   0  0  0  0  0  0  0  0  0  0  0  0
    9.6782    0.5671   23.5143 C   0  0  0  0  0  0  0  0  0  0  0  0
    8.4532    0.3482   26.0821 C   0  0  0  0  0  0  0  0  0  0  0  0
   10.4239   -1.7677   22.2230 N   0  0  0  0  0  0  0  0  0  0  0  0
    9.9468   -4.5953   20.1709 C   0  0  0  0  0  0  0  0  0  0  0  0
   10.0366   -3.0590   23.9864 N   0  0  0  0  0  0  0  0  0  0  0  0
    7.1191   -7.3636   15.7739 C   0  0  0  0  0  0  0  0  0  0  0  0
    5.9612   -8.3203   17.2732 N   0  0  0  0  0  0  0  0  0  0  0  0
    8.5296   -5.9814   17.1841 C   0  0  0  0  0  0  0  0  0  0  0  0
    9.1527   -5.2118   16.2116 C   0  0  0  0  0  0  0  0  0  0  0  0
   10.3364   -3.8368   22.9255 O   0  0  0  0  0  0  0  0  0  0  0  0
    9.6947   -4.8407   18.8534 C   0  0  0  0  0  0  0  0  0  0  0  0
    9.1596    1.7042   24.1381 C   0  0  0  0  0  0  0  0  0  0  0  0
   11.0456   -2.9774   18.2694 N   0  0  0  0  0  0  0  0  0  0  0  0
   10.4788   -3.0457   21.8593 C   0  0  0  0  0  0  0  0  0  0  0  0
    8.8693   -5.8099   18.4657 N   0  0  0  0  0  0  0  0  0  0  0  0
    8.9892   -0.7926   25.4573 C   0  0  0  0  0  0  0  0  0  0  0  0
   10.5677   -3.4462   20.5323 C   0  0  0  0  0  0  0  0  0  0  0  0
  1  8  1  0
  1 12  4  0
  1 14  4  0
  2  3  4  0
  2 18  4  0
  3 20  4  0
  3 22  4  0
  4 11  4  0
  4 21  4  0
  5  9  4  0
  5 16  4  0
  6 15  4  0
  6 16  4  0
  7 22  4  0
  7 26  4  0
  8 10  4  0
  8 25  4  0
  9 15  4  0
  9 17  1  0
 10 21  4  0
 11 25  4  0
 12 23  4  0
 13 20  4  0
 13 26  4  0
 14 19  4  0
 17 18  4  0
 17 24  4  0
 19 23  4  0
 20 24  4  0
 23 26  1  0
M  END
$$$$

 Created by Python create_sdf_string function

 26 30  0  0  0  0  0  0  0  0999 V2000
   10.0084   -1.8019   23.4945 C   0  0  0  0  0  0  0  0  0  0  0  0
   10.0005   -4.2520   16.5631 C   0  0  0  0  0  0  0  0  0  0  0  0
   10.2759   -4.0036   17.8845 C   0  0  0  0  0  0  0  0  0  0  0  0
    8.5652    1.5478   25.3778 N   0  0  0  0  0  0  0  0  0  0  0  0
    6.8048   -7.5457   17.8752 C   0  0  0  0  0  0  0  0  0  0  0  0
    6.1721   -8.2186   15.9886 N   0  0  0  0  0  0  0  0  0  0  0  0
   11.1764   -2.6600   19.5604 C   0  0  0  0  0  0  0  0  0  0  0  0
    9.5491   -0.6380   24.1912 C   0  0  0  0  0  0  0  0  0  0  0  0
    7.5337   -6.9256   16.9519 C   0  0  0  0  0  0  0  0  0  0  0  0
    9.6782    0.5671   23.5143 C   0  0  0  0  0  0  0  0  0  0  0  0
    8.4532    0.3482   26.0821 C   0  0  0  0  0  0  0  0  0  0  0  0
   10.4239   -1.7677   22.2230 N   0  0  0  0  0  0  0  0  0  0  0  0
    9.9468   -4.5953   20.1709 C   0  0  0  0  0  0  0  0  0  0  0  0
   10.0366   -3.0590   23.9864 N   0  0  0  0  0  0  0  0  0  0  0  0
    7.1191   -7.3636   15.7739 C   0  0  0  0  0  0  0  0  0  0  0  0
    5.9612   -8.3203   17.2732 N   0  0  0  0  0  0  0  0  0  0  0  0
    8.5296   -5.9814   17.1841 C   0  0  0  0  0  0  0  0  0  0  0  0
    9.1527   -5.2118   16.2116 C   0  0  0  0  0  0  0  0  0  0  0  0
   10.3364   -3.8368   22.9255 O   0  0  0  0  0  0  0  0  0  0  0  0
    9.6947   -4.8407   18.8534 C   0  0  0  0  0  0  0  0  0  0  0  0
    9.1596    1.7042   24.1381 C   0  0  0  0  0  0  0  0  0  0  0  0
   11.0456   -2.9774   18.2694 N   0  0  0  0  0  0  0  0  0  0  0  0
   10.4788   -3.0457   21.8593 C   0  0  0  0  0  0  0  0  0  0  0  0
    8.8693   -5.8099   18.4657 N   0  0  0  0  0  0  0  0  0  0  0  0
    8.9892   -0.7926   25.4573 C   0  0  0  0  0  0  0  0  0  0  0  0
   10.5677   -3.4462   20.5323 C   0  0  0  0  0  0  0  0  0  0  0  0
  1  8  1  0
  1 12  4  0
  1 14  4  0
  2  3  4  0
  2 18  4  0
  3 20  4  0
  3 22  4  0
  4 11  4  0
  4 21  4  0
  5  9  4  0
  5 16  4  0
  6 15  4  0
  6 16  4  0
  7 22  4  0
  7 26  4  0
  8 10  4  0
  8 25  4  0
  9 15  4  0
  9 17  1  0
 10 21  4  0
 11 25  4  0
 12 23  4  0
 13 20  4  0
 13 26  4  0
 14 19  4  0
 17 18  4  0
 17 24  4  0
 19 23  4  0
 20 24  4  0
 23 26  1  0
M  END
$$$$

 Created by Python create_sdf_string function

 26 30  0  0  0  0  0  0  0  0999 V2000
   10.0084   -1.8019   23.4945 C   0  0  0  0  0  0  0  0  0  0  0  0
   10.0005   -4.2520   16.5631 C   0  0  0  0  0  0  0  0  0  0  0  0
   10.2759   -4.0036   17.8845 C   0  0  0  0  0  0  0  0  0  0  0  0
    8.5652    1.5478   25.3778 N   0  0  0  0  0  0  0  0  0  0  0  0
    6.8048   -7.5457   17.8752 C   0  0  0  0  0  0  0  0  0  0  0  0
    6.1721   -8.2186   15.9886 N   0  0  0  0  0  0  0  0  0  0  0  0
   11.1764   -2.6600   19.5604 C   0  0  0  0  0  0  0  0  0  0  0  0
    9.5491   -0.6380   24.1912 C   0  0  0  0  0  0  0  0  0  0  0  0
    7.5337   -6.9256   16.9519 C   0  0  0  0  0  0  0  0  0  0  0  0
    9.6782    0.5671   23.5143 C   0  0  0  0  0  0  0  0  0  0  0  0
    8.4532    0.3482   26.0821 C   0  0  0  0  0  0  0  0  0  0  0  0
   10.4239   -1.7677   22.2230 N   0  0  0  0  0  0  0  0  0  0  0  0
    9.9468   -4.5953   20.1709 C   0  0  0  0  0  0  0  0  0  0  0  0
   10.0366   -3.0590   23.9864 N   0  0  0  0  0  0  0  0  0  0  0  0
    7.1191   -7.3636   15.7739 C   0  0  0  0  0  0  0  0  0  0  0  0
    5.9612   -8.3203   17.2732 N   0  0  0  0  0  0  0  0  0  0  0  0
    8.5296   -5.9814   17.1841 C   0  0  0  0  0  0  0  0  0  0  0  0
    9.1527   -5.2118   16.2116 C   0  0  0  0  0  0  0  0  0  0  0  0
   10.3364   -3.8368   22.9255 O   0  0  0  0  0  0  0  0  0  0  0  0
    9.6947   -4.8407   18.8534 C   0  0  0  0  0  0  0  0  0  0  0  0
    9.1596    1.7042   24.1381 C   0  0  0  0  0  0  0  0  0  0  0  0
   11.0456   -2.9774   18.2694 N   0  0  0  0  0  0  0  0  0  0  0  0
   10.4788   -3.0457   21.8593 C   0  0  0  0  0  0  0  0  0  0  0  0
    8.8693   -5.8099   18.4657 N   0  0  0  0  0  0  0  0  0  0  0  0
    8.9892   -0.7926   25.4573 C   0  0  0  0  0  0  0  0  0  0  0  0
   10.5677   -3.4462   20.5323 C   0  0  0  0  0  0  0  0  0  0  0  0
  1  8  1  0
  1 12  4  0
  1 14  4  0
  2  3  4  0
  2 18  4  0
  3 20  4  0
  3 22  4  0
  4 11  4  0
  4 21  4  0
  5  9  4  0
  5 16  4  0
  6 15  4  0
  6 16  4  0
  7 22  4  0
  7 26  4  0
  8 10  4  0
  8 25  4  0
  9 15  4  0
  9 17  1  0
 10 21  4  0
 11 25  4  0
 12 23  4  0
 13 20  4  0
 13 26  4  0
 14 19  4  0
 17 18  4  0
 17 24  4  0
 19 23  4  0
 20 24  4  0
 23 26  1  0
M  END
$$$$

 Created by Python create_sdf_string function

 26 30  0  0  0  0  0  0  0  0999 V2000
   10.0084   -1.8019   23.4945 C   0  0  0  0  0  0  0  0  0  0  0  0
   10.0005   -4.2520   16.5631 C   0  0  0  0  0  0  0  0  0  0  0  0
   10.2759   -4.0036   17.8845 C   0  0  0  0  0  0  0  0  0  0  0  0
    8.5652    1.5478   25.3778 N   0  0  0  0  0  0  0  0  0  0  0  0
    6.8048   -7.5457   17.8752 C   0  0  0  0  0  0  0  0  0  0  0  0
    6.1721   -8.2186   15.9886 N   0  0  0  0  0  0  0  0  0  0  0  0
   11.1764   -2.6600   19.5604 C   0  0  0  0  0  0  0  0  0  0  0  0
    9.5491   -0.6380   24.1912 C   0  0  0  0  0  0  0  0  0  0  0  0
    7.5337   -6.9256   16.9519 C   0  0  0  0  0  0  0  0  0  0  0  0
    9.6782    0.5671   23.5143 C   0  0  0  0  0  0  0  0  0  0  0  0
    8.4532    0.3482   26.0821 C   0  0  0  0  0  0  0  0  0  0  0  0
   10.4239   -1.7677   22.2230 N   0  0  0  0  0  0  0  0  0  0  0  0
    9.9468   -4.5953   20.1709 C   0  0  0  0  0  0  0  0  0  0  0  0
   10.0366   -3.0590   23.9864 N   0  0  0  0  0  0  0  0  0  0  0  0
    7.1191   -7.3636   15.7739 C   0  0  0  0  0  0  0  0  0  0  0  0
    5.9612   -8.3203   17.2732 N   0  0  0  0  0  0  0  0  0  0  0  0
    8.5296   -5.9814   17.1841 C   0  0  0  0  0  0  0  0  0  0  0  0
    9.1527   -5.2118   16.2116 C   0  0  0  0  0  0  0  0  0  0  0  0
   10.3364   -3.8368   22.9255 O   0  0  0  0  0  0  0  0  0  0  0  0
    9.6947   -4.8407   18.8534 C   0  0  0  0  0  0  0  0  0  0  0  0
    9.1596    1.7042   24.1381 C   0  0  0  0  0  0  0  0  0  0  0  0
   11.0456   -2.9774   18.2694 N   0  0  0  0  0  0  0  0  0  0  0  0
   10.4788   -3.0457   21.8593 C   0  0  0  0  0  0  0  0  0  0  0  0
    8.8693   -5.8099   18.4657 N   0  0  0  0  0  0  0  0  0  0  0  0
    8.9892   -0.7926   25.4573 C   0  0  0  0  0  0  0  0  0  0  0  0
   10.5677   -3.4462   20.5323 C   0  0  0  0  0  0  0  0  0  0  0  0
  1  8  1  0
  1 12  4  0
  1 14  4  0
  2  3  4  0
  2 18  4  0
  3 20  4  0
  3 22  4  0
  4 11  4  0
  4 21  4  0
  5  9  4  0
  5 16  4  0
  6 15  4  0
  6 16  4  0
  7 22  4  0
  7 26  4  0
  8 10  4  0
  8 25  4  0
  9 15  4  0
  9 17  1  0
 10 21  4  0
 11 25  4  0
 12 23  4  0
 13 20  4  0
 13 26  4  0
 14 19  4  0
 17 18  4  0
 17 24  4  0
 19 23  4  0
 20 24  4  0
 23 26  1  0
M  END
$$$$

 Created by Python create_sdf_string function

 26 30  0  0  0  0  0  0  0  0999 V2000
   10.0084   -1.8019   23.4945 C   0  0  0  0  0  0  0  0  0  0  0  0
   10.0005   -4.2520   16.5631 C   0  0  0  0  0  0  0  0  0  0  0  0
   10.2759   -4.0036   17.8845 C   0  0  0  0  0  0  0  0  0  0  0  0
    8.5652    1.5478   25.3778 N   0  0  0  0  0  0  0  0  0  0  0  0
    6.8048   -7.5457   17.8752 C   0  0  0  0  0  0  0  0  0  0  0  0
    6.1721   -8.2186   15.9886 N   0  0  0  0  0  0  0  0  0  0  0  0
   11.1764   -2.6600   19.5604 C   0  0  0  0  0  0  0  0  0  0  0  0
    9.5491   -0.6380   24.1912 C   0  0  0  0  0  0  0  0  0  0  0  0
    7.5337   -6.9256   16.9519 C   0  0  0  0  0  0  0  0  0  0  0  0
    9.6782    0.5671   23.5143 C   0  0  0  0  0  0  0  0  0  0  0  0
    8.4532    0.3482   26.0821 C   0  0  0  0  0  0  0  0  0  0  0  0
   10.4239   -1.7677   22.2230 N   0  0  0  0  0  0  0  0  0  0  0  0
    9.9468   -4.5953   20.1709 C   0  0  0  0  0  0  0  0  0  0  0  0
   10.0366   -3.0590   23.9864 N   0  0  0  0  0  0  0  0  0  0  0  0
    7.1191   -7.3636   15.7739 C   0  0  0  0  0  0  0  0  0  0  0  0
    5.9612   -8.3203   17.2732 N   0  0  0  0  0  0  0  0  0  0  0  0
    8.5296   -5.9814   17.1841 C   0  0  0  0  0  0  0  0  0  0  0  0
    9.1527   -5.2118   16.2116 C   0  0  0  0  0  0  0  0  0  0  0  0
   10.3364   -3.8368   22.9255 O   0  0  0  0  0  0  0  0  0  0  0  0
    9.6947   -4.8407   18.8534 C   0  0  0  0  0  0  0  0  0  0  0  0
    9.1596    1.7042   24.1381 C   0  0  0  0  0  0  0  0  0  0  0  0
   11.0456   -2.9774   18.2694 N   0  0  0  0  0  0  0  0  0  0  0  0
   10.4788   -3.0457   21.8593 C   0  0  0  0  0  0  0  0  0  0  0  0
    8.8693   -5.8099   18.4657 N   0  0  0  0  0  0  0  0  0  0  0  0
    8.9892   -0.7926   25.4573 C   0  0  0  0  0  0  0  0  0  0  0  0
   10.5677   -3.4462   20.5323 C   0  0  0  0  0  0  0  0  0  0  0  0
  1  8  1  0
  1 12  4  0
  1 14  4  0
  2  3  4  0
  2 18  4  0
  3 20  4  0
  3 22  4  0
  4 11  4  0
  4 21  4  0
  5  9  4  0
  5 16  4  0
  6 15  4  0
  6 16  4  0
  7 22  4  0
  7 26  4  0
  8 10  4  0
  8 25  4  0
  9 15  4  0
  9 17  1  0
 10 21  4  0
 11 25  4  0
 12 23  4  0
 13 20  4  0
 13 26  4  0
 14 19  4  0
 17 18  4  0
 17 24  4  0
 19 23  4  0
 20 24  4  0
 23 26  1  0
M  END
$$$$

 Created by Python create_sdf_string function

 26 30  0  0  0  0  0  0  0  0999 V2000
   10.0084   -1.8019   23.4945 C   0  0  0  0  0  0  0  0  0  0  0  0
   10.0005   -4.2520   16.5631 C   0  0  0  0  0  0  0  0  0  0  0  0
   10.2759   -4.0036   17.8845 C   0  0  0  0  0  0  0  0  0  0  0  0
    8.5652    1.5478   25.3778 N   0  0  0  0  0  0  0  0  0  0  0  0
    6.8048   -7.5457   17.8752 C   0  0  0  0  0  0  0  0  0  0  0  0
    6.1721   -8.2186   15.9886 N   0  0  0  0  0  0  0  0  0  0  0  0
   11.1764   -2.6600   19.5604 C   0  0  0  0  0  0  0  0  0  0  0  0
    9.5491   -0.6380   24.1912 C   0  0  0  0  0  0  0  0  0  0  0  0
    7.5337   -6.9256   16.9519 C   0  0  0  0  0  0  0  0  0  0  0  0
    9.6782    0.5671   23.5143 C   0  0  0  0  0  0  0  0  0  0  0  0
    8.4532    0.3482   26.0821 C   0  0  0  0  0  0  0  0  0  0  0  0
   10.4239   -1.7677   22.2230 N   0  0  0  0  0  0  0  0  0  0  0  0
    9.9468   -4.5953   20.1709 C   0  0  0  0  0  0  0  0  0  0  0  0
   10.0366   -3.0590   23.9864 N   0  0  0  0  0  0  0  0  0  0  0  0
    7.1191   -7.3636   15.7739 C   0  0  0  0  0  0  0  0  0  0  0  0
    5.9612   -8.3203   17.2732 N   0  0  0  0  0  0  0  0  0  0  0  0
    8.5296   -5.9814   17.1841 C   0  0  0  0  0  0  0  0  0  0  0  0
    9.1527   -5.2118   16.2116 C   0  0  0  0  0  0  0  0  0  0  0  0
   10.3364   -3.8368   22.9255 O   0  0  0  0  0  0  0  0  0  0  0  0
    9.6947   -4.8407   18.8534 C   0  0  0  0  0  0  0  0  0  0  0  0
    9.1596    1.7042   24.1381 C   0  0  0  0  0  0  0  0  0  0  0  0
   11.0456   -2.9774   18.2694 N   0  0  0  0  0  0  0  0  0  0  0  0
   10.4788   -3.0457   21.8593 C   0  0  0  0  0  0  0  0  0  0  0  0
    8.8693   -5.8099   18.4657 N   0  0  0  0  0  0  0  0  0  0  0  0
    8.9892   -0.7926   25.4573 C   0  0  0  0  0  0  0  0  0  0  0  0
   10.5677   -3.4462   20.5323 C   0  0  0  0  0  0  0  0  0  0  0  0
  1  8  1  0
  1 12  4  0
  1 14  4  0
  2  3  4  0
  2 18  4  0
  3 20  4  0
  3 22  4  0
  4 11  4  0
  4 21  4  0
  5  9  4  0
  5 16  4  0
  6 15  4  0
  6 16  4  0
  7 22  4  0
  7 26  4  0
  8 10  4  0
  8 25  4  0
  9 15  4  0
  9 17  1  0
 10 21  4  0
 11 25  4  0
 12 23  4  0
 13 20  4  0
 13 26  4  0
 14 19  4  0
 17 18  4  0
 17 24  4  0
 19 23  4  0
 20 24  4  0
 23 26  1  0
M  END
$$$$

 Created by Python create_sdf_string function

 26 30  0  0  0  0  0  0  0  0999 V2000
   10.0084   -1.8019   23.4945 C   0  0  0  0  0  0  0  0  0  0  0  0
   10.0005   -4.2520   16.5631 C   0  0  0  0  0  0  0  0  0  0  0  0
   10.2759   -4.0036   17.8845 C   0  0  0  0  0  0  0  0  0  0  0  0
    8.5652    1.5478   25.3778 N   0  0  0  0  0  0  0  0  0  0  0  0
    6.8048   -7.5457   17.8752 C   0  0  0  0  0  0  0  0  0  0  0  0
    6.1721   -8.2186   15.9886 N   0  0  0  0  0  0  0  0  0  0  0  0
   11.1764   -2.6600   19.5604 C   0  0  0  0  0  0  0  0  0  0  0  0
    9.5491   -0.6380   24.1912 C   0  0  0  0  0  0  0  0  0  0  0  0
    7.5337   -6.9256   16.9519 C   0  0  0  0  0  0  0  0  0  0  0  0
    9.6782    0.5671   23.5143 C   0  0  0  0  0  0  0  0  0  0  0  0
    8.4532    0.3482   26.0821 C   0  0  0  0  0  0  0  0  0  0  0  0
   10.4239   -1.7677   22.2230 N   0  0  0  0  0  0  0  0  0  0  0  0
    9.9468   -4.5953   20.1709 C   0  0  0  0  0  0  0  0  0  0  0  0
   10.0366   -3.0590   23.9864 N   0  0  0  0  0  0  0  0  0  0  0  0
    7.1191   -7.3636   15.7739 C   0  0  0  0  0  0  0  0  0  0  0  0
    5.9612   -8.3203   17.2732 N   0  0  0  0  0  0  0  0  0  0  0  0
    8.5296   -5.9814   17.1841 C   0  0  0  0  0  0  0  0  0  0  0  0
    9.1527   -5.2118   16.2116 C   0  0  0  0  0  0  0  0  0  0  0  0
   10.3364   -3.8368   22.9255 O   0  0  0  0  0  0  0  0  0  0  0  0
    9.6947   -4.8407   18.8534 C   0  0  0  0  0  0  0  0  0  0  0  0
    9.1596    1.7042   24.1381 C   0  0  0  0  0  0  0  0  0  0  0  0
   11.0456   -2.9774   18.2694 N   0  0  0  0  0  0  0  0  0  0  0  0
   10.4788   -3.0457   21.8593 C   0  0  0  0  0  0  0  0  0  0  0  0
    8.8693   -5.8099   18.4657 N   0  0  0  0  0  0  0  0  0  0  0  0
    8.9892   -0.7926   25.4573 C   0  0  0  0  0  0  0  0  0  0  0  0
   10.5677   -3.4462   20.5323 C   0  0  0  0  0  0  0  0  0  0  0  0
  1  8  1  0
  1 12  4  0
  1 14  4  0
  2  3  4  0
  2 18  4  0
  3 20  4  0
  3 22  4  0
  4 11  4  0
  4 21  4  0
  5  9  4  0
  5 16  4  0
  6 15  4  0
  6 16  4  0
  7 22  4  0
  7 26  4  0
  8 10  4  0
  8 25  4  0
  9 15  4  0
  9 17  1  0
 10 21  4  0
 11 25  4  0
 12 23  4  0
 13 20  4  0
 13 26  4  0
 14 19  4  0
 17 18  4  0
 17 24  4  0
 19 23  4  0
 20 24  4  0
 23 26  1  0
M  END
$$$$

 Created by Python create_sdf_string function

 26 30  0  0  0  0  0  0  0  0999 V2000
   10.0084   -1.8019   23.4945 C   0  0  0  0  0  0  0  0  0  0  0  0
   10.0005   -4.2520   16.5631 C   0  0  0  0  0  0  0  0  0  0  0  0
   10.2759   -4.0036   17.8845 C   0  0  0  0  0  0  0  0  0  0  0  0
    8.5652    1.5478   25.3778 N   0  0  0  0  0  0  0  0  0  0  0  0
    6.8048   -7.5457   17.8752 C   0  0  0  0  0  0  0  0  0  0  0  0
    6.1721   -8.2186   15.9886 N   0  0  0  0  0  0  0  0  0  0  0  0
   11.1764   -2.6600   19.5604 C   0  0  0  0  0  0  0  0  0  0  0  0
    9.5491   -0.6380   24.1912 C   0  0  0  0  0  0  0  0  0  0  0  0
    7.5337   -6.9256   16.9519 C   0  0  0  0  0  0  0  0  0  0  0  0
    9.6782    0.5671   23.5143 C   0  0  0  0  0  0  0  0  0  0  0  0
    8.4532    0.3482   26.0821 C   0  0  0  0  0  0  0  0  0  0  0  0
   10.4239   -1.7677   22.2230 N   0  0  0  0  0  0  0  0  0  0  0  0
    9.9468   -4.5953   20.1709 C   0  0  0  0  0  0  0  0  0  0  0  0
   10.0366   -3.0590   23.9864 N   0  0  0  0  0  0  0  0  0  0  0  0
    7.1191   -7.3636   15.7739 C   0  0  0  0  0  0  0  0  0  0  0  0
    5.9612   -8.3203   17.2732 N   0  0  0  0  0  0  0  0  0  0  0  0
    8.5296   -5.9814   17.1841 C   0  0  0  0  0  0  0  0  0  0  0  0
    9.1527   -5.2118   16.2116 C   0  0  0  0  0  0  0  0  0  0  0  0
   10.3364   -3.8368   22.9255 O   0  0  0  0  0  0  0  0  0  0  0  0
    9.6947   -4.8407   18.8534 C   0  0  0  0  0  0  0  0  0  0  0  0
    9.1596    1.7042   24.1381 C   0  0  0  0  0  0  0  0  0  0  0  0
   11.0456   -2.9774   18.2694 N   0  0  0  0  0  0  0  0  0  0  0  0
   10.4788   -3.0457   21.8593 C   0  0  0  0  0  0  0  0  0  0  0  0
    8.8693   -5.8099   18.4657 N   0  0  0  0  0  0  0  0  0  0  0  0
    8.9892   -0.7926   25.4573 C   0  0  0  0  0  0  0  0  0  0  0  0
   10.5677   -3.4462   20.5323 C   0  0  0  0  0  0  0  0  0  0  0  0
  1  8  1  0
  1 12  4  0
  1 14  4  0
  2  3  4  0
  2 18  4  0
  3 20  4  0
  3 22  4  0
  4 11  4  0
  4 21  4  0
  5  9  4  0
  5 16  4  0
  6 15  4  0
  6 16  4  0
  7 22  4  0
  7 26  4  0
  8 10  4  0
  8 25  4  0
  9 15  4  0
  9 17  1  0
 10 21  4  0
 11 25  4  0
 12 23  4  0
 13 20  4  0
 13 26  4  0
 14 19  4  0
 17 18  4  0
 17 24  4  0
 19 23  4  0
 20 24  4  0
 23 26  1  0
M  END
$$$$

 Created by Python create_sdf_string function

 26 30  0  0  0  0  0  0  0  0999 V2000
   10.0084   -1.8019   23.4945 C   0  0  0  0  0  0  0  0  0  0  0  0
   10.0005   -4.2520   16.5631 C   0  0  0  0  0  0  0  0  0  0  0  0
   10.2759   -4.0036   17.8845 C   0  0  0  0  0  0  0  0  0  0  0  0
    8.5652    1.5478   25.3778 N   0  0  0  0  0  0  0  0  0  0  0  0
    6.8048   -7.5457   17.8752 C   0  0  0  0  0  0  0  0  0  0  0  0
    6.1721   -8.2186   15.9886 N   0  0  0  0  0  0  0  0  0  0  0  0
   11.1764   -2.6600   19.5604 C   0  0  0  0  0  0  0  0  0  0  0  0
    9.5491   -0.6380   24.1912 C   0  0  0  0  0  0  0  0  0  0  0  0
    7.5337   -6.9256   16.9519 C   0  0  0  0  0  0  0  0  0  0  0  0
    9.6782    0.5671   23.5143 C   0  0  0  0  0  0  0  0  0  0  0  0
    8.4532    0.3482   26.0821 C   0  0  0  0  0  0  0  0  0  0  0  0
   10.4239   -1.7677   22.2230 N   0  0  0  0  0  0  0  0  0  0  0  0
    9.9468   -4.5953   20.1709 C   0  0  0  0  0  0  0  0  0  0  0  0
   10.0366   -3.0590   23.9864 N   0  0  0  0  0  0  0  0  0  0  0  0
    7.1191   -7.3636   15.7739 C   0  0  0  0  0  0  0  0  0  0  0  0
    5.9612   -8.3203   17.2732 N   0  0  0  0  0  0  0  0  0  0  0  0
    8.5296   -5.9814   17.1841 C   0  0  0  0  0  0  0  0  0  0  0  0
    9.1527   -5.2118   16.2116 C   0  0  0  0  0  0  0  0  0  0  0  0
   10.3364   -3.8368   22.9255 O   0  0  0  0  0  0  0  0  0  0  0  0
    9.6947   -4.8407   18.8534 C   0  0  0  0  0  0  0  0  0  0  0  0
    9.1596    1.7042   24.1381 C   0  0  0  0  0  0  0  0  0  0  0  0
   11.0456   -2.9774   18.2694 N   0  0  0  0  0  0  0  0  0  0  0  0
   10.4788   -3.0457   21.8593 C   0  0  0  0  0  0  0  0  0  0  0  0
    8.8693   -5.8099   18.4657 N   0  0  0  0  0  0  0  0  0  0  0  0
    8.9892   -0.7926   25.4573 C   0  0  0  0  0  0  0  0  0  0  0  0
   10.5677   -3.4462   20.5323 C   0  0  0  0  0  0  0  0  0  0  0  0
  1  8  1  0
  1 12  4  0
  1 14  4  0
  2  3  4  0
  2 18  4  0
  3 20  4  0
  3 22  4  0
  4 11  4  0
  4 21  4  0
  5  9  4  0
  5 16  4  0
  6 15  4  0
  6 16  4  0
  7 22  4  0
  7 26  4  0
  8 10  4  0
  8 25  4  0
  9 15  4  0
  9 17  1  0
 10 21  4  0
 11 25  4  0
 12 23  4  0
 13 20  4  0
 13 26  4  0
 14 19  4  0
 17 18  4  0
 17 24  4  0
 19 23  4  0
 20 24  4  0
 23 26  1  0
M  END
$$$$

 Created by Python create_sdf_string function

 26 30  0  0  0  0  0  0  0  0999 V2000
   10.0084   -1.8019   23.4945 C   0  0  0  0  0  0  0  0  0  0  0  0
   10.0005   -4.2520   16.5631 C   0  0  0  0  0  0  0  0  0  0  0  0
   10.2759   -4.0036   17.8845 C   0  0  0  0  0  0  0  0  0  0  0  0
    8.5652    1.5478   25.3778 N   0  0  0  0  0  0  0  0  0  0  0  0
    6.8048   -7.5457   17.8752 C   0  0  0  0  0  0  0  0  0  0  0  0
    6.1721   -8.2186   15.9886 N   0  0  0  0  0  0  0  0  0  0  0  0
   11.1764   -2.6600   19.5604 C   0  0  0  0  0  0  0  0  0  0  0  0
    9.5491   -0.6380   24.1912 C   0  0  0  0  0  0  0  0  0  0  0  0
    7.5337   -6.9256   16.9519 C   0  0  0  0  0  0  0  0  0  0  0  0
    9.6782    0.5671   23.5143 C   0  0  0  0  0  0  0  0  0  0  0  0
    8.4532    0.3482   26.0821 C   0  0  0  0  0  0  0  0  0  0  0  0
   10.4239   -1.7677   22.2230 N   0  0  0  0  0  0  0  0  0  0  0  0
    9.9468   -4.5953   20.1709 C   0  0  0  0  0  0  0  0  0  0  0  0
   10.0366   -3.0590   23.9864 N   0  0  0  0  0  0  0  0  0  0  0  0
    7.1191   -7.3636   15.7739 C   0  0  0  0  0  0  0  0  0  0  0  0
    5.9612   -8.3203   17.2732 N   0  0  0  0  0  0  0  0  0  0  0  0
    8.5296   -5.9814   17.1841 C   0  0  0  0  0  0  0  0  0  0  0  0
    9.1527   -5.2118   16.2116 C   0  0  0  0  0  0  0  0  0  0  0  0
   10.3364   -3.8368   22.9255 O   0  0  0  0  0  0  0  0  0  0  0  0
    9.6947   -4.8407   18.8534 C   0  0  0  0  0  0  0  0  0  0  0  0
    9.1596    1.7042   24.1381 C   0  0  0  0  0  0  0  0  0  0  0  0
   11.0456   -2.9774   18.2694 N   0  0  0  0  0  0  0  0  0  0  0  0
   10.4788   -3.0457   21.8593 C   0  0  0  0  0  0  0  0  0  0  0  0
    8.8693   -5.8099   18.4657 N   0  0  0  0  0  0  0  0  0  0  0  0
    8.9892   -0.7926   25.4573 C   0  0  0  0  0  0  0  0  0  0  0  0
   10.5677   -3.4462   20.5323 C   0  0  0  0  0  0  0  0  0  0  0  0
  1  8  1  0
  1 12  4  0
  1 14  4  0
  2  3  4  0
  2 18  4  0
  3 20  4  0
  3 22  4  0
  4 11  4  0
  4 21  4  0
  5  9  4  0
  5 16  4  0
  6 15  4  0
  6 16  4  0
  7 22  4  0
  7 26  4  0
  8 10  4  0
  8 25  4  0
  9 15  4  0
  9 17  1  0
 10 21  4  0
 11 25  4  0
 12 23  4  0
 13 20  4  0
 13 26  4  0
 14 19  4  0
 17 18  4  0
 17 24  4  0
 19 23  4  0
 20 24  4  0
 23 26  1  0
M  END
$$$$

 Created by Python create_sdf_string function

 26 30  0  0  0  0  0  0  0  0999 V2000
   10.0084   -1.8019   23.4945 C   0  0  0  0  0  0  0  0  0  0  0  0
   10.0005   -4.2520   16.5631 C   0  0  0  0  0  0  0  0  0  0  0  0
   10.2759   -4.0036   17.8845 C   0  0  0  0  0  0  0  0  0  0  0  0
    8.5652    1.5478   25.3778 N   0  0  0  0  0  0  0  0  0  0  0  0
    6.8048   -7.5457   17.8752 C   0  0  0  0  0  0  0  0  0  0  0  0
    6.1721   -8.2186   15.9886 N   0  0  0  0  0  0  0  0  0  0  0  0
   11.1764   -2.6600   19.5604 C   0  0  0  0  0  0  0  0  0  0  0  0
    9.5491   -0.6380   24.1912 C   0  0  0  0  0  0  0  0  0  0  0  0
    7.5337   -6.9256   16.9519 C   0  0  0  0  0  0  0  0  0  0  0  0
    9.6782    0.5671   23.5143 C   0  0  0  0  0  0  0  0  0  0  0  0
    8.4532    0.3482   26.0821 C   0  0  0  0  0  0  0  0  0  0  0  0
   10.4239   -1.7677   22.2230 N   0  0  0  0  0  0  0  0  0  0  0  0
    9.9468   -4.5953   20.1709 C   0  0  0  0  0  0  0  0  0  0  0  0
   10.0366   -3.0590   23.9864 N   0  0  0  0  0  0  0  0  0  0  0  0
    7.1191   -7.3636   15.7739 C   0  0  0  0  0  0  0  0  0  0  0  0
    5.9612   -8.3203   17.2732 N   0  0  0  0  0  0  0  0  0  0  0  0
    8.5296   -5.9814   17.1841 C   0  0  0  0  0  0  0  0  0  0  0  0
    9.1527   -5.2118   16.2116 C   0  0  0  0  0  0  0  0  0  0  0  0
   10.3364   -3.8368   22.9255 O   0  0  0  0  0  0  0  0  0  0  0  0
    9.6947   -4.8407   18.8534 C   0  0  0  0  0  0  0  0  0  0  0  0
    9.1596    1.7042   24.1381 C   0  0  0  0  0  0  0  0  0  0  0  0
   11.0456   -2.9774   18.2694 N   0  0  0  0  0  0  0  0  0  0  0  0
   10.4788   -3.0457   21.8593 C   0  0  0  0  0  0  0  0  0  0  0  0
    8.8693   -5.8099   18.4657 N   0  0  0  0  0  0  0  0  0  0  0  0
    8.9892   -0.7926   25.4573 C   0  0  0  0  0  0  0  0  0  0  0  0
   10.5677   -3.4462   20.5323 C   0  0  0  0  0  0  0  0  0  0  0  0
  1  8  1  0
  1 12  4  0
  1 14  4  0
  2  3  4  0
  2 18  4  0
  3 20  4  0
  3 22  4  0
  4 11  4  0
  4 21  4  0
  5  9  4  0
  5 16  4  0
  6 15  4  0
  6 16  4  0
  7 22  4  0
  7 26  4  0
  8 10  4  0
  8 25  4  0
  9 15  4  0
  9 17  1  0
 10 21  4  0
 11 25  4  0
 12 23  4  0
 13 20  4  0
 13 26  4  0
 14 19  4  0
 17 18  4  0
 17 24  4  0
 19 23  4  0
 20 24  4  0
 23 26  1  0
M  END
$$$$

 Created by Python create_sdf_string function

 26 30  0  0  0  0  0  0  0  0999 V2000
   10.0084   -1.8019   23.4945 C   0  0  0  0  0  0  0  0  0  0  0  0
   10.0005   -4.2520   16.5631 C   0  0  0  0  0  0  0  0  0  0  0  0
   10.2759   -4.0036   17.8845 C   0  0  0  0  0  0  0  0  0  0  0  0
    8.5652    1.5478   25.3778 N   0  0  0  0  0  0  0  0  0  0  0  0
    6.8048   -7.5457   17.8752 C   0  0  0  0  0  0  0  0  0  0  0  0
    6.1721   -8.2186   15.9886 N   0  0  0  0  0  0  0  0  0  0  0  0
   11.1764   -2.6600   19.5604 C   0  0  0  0  0  0  0  0  0  0  0  0
    9.5491   -0.6380   24.1912 C   0  0  0  0  0  0  0  0  0  0  0  0
    7.5337   -6.9256   16.9519 C   0  0  0  0  0  0  0  0  0  0  0  0
    9.6782    0.5671   23.5143 C   0  0  0  0  0  0  0  0  0  0  0  0
    8.4532    0.3482   26.0821 C   0  0  0  0  0  0  0  0  0  0  0  0
   10.4239   -1.7677   22.2230 N   0  0  0  0  0  0  0  0  0  0  0  0
    9.9468   -4.5953   20.1709 C   0  0  0  0  0  0  0  0  0  0  0  0
   10.0366   -3.0590   23.9864 N   0  0  0  0  0  0  0  0  0  0  0  0
    7.1191   -7.3636   15.7739 C   0  0  0  0  0  0  0  0  0  0  0  0
    5.9612   -8.3203   17.2732 N   0  0  0  0  0  0  0  0  0  0  0  0
    8.5296   -5.9814   17.1841 C   0  0  0  0  0  0  0  0  0  0  0  0
    9.1527   -5.2118   16.2116 C   0  0  0  0  0  0  0  0  0  0  0  0
   10.3364   -3.8368   22.9255 O   0  0  0  0  0  0  0  0  0  0  0  0
    9.6947   -4.8407   18.8534 C   0  0  0  0  0  0  0  0  0  0  0  0
    9.1596    1.7042   24.1381 C   0  0  0  0  0  0  0  0  0  0  0  0
   11.0456   -2.9774   18.2694 N   0  0  0  0  0  0  0  0  0  0  0  0
   10.4788   -3.0457   21.8593 C   0  0  0  0  0  0  0  0  0  0  0  0
    8.8693   -5.8099   18.4657 N   0  0  0  0  0  0  0  0  0  0  0  0
    8.9892   -0.7926   25.4573 C   0  0  0  0  0  0  0  0  0  0  0  0
   10.5677   -3.4462   20.5323 C   0  0  0  0  0  0  0  0  0  0  0  0
  1  8  1  0
  1 12  4  0
  1 14  4  0
  2  3  4  0
  2 18  4  0
  3 20  4  0
  3 22  4  0
  4 11  4  0
  4 21  4  0
  5  9  4  0
  5 16  4  0
  6 15  4  0
  6 16  4  0
  7 22  4  0
  7 26  4  0
  8 10  4  0
  8 25  4  0
  9 15  4  0
  9 17  1  0
 10 21  4  0
 11 25  4  0
 12 23  4  0
 13 20  4  0
 13 26  4  0
 14 19  4  0
 17 18  4  0
 17 24  4  0
 19 23  4  0
 20 24  4  0
 23 26  1  0
M  END
$$$$

 Created by Python create_sdf_string function

 26 30  0  0  0  0  0  0  0  0999 V2000
   10.0084   -1.8019   23.4945 C   0  0  0  0  0  0  0  0  0  0  0  0
   10.0005   -4.2520   16.5631 C   0  0  0  0  0  0  0  0  0  0  0  0
   10.2759   -4.0036   17.8845 C   0  0  0  0  0  0  0  0  0  0  0  0
    8.5652    1.5478   25.3778 N   0  0  0  0  0  0  0  0  0  0  0  0
    6.8048   -7.5457   17.8752 C   0  0  0  0  0  0  0  0  0  0  0  0
    6.1721   -8.2186   15.9886 N   0  0  0  0  0  0  0  0  0  0  0  0
   11.1764   -2.6600   19.5604 C   0  0  0  0  0  0  0  0  0  0  0  0
    9.5491   -0.6380   24.1912 C   0  0  0  0  0  0  0  0  0  0  0  0
    7.5337   -6.9256   16.9519 C   0  0  0  0  0  0  0  0  0  0  0  0
    9.6782    0.5671   23.5143 C   0  0  0  0  0  0  0  0  0  0  0  0
    8.4532    0.3482   26.0821 C   0  0  0  0  0  0  0  0  0  0  0  0
   10.4239   -1.7677   22.2230 N   0  0  0  0  0  0  0  0  0  0  0  0
    9.9468   -4.5953   20.1709 C   0  0  0  0  0  0  0  0  0  0  0  0
   10.0366   -3.0590   23.9864 N   0  0  0  0  0  0  0  0  0  0  0  0
    7.1191   -7.3636   15.7739 C   0  0  0  0  0  0  0  0  0  0  0  0
    5.9612   -8.3203   17.2732 N   0  0  0  0  0  0  0  0  0  0  0  0
    8.5296   -5.9814   17.1841 C   0  0  0  0  0  0  0  0  0  0  0  0
    9.1527   -5.2118   16.2116 C   0  0  0  0  0  0  0  0  0  0  0  0
   10.3364   -3.8368   22.9255 O   0  0  0  0  0  0  0  0  0  0  0  0
    9.6947   -4.8407   18.8534 C   0  0  0  0  0  0  0  0  0  0  0  0
    9.1596    1.7042   24.1381 C   0  0  0  0  0  0  0  0  0  0  0  0
   11.0456   -2.9774   18.2694 N   0  0  0  0  0  0  0  0  0  0  0  0
   10.4788   -3.0457   21.8593 C   0  0  0  0  0  0  0  0  0  0  0  0
    8.8693   -5.8099   18.4657 N   0  0  0  0  0  0  0  0  0  0  0  0
    8.9892   -0.7926   25.4573 C   0  0  0  0  0  0  0  0  0  0  0  0
   10.5677   -3.4462   20.5323 C   0  0  0  0  0  0  0  0  0  0  0  0
  1  8  1  0
  1 12  4  0
  1 14  4  0
  2  3  4  0
  2 18  4  0
  3 20  4  0
  3 22  4  0
  4 11  4  0
  4 21  4  0
  5  9  4  0
  5 16  4  0
  6 15  4  0
  6 16  4  0
  7 22  4  0
  7 26  4  0
  8 10  4  0
  8 25  4  0
  9 15  4  0
  9 17  1  0
 10 21  4  0
 11 25  4  0
 12 23  4  0
 13 20  4  0
 13 26  4  0
 14 19  4  0
 17 18  4  0
 17 24  4  0
 19 23  4  0
 20 24  4  0
 23 26  1  0
M  END
$$$$

 Created by Python create_sdf_string function

 26 30  0  0  0  0  0  0  0  0999 V2000
   10.0084   -1.8019   23.4945 C   0  0  0  0  0  0  0  0  0  0  0  0
   10.0005   -4.2520   16.5631 C   0  0  0  0  0  0  0  0  0  0  0  0
   10.2759   -4.0036   17.8845 C   0  0  0  0  0  0  0  0  0  0  0  0
    8.5652    1.5478   25.3778 N   0  0  0  0  0  0  0  0  0  0  0  0
    6.8048   -7.5457   17.8752 C   0  0  0  0  0  0  0  0  0  0  0  0
    6.1721   -8.2186   15.9886 N   0  0  0  0  0  0  0  0  0  0  0  0
   11.1764   -2.6600   19.5604 C   0  0  0  0  0  0  0  0  0  0  0  0
    9.5491   -0.6380   24.1912 C   0  0  0  0  0  0  0  0  0  0  0  0
    7.5337   -6.9256   16.9519 C   0  0  0  0  0  0  0  0  0  0  0  0
    9.6782    0.5671   23.5143 C   0  0  0  0  0  0  0  0  0  0  0  0
    8.4532    0.3482   26.0821 C   0  0  0  0  0  0  0  0  0  0  0  0
   10.4239   -1.7677   22.2230 N   0  0  0  0  0  0  0  0  0  0  0  0
    9.9468   -4.5953   20.1709 C   0  0  0  0  0  0  0  0  0  0  0  0
   10.0366   -3.0590   23.9864 N   0  0  0  0  0  0  0  0  0  0  0  0
    7.1191   -7.3636   15.7739 C   0  0  0  0  0  0  0  0  0  0  0  0
    5.9612   -8.3203   17.2732 N   0  0  0  0  0  0  0  0  0  0  0  0
    8.5296   -5.9814   17.1841 C   0  0  0  0  0  0  0  0  0  0  0  0
    9.1527   -5.2118   16.2116 C   0  0  0  0  0  0  0  0  0  0  0  0
   10.3364   -3.8368   22.9255 O   0  0  0  0  0  0  0  0  0  0  0  0
    9.6947   -4.8407   18.8534 C   0  0  0  0  0  0  0  0  0  0  0  0
    9.1596    1.7042   24.1381 C   0  0  0  0  0  0  0  0  0  0  0  0
   11.0456   -2.9774   18.2694 N   0  0  0  0  0  0  0  0  0  0  0  0
   10.4788   -3.0457   21.8593 C   0  0  0  0  0  0  0  0  0  0  0  0
    8.8693   -5.8099   18.4657 N   0  0  0  0  0  0  0  0  0  0  0  0
    8.9892   -0.7926   25.4573 C   0  0  0  0  0  0  0  0  0  0  0  0
   10.5677   -3.4462   20.5323 C   0  0  0  0  0  0  0  0  0  0  0  0
  1  8  1  0
  1 12  4  0
  1 14  4  0
  2  3  4  0
  2 18  4  0
  3 20  4  0
  3 22  4  0
  4 11  4  0
  4 21  4  0
  5  9  4  0
  5 16  4  0
  6 15  4  0
  6 16  4  0
  7 22  4  0
  7 26  4  0
  8 10  4  0
  8 25  4  0
  9 15  4  0
  9 17  1  0
 10 21  4  0
 11 25  4  0
 12 23  4  0
 13 20  4  0
 13 26  4  0
 14 19  4  0
 17 18  4  0
 17 24  4  0
 19 23  4  0
 20 24  4  0
 23 26  1  0
M  END
$$$$

 Created by Python create_sdf_string function

 26 30  0  0  0  0  0  0  0  0999 V2000
   10.0084   -1.8019   23.4945 C   0  0  0  0  0  0  0  0  0  0  0  0
   10.0005   -4.2520   16.5631 C   0  0  0  0  0  0  0  0  0  0  0  0
   10.2759   -4.0036   17.8845 C   0  0  0  0  0  0  0  0  0  0  0  0
    8.5652    1.5478   25.3778 N   0  0  0  0  0  0  0  0  0  0  0  0
    6.8048   -7.5457   17.8752 C   0  0  0  0  0  0  0  0  0  0  0  0
    6.1721   -8.2186   15.9886 N   0  0  0  0  0  0  0  0  0  0  0  0
   11.1764   -2.6600   19.5604 C   0  0  0  0  0  0  0  0  0  0  0  0
    9.5491   -0.6380   24.1912 C   0  0  0  0  0  0  0  0  0  0  0  0
    7.5337   -6.9256   16.9519 C   0  0  0  0  0  0  0  0  0  0  0  0
    9.6782    0.5671   23.5143 C   0  0  0  0  0  0  0  0  0  0  0  0
    8.4532    0.3482   26.0821 C   0  0  0  0  0  0  0  0  0  0  0  0
   10.4239   -1.7677   22.2230 N   0  0  0  0  0  0  0  0  0  0  0  0
    9.9468   -4.5953   20.1709 C   0  0  0  0  0  0  0  0  0  0  0  0
   10.0366   -3.0590   23.9864 N   0  0  0  0  0  0  0  0  0  0  0  0
    7.1191   -7.3636   15.7739 C   0  0  0  0  0  0  0  0  0  0  0  0
    5.9612   -8.3203   17.2732 N   0  0  0  0  0  0  0  0  0  0  0  0
    8.5296   -5.9814   17.1841 C   0  0  0  0  0  0  0  0  0  0  0  0
    9.1527   -5.2118   16.2116 C   0  0  0  0  0  0  0  0  0  0  0  0
   10.3364   -3.8368   22.9255 O   0  0  0  0  0  0  0  0  0  0  0  0
    9.6947   -4.8407   18.8534 C   0  0  0  0  0  0  0  0  0  0  0  0
    9.1596    1.7042   24.1381 C   0  0  0  0  0  0  0  0  0  0  0  0
   11.0456   -2.9774   18.2694 N   0  0  0  0  0  0  0  0  0  0  0  0
   10.4788   -3.0457   21.8593 C   0  0  0  0  0  0  0  0  0  0  0  0
    8.8693   -5.8099   18.4657 N   0  0  0  0  0  0  0  0  0  0  0  0
    8.9892   -0.7926   25.4573 C   0  0  0  0  0  0  0  0  0  0  0  0
   10.5677   -3.4462   20.5323 C   0  0  0  0  0  0  0  0  0  0  0  0
  1  8  1  0
  1 12  4  0
  1 14  4  0
  2  3  4  0
  2 18  4  0
  3 20  4  0
  3 22  4  0
  4 11  4  0
  4 21  4  0
  5  9  4  0
  5 16  4  0
  6 15  4  0
  6 16  4  0
  7 22  4  0
  7 26  4  0
  8 10  4  0
  8 25  4  0
  9 15  4  0
  9 17  1  0
 10 21  4  0
 11 25  4  0
 12 23  4  0
 13 20  4  0
 13 26  4  0
 14 19  4  0
 17 18  4  0
 17 24  4  0
 19 23  4  0
 20 24  4  0
 23 26  1  0
M  END
$$$$

 Created by Python create_sdf_string function

 26 30  0  0  0  0  0  0  0  0999 V2000
   10.0084   -1.8019   23.4945 C   0  0  0  0  0  0  0  0  0  0  0  0
   10.0005   -4.2520   16.5631 C   0  0  0  0  0  0  0  0  0  0  0  0
   10.2759   -4.0036   17.8845 C   0  0  0  0  0  0  0  0  0  0  0  0
    8.5652    1.5478   25.3778 N   0  0  0  0  0  0  0  0  0  0  0  0
    6.8048   -7.5457   17.8752 C   0  0  0  0  0  0  0  0  0  0  0  0
    6.1721   -8.2186   15.9886 N   0  0  0  0  0  0  0  0  0  0  0  0
   11.1764   -2.6600   19.5604 C   0  0  0  0  0  0  0  0  0  0  0  0
    9.5491   -0.6380   24.1912 C   0  0  0  0  0  0  0  0  0  0  0  0
    7.5337   -6.9256   16.9519 C   0  0  0  0  0  0  0  0  0  0  0  0
    9.6782    0.5671   23.5143 C   0  0  0  0  0  0  0  0  0  0  0  0
    8.4532    0.3482   26.0821 C   0  0  0  0  0  0  0  0  0  0  0  0
   10.4239   -1.7677   22.2230 N   0  0  0  0  0  0  0  0  0  0  0  0
    9.9468   -4.5953   20.1709 C   0  0  0  0  0  0  0  0  0  0  0  0
   10.0366   -3.0590   23.9864 N   0  0  0  0  0  0  0  0  0  0  0  0
    7.1191   -7.3636   15.7739 C   0  0  0  0  0  0  0  0  0  0  0  0
    5.9612   -8.3203   17.2732 N   0  0  0  0  0  0  0  0  0  0  0  0
    8.5296   -5.9814   17.1841 C   0  0  0  0  0  0  0  0  0  0  0  0
    9.1527   -5.2118   16.2116 C   0  0  0  0  0  0  0  0  0  0  0  0
   10.3364   -3.8368   22.9255 O   0  0  0  0  0  0  0  0  0  0  0  0
    9.6947   -4.8407   18.8534 C   0  0  0  0  0  0  0  0  0  0  0  0
    9.1596    1.7042   24.1381 C   0  0  0  0  0  0  0  0  0  0  0  0
   11.0456   -2.9774   18.2694 N   0  0  0  0  0  0  0  0  0  0  0  0
   10.4788   -3.0457   21.8593 C   0  0  0  0  0  0  0  0  0  0  0  0
    8.8693   -5.8099   18.4657 N   0  0  0  0  0  0  0  0  0  0  0  0
    8.9892   -0.7926   25.4573 C   0  0  0  0  0  0  0  0  0  0  0  0
   10.5677   -3.4462   20.5323 C   0  0  0  0  0  0  0  0  0  0  0  0
  1  8  1  0
  1 12  4  0
  1 14  4  0
  2  3  4  0
  2 18  4  0
  3 20  4  0
  3 22  4  0
  4 11  4  0
  4 21  4  0
  5  9  4  0
  5 16  4  0
  6 15  4  0
  6 16  4  0
  7 22  4  0
  7 26  4  0
  8 10  4  0
  8 25  4  0
  9 15  4  0
  9 17  1  0
 10 21  4  0
 11 25  4  0
 12 23  4  0
 13 20  4  0
 13 26  4  0
 14 19  4  0
 17 18  4  0
 17 24  4  0
 19 23  4  0
 20 24  4  0
 23 26  1  0
M  END
$$$$

 Created by Python create_sdf_string function

 26 30  0  0  0  0  0  0  0  0999 V2000
   10.0084   -1.8019   23.4945 C   0  0  0  0  0  0  0  0  0  0  0  0
   10.0005   -4.2520   16.5631 C   0  0  0  0  0  0  0  0  0  0  0  0
   10.2759   -4.0036   17.8845 C   0  0  0  0  0  0  0  0  0  0  0  0
    8.5652    1.5478   25.3778 N   0  0  0  0  0  0  0  0  0  0  0  0
    6.8048   -7.5457   17.8752 C   0  0  0  0  0  0  0  0  0  0  0  0
    6.1721   -8.2186   15.9886 N   0  0  0  0  0  0  0  0  0  0  0  0
   11.1764   -2.6600   19.5604 C   0  0  0  0  0  0  0  0  0  0  0  0
    9.5491   -0.6380   24.1912 C   0  0  0  0  0  0  0  0  0  0  0  0
    7.5337   -6.9256   16.9519 C   0  0  0  0  0  0  0  0  0  0  0  0
    9.6782    0.5671   23.5143 C   0  0  0  0  0  0  0  0  0  0  0  0
    8.4532    0.3482   26.0821 C   0  0  0  0  0  0  0  0  0  0  0  0
   10.4239   -1.7677   22.2230 N   0  0  0  0  0  0  0  0  0  0  0  0
    9.9468   -4.5953   20.1709 C   0  0  0  0  0  0  0  0  0  0  0  0
   10.0366   -3.0590   23.9864 N   0  0  0  0  0  0  0  0  0  0  0  0
    7.1191   -7.3636   15.7739 C   0  0  0  0  0  0  0  0  0  0  0  0
    5.9612   -8.3203   17.2732 N   0  0  0  0  0  0  0  0  0  0  0  0
    8.5296   -5.9814   17.1841 C   0  0  0  0  0  0  0  0  0  0  0  0
    9.1527   -5.2118   16.2116 C   0  0  0  0  0  0  0  0  0  0  0  0
   10.3364   -3.8368   22.9255 O   0  0  0  0  0  0  0  0  0  0  0  0
    9.6947   -4.8407   18.8534 C   0  0  0  0  0  0  0  0  0  0  0  0
    9.1596    1.7042   24.1381 C   0  0  0  0  0  0  0  0  0  0  0  0
   11.0456   -2.9774   18.2694 N   0  0  0  0  0  0  0  0  0  0  0  0
   10.4788   -3.0457   21.8593 C   0  0  0  0  0  0  0  0  0  0  0  0
    8.8693   -5.8099   18.4657 N   0  0  0  0  0  0  0  0  0  0  0  0
    8.9892   -0.7926   25.4573 C   0  0  0  0  0  0  0  0  0  0  0  0
   10.5677   -3.4462   20.5323 C   0  0  0  0  0  0  0  0  0  0  0  0
  1  8  1  0
  1 12  4  0
  1 14  4  0
  2  3  4  0
  2 18  4  0
  3 20  4  0
  3 22  4  0
  4 11  4  0
  4 21  4  0
  5  9  4  0
  5 16  4  0
  6 15  4  0
  6 16  4  0
  7 22  4  0
  7 26  4  0
  8 10  4  0
  8 25  4  0
  9 15  4  0
  9 17  1  0
 10 21  4  0
 11 25  4  0
 12 23  4  0
 13 20  4  0
 13 26  4  0
 14 19  4  0
 17 18  4  0
 17 24  4  0
 19 23  4  0
 20 24  4  0
 23 26  1  0
M  END
$$$$

 Created by Python create_sdf_string function

 26 30  0  0  0  0  0  0  0  0999 V2000
   10.0084   -1.8019   23.4945 C   0  0  0  0  0  0  0  0  0  0  0  0
   10.0005   -4.2520   16.5631 C   0  0  0  0  0  0  0  0  0  0  0  0
   10.2759   -4.0036   17.8845 C   0  0  0  0  0  0  0  0  0  0  0  0
    8.5652    1.5478   25.3778 N   0  0  0  0  0  0  0  0  0  0  0  0
    6.8048   -7.5457   17.8752 C   0  0  0  0  0  0  0  0  0  0  0  0
    6.1721   -8.2186   15.9886 N   0  0  0  0  0  0  0  0  0  0  0  0
   11.1764   -2.6600   19.5604 C   0  0  0  0  0  0  0  0  0  0  0  0
    9.5491   -0.6380   24.1912 C   0  0  0  0  0  0  0  0  0  0  0  0
    7.5337   -6.9256   16.9519 C   0  0  0  0  0  0  0  0  0  0  0  0
    9.6782    0.5671   23.5143 C   0  0  0  0  0  0  0  0  0  0  0  0
    8.4532    0.3482   26.0821 C   0  0  0  0  0  0  0  0  0  0  0  0
   10.4239   -1.7677   22.2230 N   0  0  0  0  0  0  0  0  0  0  0  0
    9.9468   -4.5953   20.1709 C   0  0  0  0  0  0  0  0  0  0  0  0
   10.0366   -3.0590   23.9864 N   0  0  0  0  0  0  0  0  0  0  0  0
    7.1191   -7.3636   15.7739 C   0  0  0  0  0  0  0  0  0  0  0  0
    5.9612   -8.3203   17.2732 N   0  0  0  0  0  0  0  0  0  0  0  0
    8.5296   -5.9814   17.1841 C   0  0  0  0  0  0  0  0  0  0  0  0
    9.1527   -5.2118   16.2116 C   0  0  0  0  0  0  0  0  0  0  0  0
   10.3364   -3.8368   22.9255 O   0  0  0  0  0  0  0  0  0  0  0  0
    9.6947   -4.8407   18.8534 C   0  0  0  0  0  0  0  0  0  0  0  0
    9.1596    1.7042   24.1381 C   0  0  0  0  0  0  0  0  0  0  0  0
   11.0456   -2.9774   18.2694 N   0  0  0  0  0  0  0  0  0  0  0  0
   10.4788   -3.0457   21.8593 C   0  0  0  0  0  0  0  0  0  0  0  0
    8.8693   -5.8099   18.4657 N   0  0  0  0  0  0  0  0  0  0  0  0
    8.9892   -0.7926   25.4573 C   0  0  0  0  0  0  0  0  0  0  0  0
   10.5677   -3.4462   20.5323 C   0  0  0  0  0  0  0  0  0  0  0  0
  1  8  1  0
  1 12  4  0
  1 14  4  0
  2  3  4  0
  2 18  4  0
  3 20  4  0
  3 22  4  0
  4 11  4  0
  4 21  4  0
  5  9  4  0
  5 16  4  0
  6 15  4  0
  6 16  4  0
  7 22  4  0
  7 26  4  0
  8 10  4  0
  8 25  4  0
  9 15  4  0
  9 17  1  0
 10 21  4  0
 11 25  4  0
 12 23  4  0
 13 20  4  0
 13 26  4  0
 14 19  4  0
 17 18  4  0
 17 24  4  0
 19 23  4  0
 20 24  4  0
 23 26  1  0
M  END
$$$$

 Created by Python create_sdf_string function

 26 30  0  0  0  0  0  0  0  0999 V2000
   10.0084   -1.8019   23.4945 C   0  0  0  0  0  0  0  0  0  0  0  0
   10.0005   -4.2520   16.5631 C   0  0  0  0  0  0  0  0  0  0  0  0
   10.2759   -4.0036   17.8845 C   0  0  0  0  0  0  0  0  0  0  0  0
    8.5652    1.5478   25.3778 N   0  0  0  0  0  0  0  0  0  0  0  0
    6.8048   -7.5457   17.8752 C   0  0  0  0  0  0  0  0  0  0  0  0
    6.1721   -8.2186   15.9886 N   0  0  0  0  0  0  0  0  0  0  0  0
   11.1764   -2.6600   19.5604 C   0  0  0  0  0  0  0  0  0  0  0  0
    9.5491   -0.6380   24.1912 C   0  0  0  0  0  0  0  0  0  0  0  0
    7.5337   -6.9256   16.9519 C   0  0  0  0  0  0  0  0  0  0  0  0
    9.6782    0.5671   23.5143 C   0  0  0  0  0  0  0  0  0  0  0  0
    8.4532    0.3482   26.0821 C   0  0  0  0  0  0  0  0  0  0  0  0
   10.4239   -1.7677   22.2230 N   0  0  0  0  0  0  0  0  0  0  0  0
    9.9468   -4.5953   20.1709 C   0  0  0  0  0  0  0  0  0  0  0  0
   10.0366   -3.0590   23.9864 N   0  0  0  0  0  0  0  0  0  0  0  0
    7.1191   -7.3636   15.7739 C   0  0  0  0  0  0  0  0  0  0  0  0
    5.9612   -8.3203   17.2732 N   0  0  0  0  0  0  0  0  0  0  0  0
    8.5296   -5.9814   17.1841 C   0  0  0  0  0  0  0  0  0  0  0  0
    9.1527   -5.2118   16.2116 C   0  0  0  0  0  0  0  0  0  0  0  0
   10.3364   -3.8368   22.9255 O   0  0  0  0  0  0  0  0  0  0  0  0
    9.6947   -4.8407   18.8534 C   0  0  0  0  0  0  0  0  0  0  0  0
    9.1596    1.7042   24.1381 C   0  0  0  0  0  0  0  0  0  0  0  0
   11.0456   -2.9774   18.2694 N   0  0  0  0  0  0  0  0  0  0  0  0
   10.4788   -3.0457   21.8593 C   0  0  0  0  0  0  0  0  0  0  0  0
    8.8693   -5.8099   18.4657 N   0  0  0  0  0  0  0  0  0  0  0  0
    8.9892   -0.7926   25.4573 C   0  0  0  0  0  0  0  0  0  0  0  0
   10.5677   -3.4462   20.5323 C   0  0  0  0  0  0  0  0  0  0  0  0
  1  8  1  0
  1 12  4  0
  1 14  4  0
  2  3  4  0
  2 18  4  0
  3 20  4  0
  3 22  4  0
  4 11  4  0
  4 21  4  0
  5  9  4  0
  5 16  4  0
  6 15  4  0
  6 16  4  0
  7 22  4  0
  7 26  4  0
  8 10  4  0
  8 25  4  0
  9 15  4  0
  9 17  1  0
 10 21  4  0
 11 25  4  0
 12 23  4  0
 13 20  4  0
 13 26  4  0
 14 19  4  0
 17 18  4  0
 17 24  4  0
 19 23  4  0
 20 24  4  0
 23 26  1  0
M  END
$$$$

 Created by Python create_sdf_string function

 26 30  0  0  0  0  0  0  0  0999 V2000
   10.0084   -1.8019   23.4945 C   0  0  0  0  0  0  0  0  0  0  0  0
   10.0005   -4.2520   16.5631 C   0  0  0  0  0  0  0  0  0  0  0  0
   10.2759   -4.0036   17.8845 C   0  0  0  0  0  0  0  0  0  0  0  0
    8.5652    1.5478   25.3778 N   0  0  0  0  0  0  0  0  0  0  0  0
    6.8048   -7.5457   17.8752 C   0  0  0  0  0  0  0  0  0  0  0  0
    6.1721   -8.2186   15.9886 N   0  0  0  0  0  0  0  0  0  0  0  0
   11.1764   -2.6600   19.5604 C   0  0  0  0  0  0  0  0  0  0  0  0
    9.5491   -0.6380   24.1912 C   0  0  0  0  0  0  0  0  0  0  0  0
    7.5337   -6.9256   16.9519 C   0  0  0  0  0  0  0  0  0  0  0  0
    9.6782    0.5671   23.5143 C   0  0  0  0  0  0  0  0  0  0  0  0
    8.4532    0.3482   26.0821 C   0  0  0  0  0  0  0  0  0  0  0  0
   10.4239   -1.7677   22.2230 N   0  0  0  0  0  0  0  0  0  0  0  0
    9.9468   -4.5953   20.1709 C   0  0  0  0  0  0  0  0  0  0  0  0
   10.0366   -3.0590   23.9864 N   0  0  0  0  0  0  0  0  0  0  0  0
    7.1191   -7.3636   15.7739 C   0  0  0  0  0  0  0  0  0  0  0  0
    5.9612   -8.3203   17.2732 N   0  0  0  0  0  0  0  0  0  0  0  0
    8.5296   -5.9814   17.1841 C   0  0  0  0  0  0  0  0  0  0  0  0
    9.1527   -5.2118   16.2116 C   0  0  0  0  0  0  0  0  0  0  0  0
   10.3364   -3.8368   22.9255 O   0  0  0  0  0  0  0  0  0  0  0  0
    9.6947   -4.8407   18.8534 C   0  0  0  0  0  0  0  0  0  0  0  0
    9.1596    1.7042   24.1381 C   0  0  0  0  0  0  0  0  0  0  0  0
   11.0456   -2.9774   18.2694 N   0  0  0  0  0  0  0  0  0  0  0  0
   10.4788   -3.0457   21.8593 C   0  0  0  0  0  0  0  0  0  0  0  0
    8.8693   -5.8099   18.4657 N   0  0  0  0  0  0  0  0  0  0  0  0
    8.9892   -0.7926   25.4573 C   0  0  0  0  0  0  0  0  0  0  0  0
   10.5677   -3.4462   20.5323 C   0  0  0  0  0  0  0  0  0  0  0  0
  1  8  1  0
  1 12  4  0
  1 14  4  0
  2  3  4  0
  2 18  4  0
  3 20  4  0
  3 22  4  0
  4 11  4  0
  4 21  4  0
  5  9  4  0
  5 16  4  0
  6 15  4  0
  6 16  4  0
  7 22  4  0
  7 26  4  0
  8 10  4  0
  8 25  4  0
  9 15  4  0
  9 17  1  0
 10 21  4  0
 11 25  4  0
 12 23  4  0
 13 20  4  0
 13 26  4  0
 14 19  4  0
 17 18  4  0
 17 24  4  0
 19 23  4  0
 20 24  4  0
 23 26  1  0
M  END
$$$$

 Created by Python create_sdf_string function

 26 30  0  0  0  0  0  0  0  0999 V2000
   10.0084   -1.8019   23.4945 C   0  0  0  0  0  0  0  0  0  0  0  0
   10.0005   -4.2520   16.5631 C   0  0  0  0  0  0  0  0  0  0  0  0
   10.2759   -4.0036   17.8845 C   0  0  0  0  0  0  0  0  0  0  0  0
    8.5652    1.5478   25.3778 N   0  0  0  0  0  0  0  0  0  0  0  0
    6.8048   -7.5457   17.8752 C   0  0  0  0  0  0  0  0  0  0  0  0
    6.1721   -8.2186   15.9886 N   0  0  0  0  0  0  0  0  0  0  0  0
   11.1764   -2.6600   19.5604 C   0  0  0  0  0  0  0  0  0  0  0  0
    9.5491   -0.6380   24.1912 C   0  0  0  0  0  0  0  0  0  0  0  0
    7.5337   -6.9256   16.9519 C   0  0  0  0  0  0  0  0  0  0  0  0
    9.6782    0.5671   23.5143 C   0  0  0  0  0  0  0  0  0  0  0  0
    8.4532    0.3482   26.0821 C   0  0  0  0  0  0  0  0  0  0  0  0
   10.4239   -1.7677   22.2230 N   0  0  0  0  0  0  0  0  0  0  0  0
    9.9468   -4.5953   20.1709 C   0  0  0  0  0  0  0  0  0  0  0  0
   10.0366   -3.0590   23.9864 N   0  0  0  0  0  0  0  0  0  0  0  0
    7.1191   -7.3636   15.7739 C   0  0  0  0  0  0  0  0  0  0  0  0
    5.9612   -8.3203   17.2732 N   0  0  0  0  0  0  0  0  0  0  0  0
    8.5296   -5.9814   17.1841 C   0  0  0  0  0  0  0  0  0  0  0  0
    9.1527   -5.2118   16.2116 C   0  0  0  0  0  0  0  0  0  0  0  0
   10.3364   -3.8368   22.9255 O   0  0  0  0  0  0  0  0  0  0  0  0
    9.6947   -4.8407   18.8534 C   0  0  0  0  0  0  0  0  0  0  0  0
    9.1596    1.7042   24.1381 C   0  0  0  0  0  0  0  0  0  0  0  0
   11.0456   -2.9774   18.2694 N   0  0  0  0  0  0  0  0  0  0  0  0
   10.4788   -3.0457   21.8593 C   0  0  0  0  0  0  0  0  0  0  0  0
    8.8693   -5.8099   18.4657 N   0  0  0  0  0  0  0  0  0  0  0  0
    8.9892   -0.7926   25.4573 C   0  0  0  0  0  0  0  0  0  0  0  0
   10.5677   -3.4462   20.5323 C   0  0  0  0  0  0  0  0  0  0  0  0
  1  8  1  0
  1 12  4  0
  1 14  4  0
  2  3  4  0
  2 18  4  0
  3 20  4  0
  3 22  4  0
  4 11  4  0
  4 21  4  0
  5  9  4  0
  5 16  4  0
  6 15  4  0
  6 16  4  0
  7 22  4  0
  7 26  4  0
  8 10  4  0
  8 25  4  0
  9 15  4  0
  9 17  1  0
 10 21  4  0
 11 25  4  0
 12 23  4  0
 13 20  4  0
 13 26  4  0
 14 19  4  0
 17 18  4  0
 17 24  4  0
 19 23  4  0
 20 24  4  0
 23 26  1  0
M  END
$$$$

 Created by Python create_sdf_string function

 26 30  0  0  0  0  0  0  0  0999 V2000
   10.0084   -1.8019   23.4945 C   0  0  0  0  0  0  0  0  0  0  0  0
   10.0005   -4.2520   16.5631 C   0  0  0  0  0  0  0  0  0  0  0  0
   10.2759   -4.0036   17.8845 C   0  0  0  0  0  0  0  0  0  0  0  0
    8.5652    1.5478   25.3778 N   0  0  0  0  0  0  0  0  0  0  0  0
    6.8048   -7.5457   17.8752 C   0  0  0  0  0  0  0  0  0  0  0  0
    6.1721   -8.2186   15.9886 N   0  0  0  0  0  0  0  0  0  0  0  0
   11.1764   -2.6600   19.5604 C   0  0  0  0  0  0  0  0  0  0  0  0
    9.5491   -0.6380   24.1912 C   0  0  0  0  0  0  0  0  0  0  0  0
    7.5337   -6.9256   16.9519 C   0  0  0  0  0  0  0  0  0  0  0  0
    9.6782    0.5671   23.5143 C   0  0  0  0  0  0  0  0  0  0  0  0
    8.4532    0.3482   26.0821 C   0  0  0  0  0  0  0  0  0  0  0  0
   10.4239   -1.7677   22.2230 N   0  0  0  0  0  0  0  0  0  0  0  0
    9.9468   -4.5953   20.1709 C   0  0  0  0  0  0  0  0  0  0  0  0
   10.0366   -3.0590   23.9864 N   0  0  0  0  0  0  0  0  0  0  0  0
    7.1191   -7.3636   15.7739 C   0  0  0  0  0  0  0  0  0  0  0  0
    5.9612   -8.3203   17.2732 N   0  0  0  0  0  0  0  0  0  0  0  0
    8.5296   -5.9814   17.1841 C   0  0  0  0  0  0  0  0  0  0  0  0
    9.1527   -5.2118   16.2116 C   0  0  0  0  0  0  0  0  0  0  0  0
   10.3364   -3.8368   22.9255 O   0  0  0  0  0  0  0  0  0  0  0  0
    9.6947   -4.8407   18.8534 C   0  0  0  0  0  0  0  0  0  0  0  0
    9.1596    1.7042   24.1381 C   0  0  0  0  0  0  0  0  0  0  0  0
   11.0456   -2.9774   18.2694 N   0  0  0  0  0  0  0  0  0  0  0  0
   10.4788   -3.0457   21.8593 C   0  0  0  0  0  0  0  0  0  0  0  0
    8.8693   -5.8099   18.4657 N   0  0  0  0  0  0  0  0  0  0  0  0
    8.9892   -0.7926   25.4573 C   0  0  0  0  0  0  0  0  0  0  0  0
   10.5677   -3.4462   20.5323 C   0  0  0  0  0  0  0  0  0  0  0  0
  1  8  1  0
  1 12  4  0
  1 14  4  0
  2  3  4  0
  2 18  4  0
  3 20  4  0
  3 22  4  0
  4 11  4  0
  4 21  4  0
  5  9  4  0
  5 16  4  0
  6 15  4  0
  6 16  4  0
  7 22  4  0
  7 26  4  0
  8 10  4  0
  8 25  4  0
  9 15  4  0
  9 17  1  0
 10 21  4  0
 11 25  4  0
 12 23  4  0
 13 20  4  0
 13 26  4  0
 14 19  4  0
 17 18  4  0
 17 24  4  0
 19 23  4  0
 20 24  4  0
 23 26  1  0
M  END
$$$$

 Created by Python create_sdf_string function

 26 30  0  0  0  0  0  0  0  0999 V2000
   10.0084   -1.8019   23.4945 C   0  0  0  0  0  0  0  0  0  0  0  0
   10.0005   -4.2520   16.5631 C   0  0  0  0  0  0  0  0  0  0  0  0
   10.2759   -4.0036   17.8845 C   0  0  0  0  0  0  0  0  0  0  0  0
    8.5652    1.5478   25.3778 N   0  0  0  0  0  0  0  0  0  0  0  0
    6.8048   -7.5457   17.8752 C   0  0  0  0  0  0  0  0  0  0  0  0
    6.1721   -8.2186   15.9886 N   0  0  0  0  0  0  0  0  0  0  0  0
   11.1764   -2.6600   19.5604 C   0  0  0  0  0  0  0  0  0  0  0  0
    9.5491   -0.6380   24.1912 C   0  0  0  0  0  0  0  0  0  0  0  0
    7.5337   -6.9256   16.9519 C   0  0  0  0  0  0  0  0  0  0  0  0
    9.6782    0.5671   23.5143 C   0  0  0  0  0  0  0  0  0  0  0  0
    8.4532    0.3482   26.0821 C   0  0  0  0  0  0  0  0  0  0  0  0
   10.4239   -1.7677   22.2230 N   0  0  0  0  0  0  0  0  0  0  0  0
    9.9468   -4.5953   20.1709 C   0  0  0  0  0  0  0  0  0  0  0  0
   10.0366   -3.0590   23.9864 N   0  0  0  0  0  0  0  0  0  0  0  0
    7.1191   -7.3636   15.7739 C   0  0  0  0  0  0  0  0  0  0  0  0
    5.9612   -8.3203   17.2732 N   0  0  0  0  0  0  0  0  0  0  0  0
    8.5296   -5.9814   17.1841 C   0  0  0  0  0  0  0  0  0  0  0  0
    9.1527   -5.2118   16.2116 C   0  0  0  0  0  0  0  0  0  0  0  0
   10.3364   -3.8368   22.9255 O   0  0  0  0  0  0  0  0  0  0  0  0
    9.6947   -4.8407   18.8534 C   0  0  0  0  0  0  0  0  0  0  0  0
    9.1596    1.7042   24.1381 C   0  0  0  0  0  0  0  0  0  0  0  0
   11.0456   -2.9774   18.2694 N   0  0  0  0  0  0  0  0  0  0  0  0
   10.4788   -3.0457   21.8593 C   0  0  0  0  0  0  0  0  0  0  0  0
    8.8693   -5.8099   18.4657 N   0  0  0  0  0  0  0  0  0  0  0  0
    8.9892   -0.7926   25.4573 C   0  0  0  0  0  0  0  0  0  0  0  0
   10.5677   -3.4462   20.5323 C   0  0  0  0  0  0  0  0  0  0  0  0
  1  8  1  0
  1 12  4  0
  1 14  4  0
  2  3  4  0
  2 18  4  0
  3 20  4  0
  3 22  4  0
  4 11  4  0
  4 21  4  0
  5  9  4  0
  5 16  4  0
  6 15  4  0
  6 16  4  0
  7 22  4  0
  7 26  4  0
  8 10  4  0
  8 25  4  0
  9 15  4  0
  9 17  1  0
 10 21  4  0
 11 25  4  0
 12 23  4  0
 13 20  4  0
 13 26  4  0
 14 19  4  0
 17 18  4  0
 17 24  4  0
 19 23  4  0
 20 24  4  0
 23 26  1  0
M  END
$$$$

 Created by Python create_sdf_string function

 26 30  0  0  0  0  0  0  0  0999 V2000
   10.0084   -1.8019   23.4945 C   0  0  0  0  0  0  0  0  0  0  0  0
   10.0005   -4.2520   16.5631 C   0  0  0  0  0  0  0  0  0  0  0  0
   10.2759   -4.0036   17.8845 C   0  0  0  0  0  0  0  0  0  0  0  0
    8.5652    1.5478   25.3778 N   0  0  0  0  0  0  0  0  0  0  0  0
    6.8048   -7.5457   17.8752 C   0  0  0  0  0  0  0  0  0  0  0  0
    6.1721   -8.2186   15.9886 N   0  0  0  0  0  0  0  0  0  0  0  0
   11.1764   -2.6600   19.5604 C   0  0  0  0  0  0  0  0  0  0  0  0
    9.5491   -0.6380   24.1912 C   0  0  0  0  0  0  0  0  0  0  0  0
    7.5337   -6.9256   16.9519 C   0  0  0  0  0  0  0  0  0  0  0  0
    9.6782    0.5671   23.5143 C   0  0  0  0  0  0  0  0  0  0  0  0
    8.4532    0.3482   26.0821 C   0  0  0  0  0  0  0  0  0  0  0  0
   10.4239   -1.7677   22.2230 N   0  0  0  0  0  0  0  0  0  0  0  0
    9.9468   -4.5953   20.1709 C   0  0  0  0  0  0  0  0  0  0  0  0
   10.0366   -3.0590   23.9864 N   0  0  0  0  0  0  0  0  0  0  0  0
    7.1191   -7.3636   15.7739 C   0  0  0  0  0  0  0  0  0  0  0  0
    5.9612   -8.3203   17.2732 N   0  0  0  0  0  0  0  0  0  0  0  0
    8.5296   -5.9814   17.1841 C   0  0  0  0  0  0  0  0  0  0  0  0
    9.1527   -5.2118   16.2116 C   0  0  0  0  0  0  0  0  0  0  0  0
   10.3364   -3.8368   22.9255 O   0  0  0  0  0  0  0  0  0  0  0  0
    9.6947   -4.8407   18.8534 C   0  0  0  0  0  0  0  0  0  0  0  0
    9.1596    1.7042   24.1381 C   0  0  0  0  0  0  0  0  0  0  0  0
   11.0456   -2.9774   18.2694 N   0  0  0  0  0  0  0  0  0  0  0  0
   10.4788   -3.0457   21.8593 C   0  0  0  0  0  0  0  0  0  0  0  0
    8.8693   -5.8099   18.4657 N   0  0  0  0  0  0  0  0  0  0  0  0
    8.9892   -0.7926   25.4573 C   0  0  0  0  0  0  0  0  0  0  0  0
   10.5677   -3.4462   20.5323 C   0  0  0  0  0  0  0  0  0  0  0  0
  1  8  1  0
  1 12  4  0
  1 14  4  0
  2  3  4  0
  2 18  4  0
  3 20  4  0
  3 22  4  0
  4 11  4  0
  4 21  4  0
  5  9  4  0
  5 16  4  0
  6 15  4  0
  6 16  4  0
  7 22  4  0
  7 26  4  0
  8 10  4  0
  8 25  4  0
  9 15  4  0
  9 17  1  0
 10 21  4  0
 11 25  4  0
 12 23  4  0
 13 20  4  0
 13 26  4  0
 14 19  4  0
 17 18  4  0
 17 24  4  0
 19 23  4  0
 20 24  4  0
 23 26  1  0
M  END
$$$$

 Created by Python create_sdf_string function

 26 30  0  0  0  0  0  0  0  0999 V2000
   10.0084   -1.8019   23.4945 C   0  0  0  0  0  0  0  0  0  0  0  0
   10.0005   -4.2520   16.5631 C   0  0  0  0  0  0  0  0  0  0  0  0
   10.2759   -4.0036   17.8845 C   0  0  0  0  0  0  0  0  0  0  0  0
    8.5652    1.5478   25.3778 N   0  0  0  0  0  0  0  0  0  0  0  0
    6.8048   -7.5457   17.8752 C   0  0  0  0  0  0  0  0  0  0  0  0
    6.1721   -8.2186   15.9886 N   0  0  0  0  0  0  0  0  0  0  0  0
   11.1764   -2.6600   19.5604 C   0  0  0  0  0  0  0  0  0  0  0  0
    9.5491   -0.6380   24.1912 C   0  0  0  0  0  0  0  0  0  0  0  0
    7.5337   -6.9256   16.9519 C   0  0  0  0  0  0  0  0  0  0  0  0
    9.6782    0.5671   23.5143 C   0  0  0  0  0  0  0  0  0  0  0  0
    8.4532    0.3482   26.0821 C   0  0  0  0  0  0  0  0  0  0  0  0
   10.4239   -1.7677   22.2230 N   0  0  0  0  0  0  0  0  0  0  0  0
    9.9468   -4.5953   20.1709 C   0  0  0  0  0  0  0  0  0  0  0  0
   10.0366   -3.0590   23.9864 N   0  0  0  0  0  0  0  0  0  0  0  0
    7.1191   -7.3636   15.7739 C   0  0  0  0  0  0  0  0  0  0  0  0
    5.9612   -8.3203   17.2732 N   0  0  0  0  0  0  0  0  0  0  0  0
    8.5296   -5.9814   17.1841 C   0  0  0  0  0  0  0  0  0  0  0  0
    9.1527   -5.2118   16.2116 C   0  0  0  0  0  0  0  0  0  0  0  0
   10.3364   -3.8368   22.9255 O   0  0  0  0  0  0  0  0  0  0  0  0
    9.6947   -4.8407   18.8534 C   0  0  0  0  0  0  0  0  0  0  0  0
    9.1596    1.7042   24.1381 C   0  0  0  0  0  0  0  0  0  0  0  0
   11.0456   -2.9774   18.2694 N   0  0  0  0  0  0  0  0  0  0  0  0
   10.4788   -3.0457   21.8593 C   0  0  0  0  0  0  0  0  0  0  0  0
    8.8693   -5.8099   18.4657 N   0  0  0  0  0  0  0  0  0  0  0  0
    8.9892   -0.7926   25.4573 C   0  0  0  0  0  0  0  0  0  0  0  0
   10.5677   -3.4462   20.5323 C   0  0  0  0  0  0  0  0  0  0  0  0
  1  8  1  0
  1 12  4  0
  1 14  4  0
  2  3  4  0
  2 18  4  0
  3 20  4  0
  3 22  4  0
  4 11  4  0
  4 21  4  0
  5  9  4  0
  5 16  4  0
  6 15  4  0
  6 16  4  0
  7 22  4  0
  7 26  4  0
  8 10  4  0
  8 25  4  0
  9 15  4  0
  9 17  1  0
 10 21  4  0
 11 25  4  0
 12 23  4  0
 13 20  4  0
 13 26  4  0
 14 19  4  0
 17 18  4  0
 17 24  4  0
 19 23  4  0
 20 24  4  0
 23 26  1  0
M  END
$$$$

 Created by Python create_sdf_string function

 26 30  0  0  0  0  0  0  0  0999 V2000
   10.0084   -1.8019   23.4945 C   0  0  0  0  0  0  0  0  0  0  0  0
   10.0005   -4.2520   16.5631 C   0  0  0  0  0  0  0  0  0  0  0  0
   10.2759   -4.0036   17.8845 C   0  0  0  0  0  0  0  0  0  0  0  0
    8.5652    1.5478   25.3778 N   0  0  0  0  0  0  0  0  0  0  0  0
    6.8048   -7.5457   17.8752 C   0  0  0  0  0  0  0  0  0  0  0  0
    6.1721   -8.2186   15.9886 N   0  0  0  0  0  0  0  0  0  0  0  0
   11.1764   -2.6600   19.5604 C   0  0  0  0  0  0  0  0  0  0  0  0
    9.5491   -0.6380   24.1912 C   0  0  0  0  0  0  0  0  0  0  0  0
    7.5337   -6.9256   16.9519 C   0  0  0  0  0  0  0  0  0  0  0  0
    9.6782    0.5671   23.5143 C   0  0  0  0  0  0  0  0  0  0  0  0
    8.4532    0.3482   26.0821 C   0  0  0  0  0  0  0  0  0  0  0  0
   10.4239   -1.7677   22.2230 N   0  0  0  0  0  0  0  0  0  0  0  0
    9.9468   -4.5953   20.1709 C   0  0  0  0  0  0  0  0  0  0  0  0
   10.0366   -3.0590   23.9864 N   0  0  0  0  0  0  0  0  0  0  0  0
    7.1191   -7.3636   15.7739 C   0  0  0  0  0  0  0  0  0  0  0  0
    5.9612   -8.3203   17.2732 N   0  0  0  0  0  0  0  0  0  0  0  0
    8.5296   -5.9814   17.1841 C   0  0  0  0  0  0  0  0  0  0  0  0
    9.1527   -5.2118   16.2116 C   0  0  0  0  0  0  0  0  0  0  0  0
   10.3364   -3.8368   22.9255 O   0  0  0  0  0  0  0  0  0  0  0  0
    9.6947   -4.8407   18.8534 C   0  0  0  0  0  0  0  0  0  0  0  0
    9.1596    1.7042   24.1381 C   0  0  0  0  0  0  0  0  0  0  0  0
   11.0456   -2.9774   18.2694 N   0  0  0  0  0  0  0  0  0  0  0  0
   10.4788   -3.0457   21.8593 C   0  0  0  0  0  0  0  0  0  0  0  0
    8.8693   -5.8099   18.4657 N   0  0  0  0  0  0  0  0  0  0  0  0
    8.9892   -0.7926   25.4573 C   0  0  0  0  0  0  0  0  0  0  0  0
   10.5677   -3.4462   20.5323 C   0  0  0  0  0  0  0  0  0  0  0  0
  1  8  1  0
  1 12  4  0
  1 14  4  0
  2  3  4  0
  2 18  4  0
  3 20  4  0
  3 22  4  0
  4 11  4  0
  4 21  4  0
  5  9  4  0
  5 16  4  0
  6 15  4  0
  6 16  4  0
  7 22  4  0
  7 26  4  0
  8 10  4  0
  8 25  4  0
  9 15  4  0
  9 17  1  0
 10 21  4  0
 11 25  4  0
 12 23  4  0
 13 20  4  0
 13 26  4  0
 14 19  4  0
 17 18  4  0
 17 24  4  0
 19 23  4  0
 20 24  4  0
 23 26  1  0
M  END
$$$$

 Created by Python create_sdf_string function

 26 30  0  0  0  0  0  0  0  0999 V2000
   10.0084   -1.8019   23.4945 C   0  0  0  0  0  0  0  0  0  0  0  0
   10.0005   -4.2520   16.5631 C   0  0  0  0  0  0  0  0  0  0  0  0
   10.2759   -4.0036   17.8845 C   0  0  0  0  0  0  0  0  0  0  0  0
    8.5652    1.5478   25.3778 N   0  0  0  0  0  0  0  0  0  0  0  0
    6.8048   -7.5457   17.8752 C   0  0  0  0  0  0  0  0  0  0  0  0
    6.1721   -8.2186   15.9886 N   0  0  0  0  0  0  0  0  0  0  0  0
   11.1764   -2.6600   19.5604 C   0  0  0  0  0  0  0  0  0  0  0  0
    9.5491   -0.6380   24.1912 C   0  0  0  0  0  0  0  0  0  0  0  0
    7.5337   -6.9256   16.9519 C   0  0  0  0  0  0  0  0  0  0  0  0
    9.6782    0.5671   23.5143 C   0  0  0  0  0  0  0  0  0  0  0  0
    8.4532    0.3482   26.0821 C   0  0  0  0  0  0  0  0  0  0  0  0
   10.4239   -1.7677   22.2230 N   0  0  0  0  0  0  0  0  0  0  0  0
    9.9468   -4.5953   20.1709 C   0  0  0  0  0  0  0  0  0  0  0  0
   10.0366   -3.0590   23.9864 N   0  0  0  0  0  0  0  0  0  0  0  0
    7.1191   -7.3636   15.7739 C   0  0  0  0  0  0  0  0  0  0  0  0
    5.9612   -8.3203   17.2732 N   0  0  0  0  0  0  0  0  0  0  0  0
    8.5296   -5.9814   17.1841 C   0  0  0  0  0  0  0  0  0  0  0  0
    9.1527   -5.2118   16.2116 C   0  0  0  0  0  0  0  0  0  0  0  0
   10.3364   -3.8368   22.9255 O   0  0  0  0  0  0  0  0  0  0  0  0
    9.6947   -4.8407   18.8534 C   0  0  0  0  0  0  0  0  0  0  0  0
    9.1596    1.7042   24.1381 C   0  0  0  0  0  0  0  0  0  0  0  0
   11.0456   -2.9774   18.2694 N   0  0  0  0  0  0  0  0  0  0  0  0
   10.4788   -3.0457   21.8593 C   0  0  0  0  0  0  0  0  0  0  0  0
    8.8693   -5.8099   18.4657 N   0  0  0  0  0  0  0  0  0  0  0  0
    8.9892   -0.7926   25.4573 C   0  0  0  0  0  0  0  0  0  0  0  0
   10.5677   -3.4462   20.5323 C   0  0  0  0  0  0  0  0  0  0  0  0
  1  8  1  0
  1 12  4  0
  1 14  4  0
  2  3  4  0
  2 18  4  0
  3 20  4  0
  3 22  4  0
  4 11  4  0
  4 21  4  0
  5  9  4  0
  5 16  4  0
  6 15  4  0
  6 16  4  0
  7 22  4  0
  7 26  4  0
  8 10  4  0
  8 25  4  0
  9 15  4  0
  9 17  1  0
 10 21  4  0
 11 25  4  0
 12 23  4  0
 13 20  4  0
 13 26  4  0
 14 19  4  0
 17 18  4  0
 17 24  4  0
 19 23  4  0
 20 24  4  0
 23 26  1  0
M  END
$$$$

 Created by Python create_sdf_string function

 26 30  0  0  0  0  0  0  0  0999 V2000
   10.0084   -1.8019   23.4945 C   0  0  0  0  0  0  0  0  0  0  0  0
   10.0005   -4.2520   16.5631 C   0  0  0  0  0  0  0  0  0  0  0  0
   10.2759   -4.0036   17.8845 C   0  0  0  0  0  0  0  0  0  0  0  0
    8.5652    1.5478   25.3778 N   0  0  0  0  0  0  0  0  0  0  0  0
    6.8048   -7.5457   17.8752 C   0  0  0  0  0  0  0  0  0  0  0  0
    6.1721   -8.2186   15.9886 N   0  0  0  0  0  0  0  0  0  0  0  0
   11.1764   -2.6600   19.5604 C   0  0  0  0  0  0  0  0  0  0  0  0
    9.5491   -0.6380   24.1912 C   0  0  0  0  0  0  0  0  0  0  0  0
    7.5337   -6.9256   16.9519 C   0  0  0  0  0  0  0  0  0  0  0  0
    9.6782    0.5671   23.5143 C   0  0  0  0  0  0  0  0  0  0  0  0
    8.4532    0.3482   26.0821 C   0  0  0  0  0  0  0  0  0  0  0  0
   10.4239   -1.7677   22.2230 N   0  0  0  0  0  0  0  0  0  0  0  0
    9.9468   -4.5953   20.1709 C   0  0  0  0  0  0  0  0  0  0  0  0
   10.0366   -3.0590   23.9864 N   0  0  0  0  0  0  0  0  0  0  0  0
    7.1191   -7.3636   15.7739 C   0  0  0  0  0  0  0  0  0  0  0  0
    5.9612   -8.3203   17.2732 N   0  0  0  0  0  0  0  0  0  0  0  0
    8.5296   -5.9814   17.1841 C   0  0  0  0  0  0  0  0  0  0  0  0
    9.1527   -5.2118   16.2116 C   0  0  0  0  0  0  0  0  0  0  0  0
   10.3364   -3.8368   22.9255 O   0  0  0  0  0  0  0  0  0  0  0  0
    9.6947   -4.8407   18.8534 C   0  0  0  0  0  0  0  0  0  0  0  0
    9.1596    1.7042   24.1381 C   0  0  0  0  0  0  0  0  0  0  0  0
   11.0456   -2.9774   18.2694 N   0  0  0  0  0  0  0  0  0  0  0  0
   10.4788   -3.0457   21.8593 C   0  0  0  0  0  0  0  0  0  0  0  0
    8.8693   -5.8099   18.4657 N   0  0  0  0  0  0  0  0  0  0  0  0
    8.9892   -0.7926   25.4573 C   0  0  0  0  0  0  0  0  0  0  0  0
   10.5677   -3.4462   20.5323 C   0  0  0  0  0  0  0  0  0  0  0  0
  1  8  1  0
  1 12  4  0
  1 14  4  0
  2  3  4  0
  2 18  4  0
  3 20  4  0
  3 22  4  0
  4 11  4  0
  4 21  4  0
  5  9  4  0
  5 16  4  0
  6 15  4  0
  6 16  4  0
  7 22  4  0
  7 26  4  0
  8 10  4  0
  8 25  4  0
  9 15  4  0
  9 17  1  0
 10 21  4  0
 11 25  4  0
 12 23  4  0
 13 20  4  0
 13 26  4  0
 14 19  4  0
 17 18  4  0
 17 24  4  0
 19 23  4  0
 20 24  4  0
 23 26  1  0
M  END
$$$$

 Created by Python create_sdf_string function

 26 30  0  0  0  0  0  0  0  0999 V2000
   10.0084   -1.8019   23.4945 C   0  0  0  0  0  0  0  0  0  0  0  0
   10.0005   -4.2520   16.5631 C   0  0  0  0  0  0  0  0  0  0  0  0
   10.2759   -4.0036   17.8845 C   0  0  0  0  0  0  0  0  0  0  0  0
    8.5652    1.5478   25.3778 N   0  0  0  0  0  0  0  0  0  0  0  0
    6.8048   -7.5457   17.8752 C   0  0  0  0  0  0  0  0  0  0  0  0
    6.1721   -8.2186   15.9886 N   0  0  0  0  0  0  0  0  0  0  0  0
   11.1764   -2.6600   19.5604 C   0  0  0  0  0  0  0  0  0  0  0  0
    9.5491   -0.6380   24.1912 C   0  0  0  0  0  0  0  0  0  0  0  0
    7.5337   -6.9256   16.9519 C   0  0  0  0  0  0  0  0  0  0  0  0
    9.6782    0.5671   23.5143 C   0  0  0  0  0  0  0  0  0  0  0  0
    8.4532    0.3482   26.0821 C   0  0  0  0  0  0  0  0  0  0  0  0
   10.4239   -1.7677   22.2230 N   0  0  0  0  0  0  0  0  0  0  0  0
    9.9468   -4.5953   20.1709 C   0  0  0  0  0  0  0  0  0  0  0  0
   10.0366   -3.0590   23.9864 N   0  0  0  0  0  0  0  0  0  0  0  0
    7.1191   -7.3636   15.7739 C   0  0  0  0  0  0  0  0  0  0  0  0
    5.9612   -8.3203   17.2732 N   0  0  0  0  0  0  0  0  0  0  0  0
    8.5296   -5.9814   17.1841 C   0  0  0  0  0  0  0  0  0  0  0  0
    9.1527   -5.2118   16.2116 C   0  0  0  0  0  0  0  0  0  0  0  0
   10.3364   -3.8368   22.9255 O   0  0  0  0  0  0  0  0  0  0  0  0
    9.6947   -4.8407   18.8534 C   0  0  0  0  0  0  0  0  0  0  0  0
    9.1596    1.7042   24.1381 C   0  0  0  0  0  0  0  0  0  0  0  0
   11.0456   -2.9774   18.2694 N   0  0  0  0  0  0  0  0  0  0  0  0
   10.4788   -3.0457   21.8593 C   0  0  0  0  0  0  0  0  0  0  0  0
    8.8693   -5.8099   18.4657 N   0  0  0  0  0  0  0  0  0  0  0  0
    8.9892   -0.7926   25.4573 C   0  0  0  0  0  0  0  0  0  0  0  0
   10.5677   -3.4462   20.5323 C   0  0  0  0  0  0  0  0  0  0  0  0
  1  8  1  0
  1 12  4  0
  1 14  4  0
  2  3  4  0
  2 18  4  0
  3 20  4  0
  3 22  4  0
  4 11  4  0
  4 21  4  0
  5  9  4  0
  5 16  4  0
  6 15  4  0
  6 16  4  0
  7 22  4  0
  7 26  4  0
  8 10  4  0
  8 25  4  0
  9 15  4  0
  9 17  1  0
 10 21  4  0
 11 25  4  0
 12 23  4  0
 13 20  4  0
 13 26  4  0
 14 19  4  0
 17 18  4  0
 17 24  4  0
 19 23  4  0
 20 24  4  0
 23 26  1  0
M  END
$$$$

 Created by Python create_sdf_string function

 26 30  0  0  0  0  0  0  0  0999 V2000
   10.0084   -1.8019   23.4945 C   0  0  0  0  0  0  0  0  0  0  0  0
   10.0005   -4.2520   16.5631 C   0  0  0  0  0  0  0  0  0  0  0  0
   10.2759   -4.0036   17.8845 C   0  0  0  0  0  0  0  0  0  0  0  0
    8.5652    1.5478   25.3778 N   0  0  0  0  0  0  0  0  0  0  0  0
    6.8048   -7.5457   17.8752 C   0  0  0  0  0  0  0  0  0  0  0  0
    6.1721   -8.2186   15.9886 N   0  0  0  0  0  0  0  0  0  0  0  0
   11.1764   -2.6600   19.5604 C   0  0  0  0  0  0  0  0  0  0  0  0
    9.5491   -0.6380   24.1912 C   0  0  0  0  0  0  0  0  0  0  0  0
    7.5337   -6.9256   16.9519 C   0  0  0  0  0  0  0  0  0  0  0  0
    9.6782    0.5671   23.5143 C   0  0  0  0  0  0  0  0  0  0  0  0
    8.4532    0.3482   26.0821 C   0  0  0  0  0  0  0  0  0  0  0  0
   10.4239   -1.7677   22.2230 N   0  0  0  0  0  0  0  0  0  0  0  0
    9.9468   -4.5953   20.1709 C   0  0  0  0  0  0  0  0  0  0  0  0
   10.0366   -3.0590   23.9864 N   0  0  0  0  0  0  0  0  0  0  0  0
    7.1191   -7.3636   15.7739 C   0  0  0  0  0  0  0  0  0  0  0  0
    5.9612   -8.3203   17.2732 N   0  0  0  0  0  0  0  0  0  0  0  0
    8.5296   -5.9814   17.1841 C   0  0  0  0  0  0  0  0  0  0  0  0
    9.1527   -5.2118   16.2116 C   0  0  0  0  0  0  0  0  0  0  0  0
   10.3364   -3.8368   22.9255 O   0  0  0  0  0  0  0  0  0  0  0  0
    9.6947   -4.8407   18.8534 C   0  0  0  0  0  0  0  0  0  0  0  0
    9.1596    1.7042   24.1381 C   0  0  0  0  0  0  0  0  0  0  0  0
   11.0456   -2.9774   18.2694 N   0  0  0  0  0  0  0  0  0  0  0  0
   10.4788   -3.0457   21.8593 C   0  0  0  0  0  0  0  0  0  0  0  0
    8.8693   -5.8099   18.4657 N   0  0  0  0  0  0  0  0  0  0  0  0
    8.9892   -0.7926   25.4573 C   0  0  0  0  0  0  0  0  0  0  0  0
   10.5677   -3.4462   20.5323 C   0  0  0  0  0  0  0  0  0  0  0  0
  1  8  1  0
  1 12  4  0
  1 14  4  0
  2  3  4  0
  2 18  4  0
  3 20  4  0
  3 22  4  0
  4 11  4  0
  4 21  4  0
  5  9  4  0
  5 16  4  0
  6 15  4  0
  6 16  4  0
  7 22  4  0
  7 26  4  0
  8 10  4  0
  8 25  4  0
  9 15  4  0
  9 17  1  0
 10 21  4  0
 11 25  4  0
 12 23  4  0
 13 20  4  0
 13 26  4  0
 14 19  4  0
 17 18  4  0
 17 24  4  0
 19 23  4  0
 20 24  4  0
 23 26  1  0
M  END
$$$$

 Created by Python create_sdf_string function

 26 30  0  0  0  0  0  0  0  0999 V2000
   10.0084   -1.8019   23.4945 C   0  0  0  0  0  0  0  0  0  0  0  0
   10.0005   -4.2520   16.5631 C   0  0  0  0  0  0  0  0  0  0  0  0
   10.2759   -4.0036   17.8845 C   0  0  0  0  0  0  0  0  0  0  0  0
    8.5652    1.5478   25.3778 N   0  0  0  0  0  0  0  0  0  0  0  0
    6.8048   -7.5457   17.8752 C   0  0  0  0  0  0  0  0  0  0  0  0
    6.1721   -8.2186   15.9886 N   0  0  0  0  0  0  0  0  0  0  0  0
   11.1764   -2.6600   19.5604 C   0  0  0  0  0  0  0  0  0  0  0  0
    9.5491   -0.6380   24.1912 C   0  0  0  0  0  0  0  0  0  0  0  0
    7.5337   -6.9256   16.9519 C   0  0  0  0  0  0  0  0  0  0  0  0
    9.6782    0.5671   23.5143 C   0  0  0  0  0  0  0  0  0  0  0  0
    8.4532    0.3482   26.0821 C   0  0  0  0  0  0  0  0  0  0  0  0
   10.4239   -1.7677   22.2230 N   0  0  0  0  0  0  0  0  0  0  0  0
    9.9468   -4.5953   20.1709 C   0  0  0  0  0  0  0  0  0  0  0  0
   10.0366   -3.0590   23.9864 N   0  0  0  0  0  0  0  0  0  0  0  0
    7.1191   -7.3636   15.7739 C   0  0  0  0  0  0  0  0  0  0  0  0
    5.9612   -8.3203   17.2732 N   0  0  0  0  0  0  0  0  0  0  0  0
    8.5296   -5.9814   17.1841 C   0  0  0  0  0  0  0  0  0  0  0  0
    9.1527   -5.2118   16.2116 C   0  0  0  0  0  0  0  0  0  0  0  0
   10.3364   -3.8368   22.9255 O   0  0  0  0  0  0  0  0  0  0  0  0
    9.6947   -4.8407   18.8534 C   0  0  0  0  0  0  0  0  0  0  0  0
    9.1596    1.7042   24.1381 C   0  0  0  0  0  0  0  0  0  0  0  0
   11.0456   -2.9774   18.2694 N   0  0  0  0  0  0  0  0  0  0  0  0
   10.4788   -3.0457   21.8593 C   0  0  0  0  0  0  0  0  0  0  0  0
    8.8693   -5.8099   18.4657 N   0  0  0  0  0  0  0  0  0  0  0  0
    8.9892   -0.7926   25.4573 C   0  0  0  0  0  0  0  0  0  0  0  0
   10.5677   -3.4462   20.5323 C   0  0  0  0  0  0  0  0  0  0  0  0
  1  8  1  0
  1 12  4  0
  1 14  4  0
  2  3  4  0
  2 18  4  0
  3 20  4  0
  3 22  4  0
  4 11  4  0
  4 21  4  0
  5  9  4  0
  5 16  4  0
  6 15  4  0
  6 16  4  0
  7 22  4  0
  7 26  4  0
  8 10  4  0
  8 25  4  0
  9 15  4  0
  9 17  1  0
 10 21  4  0
 11 25  4  0
 12 23  4  0
 13 20  4  0
 13 26  4  0
 14 19  4  0
 17 18  4  0
 17 24  4  0
 19 23  4  0
 20 24  4  0
 23 26  1  0
M  END
$$$$

 Created by Python create_sdf_string function

 26 30  0  0  0  0  0  0  0  0999 V2000
   10.0084   -1.8019   23.4945 C   0  0  0  0  0  0  0  0  0  0  0  0
   10.0005   -4.2520   16.5631 C   0  0  0  0  0  0  0  0  0  0  0  0
   10.2759   -4.0036   17.8845 C   0  0  0  0  0  0  0  0  0  0  0  0
    8.5652    1.5478   25.3778 N   0  0  0  0  0  0  0  0  0  0  0  0
    6.8048   -7.5457   17.8752 C   0  0  0  0  0  0  0  0  0  0  0  0
    6.1721   -8.2186   15.9886 N   0  0  0  0  0  0  0  0  0  0  0  0
   11.1764   -2.6600   19.5604 C   0  0  0  0  0  0  0  0  0  0  0  0
    9.5491   -0.6380   24.1912 C   0  0  0  0  0  0  0  0  0  0  0  0
    7.5337   -6.9256   16.9519 C   0  0  0  0  0  0  0  0  0  0  0  0
    9.6782    0.5671   23.5143 C   0  0  0  0  0  0  0  0  0  0  0  0
    8.4532    0.3482   26.0821 C   0  0  0  0  0  0  0  0  0  0  0  0
   10.4239   -1.7677   22.2230 N   0  0  0  0  0  0  0  0  0  0  0  0
    9.9468   -4.5953   20.1709 C   0  0  0  0  0  0  0  0  0  0  0  0
   10.0366   -3.0590   23.9864 N   0  0  0  0  0  0  0  0  0  0  0  0
    7.1191   -7.3636   15.7739 C   0  0  0  0  0  0  0  0  0  0  0  0
    5.9612   -8.3203   17.2732 N   0  0  0  0  0  0  0  0  0  0  0  0
    8.5296   -5.9814   17.1841 C   0  0  0  0  0  0  0  0  0  0  0  0
    9.1527   -5.2118   16.2116 C   0  0  0  0  0  0  0  0  0  0  0  0
   10.3364   -3.8368   22.9255 O   0  0  0  0  0  0  0  0  0  0  0  0
    9.6947   -4.8407   18.8534 C   0  0  0  0  0  0  0  0  0  0  0  0
    9.1596    1.7042   24.1381 C   0  0  0  0  0  0  0  0  0  0  0  0
   11.0456   -2.9774   18.2694 N   0  0  0  0  0  0  0  0  0  0  0  0
   10.4788   -3.0457   21.8593 C   0  0  0  0  0  0  0  0  0  0  0  0
    8.8693   -5.8099   18.4657 N   0  0  0  0  0  0  0  0  0  0  0  0
    8.9892   -0.7926   25.4573 C   0  0  0  0  0  0  0  0  0  0  0  0
   10.5677   -3.4462   20.5323 C   0  0  0  0  0  0  0  0  0  0  0  0
  1  8  1  0
  1 12  4  0
  1 14  4  0
  2  3  4  0
  2 18  4  0
  3 20  4  0
  3 22  4  0
  4 11  4  0
  4 21  4  0
  5  9  4  0
  5 16  4  0
  6 15  4  0
  6 16  4  0
  7 22  4  0
  7 26  4  0
  8 10  4  0
  8 25  4  0
  9 15  4  0
  9 17  1  0
 10 21  4  0
 11 25  4  0
 12 23  4  0
 13 20  4  0
 13 26  4  0
 14 19  4  0
 17 18  4  0
 17 24  4  0
 19 23  4  0
 20 24  4  0
 23 26  1  0
M  END
$$$$

 Created by Python create_sdf_string function

 26 30  0  0  0  0  0  0  0  0999 V2000
   10.0084   -1.8019   23.4945 C   0  0  0  0  0  0  0  0  0  0  0  0
   10.0005   -4.2520   16.5631 C   0  0  0  0  0  0  0  0  0  0  0  0
   10.2759   -4.0036   17.8845 C   0  0  0  0  0  0  0  0  0  0  0  0
    8.5652    1.5478   25.3778 N   0  0  0  0  0  0  0  0  0  0  0  0
    6.8048   -7.5457   17.8752 C   0  0  0  0  0  0  0  0  0  0  0  0
    6.1721   -8.2186   15.9886 N   0  0  0  0  0  0  0  0  0  0  0  0
   11.1764   -2.6600   19.5604 C   0  0  0  0  0  0  0  0  0  0  0  0
    9.5491   -0.6380   24.1912 C   0  0  0  0  0  0  0  0  0  0  0  0
    7.5337   -6.9256   16.9519 C   0  0  0  0  0  0  0  0  0  0  0  0
    9.6782    0.5671   23.5143 C   0  0  0  0  0  0  0  0  0  0  0  0
    8.4532    0.3482   26.0821 C   0  0  0  0  0  0  0  0  0  0  0  0
   10.4239   -1.7677   22.2230 N   0  0  0  0  0  0  0  0  0  0  0  0
    9.9468   -4.5953   20.1709 C   0  0  0  0  0  0  0  0  0  0  0  0
   10.0366   -3.0590   23.9864 N   0  0  0  0  0  0  0  0  0  0  0  0
    7.1191   -7.3636   15.7739 C   0  0  0  0  0  0  0  0  0  0  0  0
    5.9612   -8.3203   17.2732 N   0  0  0  0  0  0  0  0  0  0  0  0
    8.5296   -5.9814   17.1841 C   0  0  0  0  0  0  0  0  0  0  0  0
    9.1527   -5.2118   16.2116 C   0  0  0  0  0  0  0  0  0  0  0  0
   10.3364   -3.8368   22.9255 O   0  0  0  0  0  0  0  0  0  0  0  0
    9.6947   -4.8407   18.8534 C   0  0  0  0  0  0  0  0  0  0  0  0
    9.1596    1.7042   24.1381 C   0  0  0  0  0  0  0  0  0  0  0  0
   11.0456   -2.9774   18.2694 N   0  0  0  0  0  0  0  0  0  0  0  0
   10.4788   -3.0457   21.8593 C   0  0  0  0  0  0  0  0  0  0  0  0
    8.8693   -5.8099   18.4657 N   0  0  0  0  0  0  0  0  0  0  0  0
    8.9892   -0.7926   25.4573 C   0  0  0  0  0  0  0  0  0  0  0  0
   10.5677   -3.4462   20.5323 C   0  0  0  0  0  0  0  0  0  0  0  0
  1  8  1  0
  1 12  4  0
  1 14  4  0
  2  3  4  0
  2 18  4  0
  3 20  4  0
  3 22  4  0
  4 11  4  0
  4 21  4  0
  5  9  4  0
  5 16  4  0
  6 15  4  0
  6 16  4  0
  7 22  4  0
  7 26  4  0
  8 10  4  0
  8 25  4  0
  9 15  4  0
  9 17  1  0
 10 21  4  0
 11 25  4  0
 12 23  4  0
 13 20  4  0
 13 26  4  0
 14 19  4  0
 17 18  4  0
 17 24  4  0
 19 23  4  0
 20 24  4  0
 23 26  1  0
M  END
$$$$

 Created by Python create_sdf_string function

 26 30  0  0  0  0  0  0  0  0999 V2000
   10.0084   -1.8019   23.4945 C   0  0  0  0  0  0  0  0  0  0  0  0
   10.0005   -4.2520   16.5631 C   0  0  0  0  0  0  0  0  0  0  0  0
   10.2759   -4.0036   17.8845 C   0  0  0  0  0  0  0  0  0  0  0  0
    8.5652    1.5478   25.3778 N   0  0  0  0  0  0  0  0  0  0  0  0
    6.8048   -7.5457   17.8752 C   0  0  0  0  0  0  0  0  0  0  0  0
    6.1721   -8.2186   15.9886 N   0  0  0  0  0  0  0  0  0  0  0  0
   11.1764   -2.6600   19.5604 C   0  0  0  0  0  0  0  0  0  0  0  0
    9.5491   -0.6380   24.1912 C   0  0  0  0  0  0  0  0  0  0  0  0
    7.5337   -6.9256   16.9519 C   0  0  0  0  0  0  0  0  0  0  0  0
    9.6782    0.5671   23.5143 C   0  0  0  0  0  0  0  0  0  0  0  0
    8.4532    0.3482   26.0821 C   0  0  0  0  0  0  0  0  0  0  0  0
   10.4239   -1.7677   22.2230 N   0  0  0  0  0  0  0  0  0  0  0  0
    9.9468   -4.5953   20.1709 C   0  0  0  0  0  0  0  0  0  0  0  0
   10.0366   -3.0590   23.9864 N   0  0  0  0  0  0  0  0  0  0  0  0
    7.1191   -7.3636   15.7739 C   0  0  0  0  0  0  0  0  0  0  0  0
    5.9612   -8.3203   17.2732 N   0  0  0  0  0  0  0  0  0  0  0  0
    8.5296   -5.9814   17.1841 C   0  0  0  0  0  0  0  0  0  0  0  0
    9.1527   -5.2118   16.2116 C   0  0  0  0  0  0  0  0  0  0  0  0
   10.3364   -3.8368   22.9255 O   0  0  0  0  0  0  0  0  0  0  0  0
    9.6947   -4.8407   18.8534 C   0  0  0  0  0  0  0  0  0  0  0  0
    9.1596    1.7042   24.1381 C   0  0  0  0  0  0  0  0  0  0  0  0
   11.0456   -2.9774   18.2694 N   0  0  0  0  0  0  0  0  0  0  0  0
   10.4788   -3.0457   21.8593 C   0  0  0  0  0  0  0  0  0  0  0  0
    8.8693   -5.8099   18.4657 N   0  0  0  0  0  0  0  0  0  0  0  0
    8.9892   -0.7926   25.4573 C   0  0  0  0  0  0  0  0  0  0  0  0
   10.5677   -3.4462   20.5323 C   0  0  0  0  0  0  0  0  0  0  0  0
  1  8  1  0
  1 12  4  0
  1 14  4  0
  2  3  4  0
  2 18  4  0
  3 20  4  0
  3 22  4  0
  4 11  4  0
  4 21  4  0
  5  9  4  0
  5 16  4  0
  6 15  4  0
  6 16  4  0
  7 22  4  0
  7 26  4  0
  8 10  4  0
  8 25  4  0
  9 15  4  0
  9 17  1  0
 10 21  4  0
 11 25  4  0
 12 23  4  0
 13 20  4  0
 13 26  4  0
 14 19  4  0
 17 18  4  0
 17 24  4  0
 19 23  4  0
 20 24  4  0
 23 26  1  0
M  END
$$$$

 Created by Python create_sdf_string function

 26 30  0  0  0  0  0  0  0  0999 V2000
   10.0084   -1.8019   23.4945 C   0  0  0  0  0  0  0  0  0  0  0  0
   10.0005   -4.2520   16.5631 C   0  0  0  0  0  0  0  0  0  0  0  0
   10.2759   -4.0036   17.8845 C   0  0  0  0  0  0  0  0  0  0  0  0
    8.5652    1.5478   25.3778 N   0  0  0  0  0  0  0  0  0  0  0  0
    6.8048   -7.5457   17.8752 C   0  0  0  0  0  0  0  0  0  0  0  0
    6.1721   -8.2186   15.9886 N   0  0  0  0  0  0  0  0  0  0  0  0
   11.1764   -2.6600   19.5604 C   0  0  0  0  0  0  0  0  0  0  0  0
    9.5491   -0.6380   24.1912 C   0  0  0  0  0  0  0  0  0  0  0  0
    7.5337   -6.9256   16.9519 C   0  0  0  0  0  0  0  0  0  0  0  0
    9.6782    0.5671   23.5143 C   0  0  0  0  0  0  0  0  0  0  0  0
    8.4532    0.3482   26.0821 C   0  0  0  0  0  0  0  0  0  0  0  0
   10.4239   -1.7677   22.2230 N   0  0  0  0  0  0  0  0  0  0  0  0
    9.9468   -4.5953   20.1709 C   0  0  0  0  0  0  0  0  0  0  0  0
   10.0366   -3.0590   23.9864 N   0  0  0  0  0  0  0  0  0  0  0  0
    7.1191   -7.3636   15.7739 C   0  0  0  0  0  0  0  0  0  0  0  0
    5.9612   -8.3203   17.2732 N   0  0  0  0  0  0  0  0  0  0  0  0
    8.5296   -5.9814   17.1841 C   0  0  0  0  0  0  0  0  0  0  0  0
    9.1527   -5.2118   16.2116 C   0  0  0  0  0  0  0  0  0  0  0  0
   10.3364   -3.8368   22.9255 O   0  0  0  0  0  0  0  0  0  0  0  0
    9.6947   -4.8407   18.8534 C   0  0  0  0  0  0  0  0  0  0  0  0
    9.1596    1.7042   24.1381 C   0  0  0  0  0  0  0  0  0  0  0  0
   11.0456   -2.9774   18.2694 N   0  0  0  0  0  0  0  0  0  0  0  0
   10.4788   -3.0457   21.8593 C   0  0  0  0  0  0  0  0  0  0  0  0
    8.8693   -5.8099   18.4657 N   0  0  0  0  0  0  0  0  0  0  0  0
    8.9892   -0.7926   25.4573 C   0  0  0  0  0  0  0  0  0  0  0  0
   10.5677   -3.4462   20.5323 C   0  0  0  0  0  0  0  0  0  0  0  0
  1  8  1  0
  1 12  4  0
  1 14  4  0
  2  3  4  0
  2 18  4  0
  3 20  4  0
  3 22  4  0
  4 11  4  0
  4 21  4  0
  5  9  4  0
  5 16  4  0
  6 15  4  0
  6 16  4  0
  7 22  4  0
  7 26  4  0
  8 10  4  0
  8 25  4  0
  9 15  4  0
  9 17  1  0
 10 21  4  0
 11 25  4  0
 12 23  4  0
 13 20  4  0
 13 26  4  0
 14 19  4  0
 17 18  4  0
 17 24  4  0
 19 23  4  0
 20 24  4  0
 23 26  1  0
M  END
$$$$

 Created by Python create_sdf_string function

 26 30  0  0  0  0  0  0  0  0999 V2000
   10.0084   -1.8019   23.4945 C   0  0  0  0  0  0  0  0  0  0  0  0
   10.0005   -4.2520   16.5631 C   0  0  0  0  0  0  0  0  0  0  0  0
   10.2759   -4.0036   17.8845 C   0  0  0  0  0  0  0  0  0  0  0  0
    8.5652    1.5478   25.3778 N   0  0  0  0  0  0  0  0  0  0  0  0
    6.8048   -7.5457   17.8752 C   0  0  0  0  0  0  0  0  0  0  0  0
    6.1721   -8.2186   15.9886 N   0  0  0  0  0  0  0  0  0  0  0  0
   11.1764   -2.6600   19.5604 C   0  0  0  0  0  0  0  0  0  0  0  0
    9.5491   -0.6380   24.1912 C   0  0  0  0  0  0  0  0  0  0  0  0
    7.5337   -6.9256   16.9519 C   0  0  0  0  0  0  0  0  0  0  0  0
    9.6782    0.5671   23.5143 C   0  0  0  0  0  0  0  0  0  0  0  0
    8.4532    0.3482   26.0821 C   0  0  0  0  0  0  0  0  0  0  0  0
   10.4239   -1.7677   22.2230 N   0  0  0  0  0  0  0  0  0  0  0  0
    9.9468   -4.5953   20.1709 C   0  0  0  0  0  0  0  0  0  0  0  0
   10.0366   -3.0590   23.9864 N   0  0  0  0  0  0  0  0  0  0  0  0
    7.1191   -7.3636   15.7739 C   0  0  0  0  0  0  0  0  0  0  0  0
    5.9612   -8.3203   17.2732 N   0  0  0  0  0  0  0  0  0  0  0  0
    8.5296   -5.9814   17.1841 C   0  0  0  0  0  0  0  0  0  0  0  0
    9.1527   -5.2118   16.2116 C   0  0  0  0  0  0  0  0  0  0  0  0
   10.3364   -3.8368   22.9255 O   0  0  0  0  0  0  0  0  0  0  0  0
    9.6947   -4.8407   18.8534 C   0  0  0  0  0  0  0  0  0  0  0  0
    9.1596    1.7042   24.1381 C   0  0  0  0  0  0  0  0  0  0  0  0
   11.0456   -2.9774   18.2694 N   0  0  0  0  0  0  0  0  0  0  0  0
   10.4788   -3.0457   21.8593 C   0  0  0  0  0  0  0  0  0  0  0  0
    8.8693   -5.8099   18.4657 N   0  0  0  0  0  0  0  0  0  0  0  0
    8.9892   -0.7926   25.4573 C   0  0  0  0  0  0  0  0  0  0  0  0
   10.5677   -3.4462   20.5323 C   0  0  0  0  0  0  0  0  0  0  0  0
  1  8  1  0
  1 12  4  0
  1 14  4  0
  2  3  4  0
  2 18  4  0
  3 20  4  0
  3 22  4  0
  4 11  4  0
  4 21  4  0
  5  9  4  0
  5 16  4  0
  6 15  4  0
  6 16  4  0
  7 22  4  0
  7 26  4  0
  8 10  4  0
  8 25  4  0
  9 15  4  0
  9 17  1  0
 10 21  4  0
 11 25  4  0
 12 23  4  0
 13 20  4  0
 13 26  4  0
 14 19  4  0
 17 18  4  0
 17 24  4  0
 19 23  4  0
 20 24  4  0
 23 26  1  0
M  END
$$$$

 Created by Python create_sdf_string function

 26 30  0  0  0  0  0  0  0  0999 V2000
   10.0084   -1.8019   23.4945 C   0  0  0  0  0  0  0  0  0  0  0  0
   10.0005   -4.2520   16.5631 C   0  0  0  0  0  0  0  0  0  0  0  0
   10.2759   -4.0036   17.8845 C   0  0  0  0  0  0  0  0  0  0  0  0
    8.5652    1.5478   25.3778 N   0  0  0  0  0  0  0  0  0  0  0  0
    6.8048   -7.5457   17.8752 C   0  0  0  0  0  0  0  0  0  0  0  0
    6.1721   -8.2186   15.9886 N   0  0  0  0  0  0  0  0  0  0  0  0
   11.1764   -2.6600   19.5604 C   0  0  0  0  0  0  0  0  0  0  0  0
    9.5491   -0.6380   24.1912 C   0  0  0  0  0  0  0  0  0  0  0  0
    7.5337   -6.9256   16.9519 C   0  0  0  0  0  0  0  0  0  0  0  0
    9.6782    0.5671   23.5143 C   0  0  0  0  0  0  0  0  0  0  0  0
    8.4532    0.3482   26.0821 C   0  0  0  0  0  0  0  0  0  0  0  0
   10.4239   -1.7677   22.2230 N   0  0  0  0  0  0  0  0  0  0  0  0
    9.9468   -4.5953   20.1709 C   0  0  0  0  0  0  0  0  0  0  0  0
   10.0366   -3.0590   23.9864 N   0  0  0  0  0  0  0  0  0  0  0  0
    7.1191   -7.3636   15.7739 C   0  0  0  0  0  0  0  0  0  0  0  0
    5.9612   -8.3203   17.2732 N   0  0  0  0  0  0  0  0  0  0  0  0
    8.5296   -5.9814   17.1841 C   0  0  0  0  0  0  0  0  0  0  0  0
    9.1527   -5.2118   16.2116 C   0  0  0  0  0  0  0  0  0  0  0  0
   10.3364   -3.8368   22.9255 O   0  0  0  0  0  0  0  0  0  0  0  0
    9.6947   -4.8407   18.8534 C   0  0  0  0  0  0  0  0  0  0  0  0
    9.1596    1.7042   24.1381 C   0  0  0  0  0  0  0  0  0  0  0  0
   11.0456   -2.9774   18.2694 N   0  0  0  0  0  0  0  0  0  0  0  0
   10.4788   -3.0457   21.8593 C   0  0  0  0  0  0  0  0  0  0  0  0
    8.8693   -5.8099   18.4657 N   0  0  0  0  0  0  0  0  0  0  0  0
    8.9892   -0.7926   25.4573 C   0  0  0  0  0  0  0  0  0  0  0  0
   10.5677   -3.4462   20.5323 C   0  0  0  0  0  0  0  0  0  0  0  0
  1  8  1  0
  1 12  4  0
  1 14  4  0
  2  3  4  0
  2 18  4  0
  3 20  4  0
  3 22  4  0
  4 11  4  0
  4 21  4  0
  5  9  4  0
  5 16  4  0
  6 15  4  0
  6 16  4  0
  7 22  4  0
  7 26  4  0
  8 10  4  0
  8 25  4  0
  9 15  4  0
  9 17  1  0
 10 21  4  0
 11 25  4  0
 12 23  4  0
 13 20  4  0
 13 26  4  0
 14 19  4  0
 17 18  4  0
 17 24  4  0
 19 23  4  0
 20 24  4  0
 23 26  1  0
M  END
$$$$

 Created by Python create_sdf_string function

 26 30  0  0  0  0  0  0  0  0999 V2000
   10.0084   -1.8019   23.4945 C   0  0  0  0  0  0  0  0  0  0  0  0
   10.0005   -4.2520   16.5631 C   0  0  0  0  0  0  0  0  0  0  0  0
   10.2759   -4.0036   17.8845 C   0  0  0  0  0  0  0  0  0  0  0  0
    8.5652    1.5478   25.3778 N   0  0  0  0  0  0  0  0  0  0  0  0
    6.8048   -7.5457   17.8752 C   0  0  0  0  0  0  0  0  0  0  0  0
    6.1721   -8.2186   15.9886 N   0  0  0  0  0  0  0  0  0  0  0  0
   11.1764   -2.6600   19.5604 C   0  0  0  0  0  0  0  0  0  0  0  0
    9.5491   -0.6380   24.1912 C   0  0  0  0  0  0  0  0  0  0  0  0
    7.5337   -6.9256   16.9519 C   0  0  0  0  0  0  0  0  0  0  0  0
    9.6782    0.5671   23.5143 C   0  0  0  0  0  0  0  0  0  0  0  0
    8.4532    0.3482   26.0821 C   0  0  0  0  0  0  0  0  0  0  0  0
   10.4239   -1.7677   22.2230 N   0  0  0  0  0  0  0  0  0  0  0  0
    9.9468   -4.5953   20.1709 C   0  0  0  0  0  0  0  0  0  0  0  0
   10.0366   -3.0590   23.9864 N   0  0  0  0  0  0  0  0  0  0  0  0
    7.1191   -7.3636   15.7739 C   0  0  0  0  0  0  0  0  0  0  0  0
    5.9612   -8.3203   17.2732 N   0  0  0  0  0  0  0  0  0  0  0  0
    8.5296   -5.9814   17.1841 C   0  0  0  0  0  0  0  0  0  0  0  0
    9.1527   -5.2118   16.2116 C   0  0  0  0  0  0  0  0  0  0  0  0
   10.3364   -3.8368   22.9255 O   0  0  0  0  0  0  0  0  0  0  0  0
    9.6947   -4.8407   18.8534 C   0  0  0  0  0  0  0  0  0  0  0  0
    9.1596    1.7042   24.1381 C   0  0  0  0  0  0  0  0  0  0  0  0
   11.0456   -2.9774   18.2694 N   0  0  0  0  0  0  0  0  0  0  0  0
   10.4788   -3.0457   21.8593 C   0  0  0  0  0  0  0  0  0  0  0  0
    8.8693   -5.8099   18.4657 N   0  0  0  0  0  0  0  0  0  0  0  0
    8.9892   -0.7926   25.4573 C   0  0  0  0  0  0  0  0  0  0  0  0
   10.5677   -3.4462   20.5323 C   0  0  0  0  0  0  0  0  0  0  0  0
  1  8  1  0
  1 12  4  0
  1 14  4  0
  2  3  4  0
  2 18  4  0
  3 20  4  0
  3 22  4  0
  4 11  4  0
  4 21  4  0
  5  9  4  0
  5 16  4  0
  6 15  4  0
  6 16  4  0
  7 22  4  0
  7 26  4  0
  8 10  4  0
  8 25  4  0
  9 15  4  0
  9 17  1  0
 10 21  4  0
 11 25  4  0
 12 23  4  0
 13 20  4  0
 13 26  4  0
 14 19  4  0
 17 18  4  0
 17 24  4  0
 19 23  4  0
 20 24  4  0
 23 26  1  0
M  END
$$$$

 Created by Python create_sdf_string function

 26 30  0  0  0  0  0  0  0  0999 V2000
   10.0084   -1.8019   23.4945 C   0  0  0  0  0  0  0  0  0  0  0  0
   10.0005   -4.2520   16.5631 C   0  0  0  0  0  0  0  0  0  0  0  0
   10.2759   -4.0036   17.8845 C   0  0  0  0  0  0  0  0  0  0  0  0
    8.5652    1.5478   25.3778 N   0  0  0  0  0  0  0  0  0  0  0  0
    6.8048   -7.5457   17.8752 C   0  0  0  0  0  0  0  0  0  0  0  0
    6.1721   -8.2186   15.9886 N   0  0  0  0  0  0  0  0  0  0  0  0
   11.1764   -2.6600   19.5604 C   0  0  0  0  0  0  0  0  0  0  0  0
    9.5491   -0.6380   24.1912 C   0  0  0  0  0  0  0  0  0  0  0  0
    7.5337   -6.9256   16.9519 C   0  0  0  0  0  0  0  0  0  0  0  0
    9.6782    0.5671   23.5143 C   0  0  0  0  0  0  0  0  0  0  0  0
    8.4532    0.3482   26.0821 C   0  0  0  0  0  0  0  0  0  0  0  0
   10.4239   -1.7677   22.2230 N   0  0  0  0  0  0  0  0  0  0  0  0
    9.9468   -4.5953   20.1709 C   0  0  0  0  0  0  0  0  0  0  0  0
   10.0366   -3.0590   23.9864 N   0  0  0  0  0  0  0  0  0  0  0  0
    7.1191   -7.3636   15.7739 C   0  0  0  0  0  0  0  0  0  0  0  0
    5.9612   -8.3203   17.2732 N   0  0  0  0  0  0  0  0  0  0  0  0
    8.5296   -5.9814   17.1841 C   0  0  0  0  0  0  0  0  0  0  0  0
    9.1527   -5.2118   16.2116 C   0  0  0  0  0  0  0  0  0  0  0  0
   10.3364   -3.8368   22.9255 O   0  0  0  0  0  0  0  0  0  0  0  0
    9.6947   -4.8407   18.8534 C   0  0  0  0  0  0  0  0  0  0  0  0
    9.1596    1.7042   24.1381 C   0  0  0  0  0  0  0  0  0  0  0  0
   11.0456   -2.9774   18.2694 N   0  0  0  0  0  0  0  0  0  0  0  0
   10.4788   -3.0457   21.8593 C   0  0  0  0  0  0  0  0  0  0  0  0
    8.8693   -5.8099   18.4657 N   0  0  0  0  0  0  0  0  0  0  0  0
    8.9892   -0.7926   25.4573 C   0  0  0  0  0  0  0  0  0  0  0  0
   10.5677   -3.4462   20.5323 C   0  0  0  0  0  0  0  0  0  0  0  0
  1  8  1  0
  1 12  4  0
  1 14  4  0
  2  3  4  0
  2 18  4  0
  3 20  4  0
  3 22  4  0
  4 11  4  0
  4 21  4  0
  5  9  4  0
  5 16  4  0
  6 15  4  0
  6 16  4  0
  7 22  4  0
  7 26  4  0
  8 10  4  0
  8 25  4  0
  9 15  4  0
  9 17  1  0
 10 21  4  0
 11 25  4  0
 12 23  4  0
 13 20  4  0
 13 26  4  0
 14 19  4  0
 17 18  4  0
 17 24  4  0
 19 23  4  0
 20 24  4  0
 23 26  1  0
M  END
$$$$

 Created by Python create_sdf_string function

 26 30  0  0  0  0  0  0  0  0999 V2000
   10.0084   -1.8019   23.4945 C   0  0  0  0  0  0  0  0  0  0  0  0
   10.0005   -4.2520   16.5631 C   0  0  0  0  0  0  0  0  0  0  0  0
   10.2759   -4.0036   17.8845 C   0  0  0  0  0  0  0  0  0  0  0  0
    8.5652    1.5478   25.3778 N   0  0  0  0  0  0  0  0  0  0  0  0
    6.8048   -7.5457   17.8752 C   0  0  0  0  0  0  0  0  0  0  0  0
    6.1721   -8.2186   15.9886 N   0  0  0  0  0  0  0  0  0  0  0  0
   11.1764   -2.6600   19.5604 C   0  0  0  0  0  0  0  0  0  0  0  0
    9.5491   -0.6380   24.1912 C   0  0  0  0  0  0  0  0  0  0  0  0
    7.5337   -6.9256   16.9519 C   0  0  0  0  0  0  0  0  0  0  0  0
    9.6782    0.5671   23.5143 C   0  0  0  0  0  0  0  0  0  0  0  0
    8.4532    0.3482   26.0821 C   0  0  0  0  0  0  0  0  0  0  0  0
   10.4239   -1.7677   22.2230 N   0  0  0  0  0  0  0  0  0  0  0  0
    9.9468   -4.5953   20.1709 C   0  0  0  0  0  0  0  0  0  0  0  0
   10.0366   -3.0590   23.9864 N   0  0  0  0  0  0  0  0  0  0  0  0
    7.1191   -7.3636   15.7739 C   0  0  0  0  0  0  0  0  0  0  0  0
    5.9612   -8.3203   17.2732 N   0  0  0  0  0  0  0  0  0  0  0  0
    8.5296   -5.9814   17.1841 C   0  0  0  0  0  0  0  0  0  0  0  0
    9.1527   -5.2118   16.2116 C   0  0  0  0  0  0  0  0  0  0  0  0
   10.3364   -3.8368   22.9255 O   0  0  0  0  0  0  0  0  0  0  0  0
    9.6947   -4.8407   18.8534 C   0  0  0  0  0  0  0  0  0  0  0  0
    9.1596    1.7042   24.1381 C   0  0  0  0  0  0  0  0  0  0  0  0
   11.0456   -2.9774   18.2694 N   0  0  0  0  0  0  0  0  0  0  0  0
   10.4788   -3.0457   21.8593 C   0  0  0  0  0  0  0  0  0  0  0  0
    8.8693   -5.8099   18.4657 N   0  0  0  0  0  0  0  0  0  0  0  0
    8.9892   -0.7926   25.4573 C   0  0  0  0  0  0  0  0  0  0  0  0
   10.5677   -3.4462   20.5323 C   0  0  0  0  0  0  0  0  0  0  0  0
  1  8  1  0
  1 12  4  0
  1 14  4  0
  2  3  4  0
  2 18  4  0
  3 20  4  0
  3 22  4  0
  4 11  4  0
  4 21  4  0
  5  9  4  0
  5 16  4  0
  6 15  4  0
  6 16  4  0
  7 22  4  0
  7 26  4  0
  8 10  4  0
  8 25  4  0
  9 15  4  0
  9 17  1  0
 10 21  4  0
 11 25  4  0
 12 23  4  0
 13 20  4  0
 13 26  4  0
 14 19  4  0
 17 18  4  0
 17 24  4  0
 19 23  4  0
 20 24  4  0
 23 26  1  0
M  END
$$$$

 Created by Python create_sdf_string function

 26 30  0  0  0  0  0  0  0  0999 V2000
   10.0084   -1.8019   23.4945 C   0  0  0  0  0  0  0  0  0  0  0  0
   10.0005   -4.2520   16.5631 C   0  0  0  0  0  0  0  0  0  0  0  0
   10.2759   -4.0036   17.8845 C   0  0  0  0  0  0  0  0  0  0  0  0
    8.5652    1.5478   25.3778 N   0  0  0  0  0  0  0  0  0  0  0  0
    6.8048   -7.5457   17.8752 C   0  0  0  0  0  0  0  0  0  0  0  0
    6.1721   -8.2186   15.9886 N   0  0  0  0  0  0  0  0  0  0  0  0
   11.1764   -2.6600   19.5604 C   0  0  0  0  0  0  0  0  0  0  0  0
    9.5491   -0.6380   24.1912 C   0  0  0  0  0  0  0  0  0  0  0  0
    7.5337   -6.9256   16.9519 C   0  0  0  0  0  0  0  0  0  0  0  0
    9.6782    0.5671   23.5143 C   0  0  0  0  0  0  0  0  0  0  0  0
    8.4532    0.3482   26.0821 C   0  0  0  0  0  0  0  0  0  0  0  0
   10.4239   -1.7677   22.2230 N   0  0  0  0  0  0  0  0  0  0  0  0
    9.9468   -4.5953   20.1709 C   0  0  0  0  0  0  0  0  0  0  0  0
   10.0366   -3.0590   23.9864 N   0  0  0  0  0  0  0  0  0  0  0  0
    7.1191   -7.3636   15.7739 C   0  0  0  0  0  0  0  0  0  0  0  0
    5.9612   -8.3203   17.2732 N   0  0  0  0  0  0  0  0  0  0  0  0
    8.5296   -5.9814   17.1841 C   0  0  0  0  0  0  0  0  0  0  0  0
    9.1527   -5.2118   16.2116 C   0  0  0  0  0  0  0  0  0  0  0  0
   10.3364   -3.8368   22.9255 O   0  0  0  0  0  0  0  0  0  0  0  0
    9.6947   -4.8407   18.8534 C   0  0  0  0  0  0  0  0  0  0  0  0
    9.1596    1.7042   24.1381 C   0  0  0  0  0  0  0  0  0  0  0  0
   11.0456   -2.9774   18.2694 N   0  0  0  0  0  0  0  0  0  0  0  0
   10.4788   -3.0457   21.8593 C   0  0  0  0  0  0  0  0  0  0  0  0
    8.8693   -5.8099   18.4657 N   0  0  0  0  0  0  0  0  0  0  0  0
    8.9892   -0.7926   25.4573 C   0  0  0  0  0  0  0  0  0  0  0  0
   10.5677   -3.4462   20.5323 C   0  0  0  0  0  0  0  0  0  0  0  0
  1  8  1  0
  1 12  4  0
  1 14  4  0
  2  3  4  0
  2 18  4  0
  3 20  4  0
  3 22  4  0
  4 11  4  0
  4 21  4  0
  5  9  4  0
  5 16  4  0
  6 15  4  0
  6 16  4  0
  7 22  4  0
  7 26  4  0
  8 10  4  0
  8 25  4  0
  9 15  4  0
  9 17  1  0
 10 21  4  0
 11 25  4  0
 12 23  4  0
 13 20  4  0
 13 26  4  0
 14 19  4  0
 17 18  4  0
 17 24  4  0
 19 23  4  0
 20 24  4  0
 23 26  1  0
M  END
$$$$

 Created by Python create_sdf_string function

 26 30  0  0  0  0  0  0  0  0999 V2000
   10.0084   -1.8019   23.4945 C   0  0  0  0  0  0  0  0  0  0  0  0
   10.0005   -4.2520   16.5631 C   0  0  0  0  0  0  0  0  0  0  0  0
   10.2759   -4.0036   17.8845 C   0  0  0  0  0  0  0  0  0  0  0  0
    8.5652    1.5478   25.3778 N   0  0  0  0  0  0  0  0  0  0  0  0
    6.8048   -7.5457   17.8752 C   0  0  0  0  0  0  0  0  0  0  0  0
    6.1721   -8.2186   15.9886 N   0  0  0  0  0  0  0  0  0  0  0  0
   11.1764   -2.6600   19.5604 C   0  0  0  0  0  0  0  0  0  0  0  0
    9.5491   -0.6380   24.1912 C   0  0  0  0  0  0  0  0  0  0  0  0
    7.5337   -6.9256   16.9519 C   0  0  0  0  0  0  0  0  0  0  0  0
    9.6782    0.5671   23.5143 C   0  0  0  0  0  0  0  0  0  0  0  0
    8.4532    0.3482   26.0821 C   0  0  0  0  0  0  0  0  0  0  0  0
   10.4239   -1.7677   22.2230 N   0  0  0  0  0  0  0  0  0  0  0  0
    9.9468   -4.5953   20.1709 C   0  0  0  0  0  0  0  0  0  0  0  0
   10.0366   -3.0590   23.9864 N   0  0  0  0  0  0  0  0  0  0  0  0
    7.1191   -7.3636   15.7739 C   0  0  0  0  0  0  0  0  0  0  0  0
    5.9612   -8.3203   17.2732 N   0  0  0  0  0  0  0  0  0  0  0  0
    8.5296   -5.9814   17.1841 C   0  0  0  0  0  0  0  0  0  0  0  0
    9.1527   -5.2118   16.2116 C   0  0  0  0  0  0  0  0  0  0  0  0
   10.3364   -3.8368   22.9255 O   0  0  0  0  0  0  0  0  0  0  0  0
    9.6947   -4.8407   18.8534 C   0  0  0  0  0  0  0  0  0  0  0  0
    9.1596    1.7042   24.1381 C   0  0  0  0  0  0  0  0  0  0  0  0
   11.0456   -2.9774   18.2694 N   0  0  0  0  0  0  0  0  0  0  0  0
   10.4788   -3.0457   21.8593 C   0  0  0  0  0  0  0  0  0  0  0  0
    8.8693   -5.8099   18.4657 N   0  0  0  0  0  0  0  0  0  0  0  0
    8.9892   -0.7926   25.4573 C   0  0  0  0  0  0  0  0  0  0  0  0
   10.5677   -3.4462   20.5323 C   0  0  0  0  0  0  0  0  0  0  0  0
  1  8  1  0
  1 12  4  0
  1 14  4  0
  2  3  4  0
  2 18  4  0
  3 20  4  0
  3 22  4  0
  4 11  4  0
  4 21  4  0
  5  9  4  0
  5 16  4  0
  6 15  4  0
  6 16  4  0
  7 22  4  0
  7 26  4  0
  8 10  4  0
  8 25  4  0
  9 15  4  0
  9 17  1  0
 10 21  4  0
 11 25  4  0
 12 23  4  0
 13 20  4  0
 13 26  4  0
 14 19  4  0
 17 18  4  0
 17 24  4  0
 19 23  4  0
 20 24  4  0
 23 26  1  0
M  END
$$$$

 Created by Python create_sdf_string function

 26 30  0  0  0  0  0  0  0  0999 V2000
   10.0084   -1.8019   23.4945 C   0  0  0  0  0  0  0  0  0  0  0  0
   10.0005   -4.2520   16.5631 C   0  0  0  0  0  0  0  0  0  0  0  0
   10.2759   -4.0036   17.8845 C   0  0  0  0  0  0  0  0  0  0  0  0
    8.5652    1.5478   25.3778 N   0  0  0  0  0  0  0  0  0  0  0  0
    6.8048   -7.5457   17.8752 C   0  0  0  0  0  0  0  0  0  0  0  0
    6.1721   -8.2186   15.9886 N   0  0  0  0  0  0  0  0  0  0  0  0
   11.1764   -2.6600   19.5604 C   0  0  0  0  0  0  0  0  0  0  0  0
    9.5491   -0.6380   24.1912 C   0  0  0  0  0  0  0  0  0  0  0  0
    7.5337   -6.9256   16.9519 C   0  0  0  0  0  0  0  0  0  0  0  0
    9.6782    0.5671   23.5143 C   0  0  0  0  0  0  0  0  0  0  0  0
    8.4532    0.3482   26.0821 C   0  0  0  0  0  0  0  0  0  0  0  0
   10.4239   -1.7677   22.2230 N   0  0  0  0  0  0  0  0  0  0  0  0
    9.9468   -4.5953   20.1709 C   0  0  0  0  0  0  0  0  0  0  0  0
   10.0366   -3.0590   23.9864 N   0  0  0  0  0  0  0  0  0  0  0  0
    7.1191   -7.3636   15.7739 C   0  0  0  0  0  0  0  0  0  0  0  0
    5.9612   -8.3203   17.2732 N   0  0  0  0  0  0  0  0  0  0  0  0
    8.5296   -5.9814   17.1841 C   0  0  0  0  0  0  0  0  0  0  0  0
    9.1527   -5.2118   16.2116 C   0  0  0  0  0  0  0  0  0  0  0  0
   10.3364   -3.8368   22.9255 O   0  0  0  0  0  0  0  0  0  0  0  0
    9.6947   -4.8407   18.8534 C   0  0  0  0  0  0  0  0  0  0  0  0
    9.1596    1.7042   24.1381 C   0  0  0  0  0  0  0  0  0  0  0  0
   11.0456   -2.9774   18.2694 N   0  0  0  0  0  0  0  0  0  0  0  0
   10.4788   -3.0457   21.8593 C   0  0  0  0  0  0  0  0  0  0  0  0
    8.8693   -5.8099   18.4657 N   0  0  0  0  0  0  0  0  0  0  0  0
    8.9892   -0.7926   25.4573 C   0  0  0  0  0  0  0  0  0  0  0  0
   10.5677   -3.4462   20.5323 C   0  0  0  0  0  0  0  0  0  0  0  0
  1  8  1  0
  1 12  4  0
  1 14  4  0
  2  3  4  0
  2 18  4  0
  3 20  4  0
  3 22  4  0
  4 11  4  0
  4 21  4  0
  5  9  4  0
  5 16  4  0
  6 15  4  0
  6 16  4  0
  7 22  4  0
  7 26  4  0
  8 10  4  0
  8 25  4  0
  9 15  4  0
  9 17  1  0
 10 21  4  0
 11 25  4  0
 12 23  4  0
 13 20  4  0
 13 26  4  0
 14 19  4  0
 17 18  4  0
 17 24  4  0
 19 23  4  0
 20 24  4  0
 23 26  1  0
M  END
$$$$

 Created by Python create_sdf_string function

 26 30  0  0  0  0  0  0  0  0999 V2000
   10.0084   -1.8019   23.4945 C   0  0  0  0  0  0  0  0  0  0  0  0
   10.0005   -4.2520   16.5631 C   0  0  0  0  0  0  0  0  0  0  0  0
   10.2759   -4.0036   17.8845 C   0  0  0  0  0  0  0  0  0  0  0  0
    8.5652    1.5478   25.3778 N   0  0  0  0  0  0  0  0  0  0  0  0
    6.8048   -7.5457   17.8752 C   0  0  0  0  0  0  0  0  0  0  0  0
    6.1721   -8.2186   15.9886 N   0  0  0  0  0  0  0  0  0  0  0  0
   11.1764   -2.6600   19.5604 C   0  0  0  0  0  0  0  0  0  0  0  0
    9.5491   -0.6380   24.1912 C   0  0  0  0  0  0  0  0  0  0  0  0
    7.5337   -6.9256   16.9519 C   0  0  0  0  0  0  0  0  0  0  0  0
    9.6782    0.5671   23.5143 C   0  0  0  0  0  0  0  0  0  0  0  0
    8.4532    0.3482   26.0821 C   0  0  0  0  0  0  0  0  0  0  0  0
   10.4239   -1.7677   22.2230 N   0  0  0  0  0  0  0  0  0  0  0  0
    9.9468   -4.5953   20.1709 C   0  0  0  0  0  0  0  0  0  0  0  0
   10.0366   -3.0590   23.9864 N   0  0  0  0  0  0  0  0  0  0  0  0
    7.1191   -7.3636   15.7739 C   0  0  0  0  0  0  0  0  0  0  0  0
    5.9612   -8.3203   17.2732 N   0  0  0  0  0  0  0  0  0  0  0  0
    8.5296   -5.9814   17.1841 C   0  0  0  0  0  0  0  0  0  0  0  0
    9.1527   -5.2118   16.2116 C   0  0  0  0  0  0  0  0  0  0  0  0
   10.3364   -3.8368   22.9255 O   0  0  0  0  0  0  0  0  0  0  0  0
    9.6947   -4.8407   18.8534 C   0  0  0  0  0  0  0  0  0  0  0  0
    9.1596    1.7042   24.1381 C   0  0  0  0  0  0  0  0  0  0  0  0
   11.0456   -2.9774   18.2694 N   0  0  0  0  0  0  0  0  0  0  0  0
   10.4788   -3.0457   21.8593 C   0  0  0  0  0  0  0  0  0  0  0  0
    8.8693   -5.8099   18.4657 N   0  0  0  0  0  0  0  0  0  0  0  0
    8.9892   -0.7926   25.4573 C   0  0  0  0  0  0  0  0  0  0  0  0
   10.5677   -3.4462   20.5323 C   0  0  0  0  0  0  0  0  0  0  0  0
  1  8  1  0
  1 12  4  0
  1 14  4  0
  2  3  4  0
  2 18  4  0
  3 20  4  0
  3 22  4  0
  4 11  4  0
  4 21  4  0
  5  9  4  0
  5 16  4  0
  6 15  4  0
  6 16  4  0
  7 22  4  0
  7 26  4  0
  8 10  4  0
  8 25  4  0
  9 15  4  0
  9 17  1  0
 10 21  4  0
 11 25  4  0
 12 23  4  0
 13 20  4  0
 13 26  4  0
 14 19  4  0
 17 18  4  0
 17 24  4  0
 19 23  4  0
 20 24  4  0
 23 26  1  0
M  END
$$$$

 Created by Python create_sdf_string function

 26 30  0  0  0  0  0  0  0  0999 V2000
   10.0084   -1.8019   23.4945 C   0  0  0  0  0  0  0  0  0  0  0  0
   10.0005   -4.2520   16.5631 C   0  0  0  0  0  0  0  0  0  0  0  0
   10.2759   -4.0036   17.8845 C   0  0  0  0  0  0  0  0  0  0  0  0
    8.5652    1.5478   25.3778 N   0  0  0  0  0  0  0  0  0  0  0  0
    6.8048   -7.5457   17.8752 C   0  0  0  0  0  0  0  0  0  0  0  0
    6.1721   -8.2186   15.9886 N   0  0  0  0  0  0  0  0  0  0  0  0
   11.1764   -2.6600   19.5604 C   0  0  0  0  0  0  0  0  0  0  0  0
    9.5491   -0.6380   24.1912 C   0  0  0  0  0  0  0  0  0  0  0  0
    7.5337   -6.9256   16.9519 C   0  0  0  0  0  0  0  0  0  0  0  0
    9.6782    0.5671   23.5143 C   0  0  0  0  0  0  0  0  0  0  0  0
    8.4532    0.3482   26.0821 C   0  0  0  0  0  0  0  0  0  0  0  0
   10.4239   -1.7677   22.2230 N   0  0  0  0  0  0  0  0  0  0  0  0
    9.9468   -4.5953   20.1709 C   0  0  0  0  0  0  0  0  0  0  0  0
   10.0366   -3.0590   23.9864 N   0  0  0  0  0  0  0  0  0  0  0  0
    7.1191   -7.3636   15.7739 C   0  0  0  0  0  0  0  0  0  0  0  0
    5.9612   -8.3203   17.2732 N   0  0  0  0  0  0  0  0  0  0  0  0
    8.5296   -5.9814   17.1841 C   0  0  0  0  0  0  0  0  0  0  0  0
    9.1527   -5.2118   16.2116 C   0  0  0  0  0  0  0  0  0  0  0  0
   10.3364   -3.8368   22.9255 O   0  0  0  0  0  0  0  0  0  0  0  0
    9.6947   -4.8407   18.8534 C   0  0  0  0  0  0  0  0  0  0  0  0
    9.1596    1.7042   24.1381 C   0  0  0  0  0  0  0  0  0  0  0  0
   11.0456   -2.9774   18.2694 N   0  0  0  0  0  0  0  0  0  0  0  0
   10.4788   -3.0457   21.8593 C   0  0  0  0  0  0  0  0  0  0  0  0
    8.8693   -5.8099   18.4657 N   0  0  0  0  0  0  0  0  0  0  0  0
    8.9892   -0.7926   25.4573 C   0  0  0  0  0  0  0  0  0  0  0  0
   10.5677   -3.4462   20.5323 C   0  0  0  0  0  0  0  0  0  0  0  0
  1  8  1  0
  1 12  4  0
  1 14  4  0
  2  3  4  0
  2 18  4  0
  3 20  4  0
  3 22  4  0
  4 11  4  0
  4 21  4  0
  5  9  4  0
  5 16  4  0
  6 15  4  0
  6 16  4  0
  7 22  4  0
  7 26  4  0
  8 10  4  0
  8 25  4  0
  9 15  4  0
  9 17  1  0
 10 21  4  0
 11 25  4  0
 12 23  4  0
 13 20  4  0
 13 26  4  0
 14 19  4  0
 17 18  4  0
 17 24  4  0
 19 23  4  0
 20 24  4  0
 23 26  1  0
M  END
$$$$

 Created by Python create_sdf_string function

 26 30  0  0  0  0  0  0  0  0999 V2000
   10.0084   -1.8019   23.4945 C   0  0  0  0  0  0  0  0  0  0  0  0
   10.0005   -4.2520   16.5631 C   0  0  0  0  0  0  0  0  0  0  0  0
   10.2759   -4.0036   17.8845 C   0  0  0  0  0  0  0  0  0  0  0  0
    8.5652    1.5478   25.3778 N   0  0  0  0  0  0  0  0  0  0  0  0
    6.8048   -7.5457   17.8752 C   0  0  0  0  0  0  0  0  0  0  0  0
    6.1721   -8.2186   15.9886 N   0  0  0  0  0  0  0  0  0  0  0  0
   11.1764   -2.6600   19.5604 C   0  0  0  0  0  0  0  0  0  0  0  0
    9.5491   -0.6380   24.1912 C   0  0  0  0  0  0  0  0  0  0  0  0
    7.5337   -6.9256   16.9519 C   0  0  0  0  0  0  0  0  0  0  0  0
    9.6782    0.5671   23.5143 C   0  0  0  0  0  0  0  0  0  0  0  0
    8.4532    0.3482   26.0821 C   0  0  0  0  0  0  0  0  0  0  0  0
   10.4239   -1.7677   22.2230 N   0  0  0  0  0  0  0  0  0  0  0  0
    9.9468   -4.5953   20.1709 C   0  0  0  0  0  0  0  0  0  0  0  0
   10.0366   -3.0590   23.9864 N   0  0  0  0  0  0  0  0  0  0  0  0
    7.1191   -7.3636   15.7739 C   0  0  0  0  0  0  0  0  0  0  0  0
    5.9612   -8.3203   17.2732 N   0  0  0  0  0  0  0  0  0  0  0  0
    8.5296   -5.9814   17.1841 C   0  0  0  0  0  0  0  0  0  0  0  0
    9.1527   -5.2118   16.2116 C   0  0  0  0  0  0  0  0  0  0  0  0
   10.3364   -3.8368   22.9255 O   0  0  0  0  0  0  0  0  0  0  0  0
    9.6947   -4.8407   18.8534 C   0  0  0  0  0  0  0  0  0  0  0  0
    9.1596    1.7042   24.1381 C   0  0  0  0  0  0  0  0  0  0  0  0
   11.0456   -2.9774   18.2694 N   0  0  0  0  0  0  0  0  0  0  0  0
   10.4788   -3.0457   21.8593 C   0  0  0  0  0  0  0  0  0  0  0  0
    8.8693   -5.8099   18.4657 N   0  0  0  0  0  0  0  0  0  0  0  0
    8.9892   -0.7926   25.4573 C   0  0  0  0  0  0  0  0  0  0  0  0
   10.5677   -3.4462   20.5323 C   0  0  0  0  0  0  0  0  0  0  0  0
  1  8  1  0
  1 12  4  0
  1 14  4  0
  2  3  4  0
  2 18  4  0
  3 20  4  0
  3 22  4  0
  4 11  4  0
  4 21  4  0
  5  9  4  0
  5 16  4  0
  6 15  4  0
  6 16  4  0
  7 22  4  0
  7 26  4  0
  8 10  4  0
  8 25  4  0
  9 15  4  0
  9 17  1  0
 10 21  4  0
 11 25  4  0
 12 23  4  0
 13 20  4  0
 13 26  4  0
 14 19  4  0
 17 18  4  0
 17 24  4  0
 19 23  4  0
 20 24  4  0
 23 26  1  0
M  END
$$$$

 Created by Python create_sdf_string function

 26 30  0  0  0  0  0  0  0  0999 V2000
   10.0084   -1.8019   23.4945 C   0  0  0  0  0  0  0  0  0  0  0  0
   10.0005   -4.2520   16.5631 C   0  0  0  0  0  0  0  0  0  0  0  0
   10.2759   -4.0036   17.8845 C   0  0  0  0  0  0  0  0  0  0  0  0
    8.5652    1.5478   25.3778 N   0  0  0  0  0  0  0  0  0  0  0  0
    6.8048   -7.5457   17.8752 C   0  0  0  0  0  0  0  0  0  0  0  0
    6.1721   -8.2186   15.9886 N   0  0  0  0  0  0  0  0  0  0  0  0
   11.1764   -2.6600   19.5604 C   0  0  0  0  0  0  0  0  0  0  0  0
    9.5491   -0.6380   24.1912 C   0  0  0  0  0  0  0  0  0  0  0  0
    7.5337   -6.9256   16.9519 C   0  0  0  0  0  0  0  0  0  0  0  0
    9.6782    0.5671   23.5143 C   0  0  0  0  0  0  0  0  0  0  0  0
    8.4532    0.3482   26.0821 C   0  0  0  0  0  0  0  0  0  0  0  0
   10.4239   -1.7677   22.2230 N   0  0  0  0  0  0  0  0  0  0  0  0
    9.9468   -4.5953   20.1709 C   0  0  0  0  0  0  0  0  0  0  0  0
   10.0366   -3.0590   23.9864 N   0  0  0  0  0  0  0  0  0  0  0  0
    7.1191   -7.3636   15.7739 C   0  0  0  0  0  0  0  0  0  0  0  0
    5.9612   -8.3203   17.2732 N   0  0  0  0  0  0  0  0  0  0  0  0
    8.5296   -5.9814   17.1841 C   0  0  0  0  0  0  0  0  0  0  0  0
    9.1527   -5.2118   16.2116 C   0  0  0  0  0  0  0  0  0  0  0  0
   10.3364   -3.8368   22.9255 O   0  0  0  0  0  0  0  0  0  0  0  0
    9.6947   -4.8407   18.8534 C   0  0  0  0  0  0  0  0  0  0  0  0
    9.1596    1.7042   24.1381 C   0  0  0  0  0  0  0  0  0  0  0  0
   11.0456   -2.9774   18.2694 N   0  0  0  0  0  0  0  0  0  0  0  0
   10.4788   -3.0457   21.8593 C   0  0  0  0  0  0  0  0  0  0  0  0
    8.8693   -5.8099   18.4657 N   0  0  0  0  0  0  0  0  0  0  0  0
    8.9892   -0.7926   25.4573 C   0  0  0  0  0  0  0  0  0  0  0  0
   10.5677   -3.4462   20.5323 C   0  0  0  0  0  0  0  0  0  0  0  0
  1  8  1  0
  1 12  4  0
  1 14  4  0
  2  3  4  0
  2 18  4  0
  3 20  4  0
  3 22  4  0
  4 11  4  0
  4 21  4  0
  5  9  4  0
  5 16  4  0
  6 15  4  0
  6 16  4  0
  7 22  4  0
  7 26  4  0
  8 10  4  0
  8 25  4  0
  9 15  4  0
  9 17  1  0
 10 21  4  0
 11 25  4  0
 12 23  4  0
 13 20  4  0
 13 26  4  0
 14 19  4  0
 17 18  4  0
 17 24  4  0
 19 23  4  0
 20 24  4  0
 23 26  1  0
M  END
$$$$

 Created by Python create_sdf_string function

 26 30  0  0  0  0  0  0  0  0999 V2000
   10.0084   -1.8019   23.4945 C   0  0  0  0  0  0  0  0  0  0  0  0
   10.0005   -4.2520   16.5631 C   0  0  0  0  0  0  0  0  0  0  0  0
   10.2759   -4.0036   17.8845 C   0  0  0  0  0  0  0  0  0  0  0  0
    8.5652    1.5478   25.3778 N   0  0  0  0  0  0  0  0  0  0  0  0
    6.8048   -7.5457   17.8752 C   0  0  0  0  0  0  0  0  0  0  0  0
    6.1721   -8.2186   15.9886 N   0  0  0  0  0  0  0  0  0  0  0  0
   11.1764   -2.6600   19.5604 C   0  0  0  0  0  0  0  0  0  0  0  0
    9.5491   -0.6380   24.1912 C   0  0  0  0  0  0  0  0  0  0  0  0
    7.5337   -6.9256   16.9519 C   0  0  0  0  0  0  0  0  0  0  0  0
    9.6782    0.5671   23.5143 C   0  0  0  0  0  0  0  0  0  0  0  0
    8.4532    0.3482   26.0821 C   0  0  0  0  0  0  0  0  0  0  0  0
   10.4239   -1.7677   22.2230 N   0  0  0  0  0  0  0  0  0  0  0  0
    9.9468   -4.5953   20.1709 C   0  0  0  0  0  0  0  0  0  0  0  0
   10.0366   -3.0590   23.9864 N   0  0  0  0  0  0  0  0  0  0  0  0
    7.1191   -7.3636   15.7739 C   0  0  0  0  0  0  0  0  0  0  0  0
    5.9612   -8.3203   17.2732 N   0  0  0  0  0  0  0  0  0  0  0  0
    8.5296   -5.9814   17.1841 C   0  0  0  0  0  0  0  0  0  0  0  0
    9.1527   -5.2118   16.2116 C   0  0  0  0  0  0  0  0  0  0  0  0
   10.3364   -3.8368   22.9255 O   0  0  0  0  0  0  0  0  0  0  0  0
    9.6947   -4.8407   18.8534 C   0  0  0  0  0  0  0  0  0  0  0  0
    9.1596    1.7042   24.1381 C   0  0  0  0  0  0  0  0  0  0  0  0
   11.0456   -2.9774   18.2694 N   0  0  0  0  0  0  0  0  0  0  0  0
   10.4788   -3.0457   21.8593 C   0  0  0  0  0  0  0  0  0  0  0  0
    8.8693   -5.8099   18.4657 N   0  0  0  0  0  0  0  0  0  0  0  0
    8.9892   -0.7926   25.4573 C   0  0  0  0  0  0  0  0  0  0  0  0
   10.5677   -3.4462   20.5323 C   0  0  0  0  0  0  0  0  0  0  0  0
  1  8  1  0
  1 12  4  0
  1 14  4  0
  2  3  4  0
  2 18  4  0
  3 20  4  0
  3 22  4  0
  4 11  4  0
  4 21  4  0
  5  9  4  0
  5 16  4  0
  6 15  4  0
  6 16  4  0
  7 22  4  0
  7 26  4  0
  8 10  4  0
  8 25  4  0
  9 15  4  0
  9 17  1  0
 10 21  4  0
 11 25  4  0
 12 23  4  0
 13 20  4  0
 13 26  4  0
 14 19  4  0
 17 18  4  0
 17 24  4  0
 19 23  4  0
 20 24  4  0
 23 26  1  0
M  END
$$$$

 Created by Python create_sdf_string function

 26 30  0  0  0  0  0  0  0  0999 V2000
   10.0084   -1.8019   23.4945 C   0  0  0  0  0  0  0  0  0  0  0  0
   10.0005   -4.2520   16.5631 C   0  0  0  0  0  0  0  0  0  0  0  0
   10.2759   -4.0036   17.8845 C   0  0  0  0  0  0  0  0  0  0  0  0
    8.5652    1.5478   25.3778 N   0  0  0  0  0  0  0  0  0  0  0  0
    6.8048   -7.5457   17.8752 C   0  0  0  0  0  0  0  0  0  0  0  0
    6.1721   -8.2186   15.9886 N   0  0  0  0  0  0  0  0  0  0  0  0
   11.1764   -2.6600   19.5604 C   0  0  0  0  0  0  0  0  0  0  0  0
    9.5491   -0.6380   24.1912 C   0  0  0  0  0  0  0  0  0  0  0  0
    7.5337   -6.9256   16.9519 C   0  0  0  0  0  0  0  0  0  0  0  0
    9.6782    0.5671   23.5143 C   0  0  0  0  0  0  0  0  0  0  0  0
    8.4532    0.3482   26.0821 C   0  0  0  0  0  0  0  0  0  0  0  0
   10.4239   -1.7677   22.2230 N   0  0  0  0  0  0  0  0  0  0  0  0
    9.9468   -4.5953   20.1709 C   0  0  0  0  0  0  0  0  0  0  0  0
   10.0366   -3.0590   23.9864 N   0  0  0  0  0  0  0  0  0  0  0  0
    7.1191   -7.3636   15.7739 C   0  0  0  0  0  0  0  0  0  0  0  0
    5.9612   -8.3203   17.2732 N   0  0  0  0  0  0  0  0  0  0  0  0
    8.5296   -5.9814   17.1841 C   0  0  0  0  0  0  0  0  0  0  0  0
    9.1527   -5.2118   16.2116 C   0  0  0  0  0  0  0  0  0  0  0  0
   10.3364   -3.8368   22.9255 O   0  0  0  0  0  0  0  0  0  0  0  0
    9.6947   -4.8407   18.8534 C   0  0  0  0  0  0  0  0  0  0  0  0
    9.1596    1.7042   24.1381 C   0  0  0  0  0  0  0  0  0  0  0  0
   11.0456   -2.9774   18.2694 N   0  0  0  0  0  0  0  0  0  0  0  0
   10.4788   -3.0457   21.8593 C   0  0  0  0  0  0  0  0  0  0  0  0
    8.8693   -5.8099   18.4657 N   0  0  0  0  0  0  0  0  0  0  0  0
    8.9892   -0.7926   25.4573 C   0  0  0  0  0  0  0  0  0  0  0  0
   10.5677   -3.4462   20.5323 C   0  0  0  0  0  0  0  0  0  0  0  0
  1  8  1  0
  1 12  4  0
  1 14  4  0
  2  3  4  0
  2 18  4  0
  3 20  4  0
  3 22  4  0
  4 11  4  0
  4 21  4  0
  5  9  4  0
  5 16  4  0
  6 15  4  0
  6 16  4  0
  7 22  4  0
  7 26  4  0
  8 10  4  0
  8 25  4  0
  9 15  4  0
  9 17  1  0
 10 21  4  0
 11 25  4  0
 12 23  4  0
 13 20  4  0
 13 26  4  0
 14 19  4  0
 17 18  4  0
 17 24  4  0
 19 23  4  0
 20 24  4  0
 23 26  1  0
M  END
$$$$

 Created by Python create_sdf_string function

 26 30  0  0  0  0  0  0  0  0999 V2000
   10.0084   -1.8019   23.4945 C   0  0  0  0  0  0  0  0  0  0  0  0
   10.0005   -4.2520   16.5631 C   0  0  0  0  0  0  0  0  0  0  0  0
   10.2759   -4.0036   17.8845 C   0  0  0  0  0  0  0  0  0  0  0  0
    8.5652    1.5478   25.3778 N   0  0  0  0  0  0  0  0  0  0  0  0
    6.8048   -7.5457   17.8752 C   0  0  0  0  0  0  0  0  0  0  0  0
    6.1721   -8.2186   15.9886 N   0  0  0  0  0  0  0  0  0  0  0  0
   11.1764   -2.6600   19.5604 C   0  0  0  0  0  0  0  0  0  0  0  0
    9.5491   -0.6380   24.1912 C   0  0  0  0  0  0  0  0  0  0  0  0
    7.5337   -6.9256   16.9519 C   0  0  0  0  0  0  0  0  0  0  0  0
    9.6782    0.5671   23.5143 C   0  0  0  0  0  0  0  0  0  0  0  0
    8.4532    0.3482   26.0821 C   0  0  0  0  0  0  0  0  0  0  0  0
   10.4239   -1.7677   22.2230 N   0  0  0  0  0  0  0  0  0  0  0  0
    9.9468   -4.5953   20.1709 C   0  0  0  0  0  0  0  0  0  0  0  0
   10.0366   -3.0590   23.9864 N   0  0  0  0  0  0  0  0  0  0  0  0
    7.1191   -7.3636   15.7739 C   0  0  0  0  0  0  0  0  0  0  0  0
    5.9612   -8.3203   17.2732 N   0  0  0  0  0  0  0  0  0  0  0  0
    8.5296   -5.9814   17.1841 C   0  0  0  0  0  0  0  0  0  0  0  0
    9.1527   -5.2118   16.2116 C   0  0  0  0  0  0  0  0  0  0  0  0
   10.3364   -3.8368   22.9255 O   0  0  0  0  0  0  0  0  0  0  0  0
    9.6947   -4.8407   18.8534 C   0  0  0  0  0  0  0  0  0  0  0  0
    9.1596    1.7042   24.1381 C   0  0  0  0  0  0  0  0  0  0  0  0
   11.0456   -2.9774   18.2694 N   0  0  0  0  0  0  0  0  0  0  0  0
   10.4788   -3.0457   21.8593 C   0  0  0  0  0  0  0  0  0  0  0  0
    8.8693   -5.8099   18.4657 N   0  0  0  0  0  0  0  0  0  0  0  0
    8.9892   -0.7926   25.4573 C   0  0  0  0  0  0  0  0  0  0  0  0
   10.5677   -3.4462   20.5323 C   0  0  0  0  0  0  0  0  0  0  0  0
  1  8  1  0
  1 12  4  0
  1 14  4  0
  2  3  4  0
  2 18  4  0
  3 20  4  0
  3 22  4  0
  4 11  4  0
  4 21  4  0
  5  9  4  0
  5 16  4  0
  6 15  4  0
  6 16  4  0
  7 22  4  0
  7 26  4  0
  8 10  4  0
  8 25  4  0
  9 15  4  0
  9 17  1  0
 10 21  4  0
 11 25  4  0
 12 23  4  0
 13 20  4  0
 13 26  4  0
 14 19  4  0
 17 18  4  0
 17 24  4  0
 19 23  4  0
 20 24  4  0
 23 26  1  0
M  END
$$$$

 Created by Python create_sdf_string function

 26 30  0  0  0  0  0  0  0  0999 V2000
   10.0084   -1.8019   23.4945 C   0  0  0  0  0  0  0  0  0  0  0  0
   10.0005   -4.2520   16.5631 C   0  0  0  0  0  0  0  0  0  0  0  0
   10.2759   -4.0036   17.8845 C   0  0  0  0  0  0  0  0  0  0  0  0
    8.5652    1.5478   25.3778 N   0  0  0  0  0  0  0  0  0  0  0  0
    6.8048   -7.5457   17.8752 C   0  0  0  0  0  0  0  0  0  0  0  0
    6.1721   -8.2186   15.9886 N   0  0  0  0  0  0  0  0  0  0  0  0
   11.1764   -2.6600   19.5604 C   0  0  0  0  0  0  0  0  0  0  0  0
    9.5491   -0.6380   24.1912 C   0  0  0  0  0  0  0  0  0  0  0  0
    7.5337   -6.9256   16.9519 C   0  0  0  0  0  0  0  0  0  0  0  0
    9.6782    0.5671   23.5143 C   0  0  0  0  0  0  0  0  0  0  0  0
    8.4532    0.3482   26.0821 C   0  0  0  0  0  0  0  0  0  0  0  0
   10.4239   -1.7677   22.2230 N   0  0  0  0  0  0  0  0  0  0  0  0
    9.9468   -4.5953   20.1709 C   0  0  0  0  0  0  0  0  0  0  0  0
   10.0366   -3.0590   23.9864 N   0  0  0  0  0  0  0  0  0  0  0  0
    7.1191   -7.3636   15.7739 C   0  0  0  0  0  0  0  0  0  0  0  0
    5.9612   -8.3203   17.2732 N   0  0  0  0  0  0  0  0  0  0  0  0
    8.5296   -5.9814   17.1841 C   0  0  0  0  0  0  0  0  0  0  0  0
    9.1527   -5.2118   16.2116 C   0  0  0  0  0  0  0  0  0  0  0  0
   10.3364   -3.8368   22.9255 O   0  0  0  0  0  0  0  0  0  0  0  0
    9.6947   -4.8407   18.8534 C   0  0  0  0  0  0  0  0  0  0  0  0
    9.1596    1.7042   24.1381 C   0  0  0  0  0  0  0  0  0  0  0  0
   11.0456   -2.9774   18.2694 N   0  0  0  0  0  0  0  0  0  0  0  0
   10.4788   -3.0457   21.8593 C   0  0  0  0  0  0  0  0  0  0  0  0
    8.8693   -5.8099   18.4657 N   0  0  0  0  0  0  0  0  0  0  0  0
    8.9892   -0.7926   25.4573 C   0  0  0  0  0  0  0  0  0  0  0  0
   10.5677   -3.4462   20.5323 C   0  0  0  0  0  0  0  0  0  0  0  0
  1  8  1  0
  1 12  4  0
  1 14  4  0
  2  3  4  0
  2 18  4  0
  3 20  4  0
  3 22  4  0
  4 11  4  0
  4 21  4  0
  5  9  4  0
  5 16  4  0
  6 15  4  0
  6 16  4  0
  7 22  4  0
  7 26  4  0
  8 10  4  0
  8 25  4  0
  9 15  4  0
  9 17  1  0
 10 21  4  0
 11 25  4  0
 12 23  4  0
 13 20  4  0
 13 26  4  0
 14 19  4  0
 17 18  4  0
 17 24  4  0
 19 23  4  0
 20 24  4  0
 23 26  1  0
M  END
$$$$

 Created by Python create_sdf_string function

 26 30  0  0  0  0  0  0  0  0999 V2000
   10.0084   -1.8019   23.4945 C   0  0  0  0  0  0  0  0  0  0  0  0
   10.0005   -4.2520   16.5631 C   0  0  0  0  0  0  0  0  0  0  0  0
   10.2759   -4.0036   17.8845 C   0  0  0  0  0  0  0  0  0  0  0  0
    8.5652    1.5478   25.3778 N   0  0  0  0  0  0  0  0  0  0  0  0
    6.8048   -7.5457   17.8752 C   0  0  0  0  0  0  0  0  0  0  0  0
    6.1721   -8.2186   15.9886 N   0  0  0  0  0  0  0  0  0  0  0  0
   11.1764   -2.6600   19.5604 C   0  0  0  0  0  0  0  0  0  0  0  0
    9.5491   -0.6380   24.1912 C   0  0  0  0  0  0  0  0  0  0  0  0
    7.5337   -6.9256   16.9519 C   0  0  0  0  0  0  0  0  0  0  0  0
    9.6782    0.5671   23.5143 C   0  0  0  0  0  0  0  0  0  0  0  0
    8.4532    0.3482   26.0821 C   0  0  0  0  0  0  0  0  0  0  0  0
   10.4239   -1.7677   22.2230 N   0  0  0  0  0  0  0  0  0  0  0  0
    9.9468   -4.5953   20.1709 C   0  0  0  0  0  0  0  0  0  0  0  0
   10.0366   -3.0590   23.9864 N   0  0  0  0  0  0  0  0  0  0  0  0
    7.1191   -7.3636   15.7739 C   0  0  0  0  0  0  0  0  0  0  0  0
    5.9612   -8.3203   17.2732 N   0  0  0  0  0  0  0  0  0  0  0  0
    8.5296   -5.9814   17.1841 C   0  0  0  0  0  0  0  0  0  0  0  0
    9.1527   -5.2118   16.2116 C   0  0  0  0  0  0  0  0  0  0  0  0
   10.3364   -3.8368   22.9255 O   0  0  0  0  0  0  0  0  0  0  0  0
    9.6947   -4.8407   18.8534 C   0  0  0  0  0  0  0  0  0  0  0  0
    9.1596    1.7042   24.1381 C   0  0  0  0  0  0  0  0  0  0  0  0
   11.0456   -2.9774   18.2694 N   0  0  0  0  0  0  0  0  0  0  0  0
   10.4788   -3.0457   21.8593 C   0  0  0  0  0  0  0  0  0  0  0  0
    8.8693   -5.8099   18.4657 N   0  0  0  0  0  0  0  0  0  0  0  0
    8.9892   -0.7926   25.4573 C   0  0  0  0  0  0  0  0  0  0  0  0
   10.5677   -3.4462   20.5323 C   0  0  0  0  0  0  0  0  0  0  0  0
  1  8  1  0
  1 12  4  0
  1 14  4  0
  2  3  4  0
  2 18  4  0
  3 20  4  0
  3 22  4  0
  4 11  4  0
  4 21  4  0
  5  9  4  0
  5 16  4  0
  6 15  4  0
  6 16  4  0
  7 22  4  0
  7 26  4  0
  8 10  4  0
  8 25  4  0
  9 15  4  0
  9 17  1  0
 10 21  4  0
 11 25  4  0
 12 23  4  0
 13 20  4  0
 13 26  4  0
 14 19  4  0
 17 18  4  0
 17 24  4  0
 19 23  4  0
 20 24  4  0
 23 26  1  0
M  END
$$$$

 Created by Python create_sdf_string function

 26 30  0  0  0  0  0  0  0  0999 V2000
   10.0084   -1.8019   23.4945 C   0  0  0  0  0  0  0  0  0  0  0  0
   10.0005   -4.2520   16.5631 C   0  0  0  0  0  0  0  0  0  0  0  0
   10.2759   -4.0036   17.8845 C   0  0  0  0  0  0  0  0  0  0  0  0
    8.5652    1.5478   25.3778 N   0  0  0  0  0  0  0  0  0  0  0  0
    6.8048   -7.5457   17.8752 C   0  0  0  0  0  0  0  0  0  0  0  0
    6.1721   -8.2186   15.9886 N   0  0  0  0  0  0  0  0  0  0  0  0
   11.1764   -2.6600   19.5604 C   0  0  0  0  0  0  0  0  0  0  0  0
    9.5491   -0.6380   24.1912 C   0  0  0  0  0  0  0  0  0  0  0  0
    7.5337   -6.9256   16.9519 C   0  0  0  0  0  0  0  0  0  0  0  0
    9.6782    0.5671   23.5143 C   0  0  0  0  0  0  0  0  0  0  0  0
    8.4532    0.3482   26.0821 C   0  0  0  0  0  0  0  0  0  0  0  0
   10.4239   -1.7677   22.2230 N   0  0  0  0  0  0  0  0  0  0  0  0
    9.9468   -4.5953   20.1709 C   0  0  0  0  0  0  0  0  0  0  0  0
   10.0366   -3.0590   23.9864 N   0  0  0  0  0  0  0  0  0  0  0  0
    7.1191   -7.3636   15.7739 C   0  0  0  0  0  0  0  0  0  0  0  0
    5.9612   -8.3203   17.2732 N   0  0  0  0  0  0  0  0  0  0  0  0
    8.5296   -5.9814   17.1841 C   0  0  0  0  0  0  0  0  0  0  0  0
    9.1527   -5.2118   16.2116 C   0  0  0  0  0  0  0  0  0  0  0  0
   10.3364   -3.8368   22.9255 O   0  0  0  0  0  0  0  0  0  0  0  0
    9.6947   -4.8407   18.8534 C   0  0  0  0  0  0  0  0  0  0  0  0
    9.1596    1.7042   24.1381 C   0  0  0  0  0  0  0  0  0  0  0  0
   11.0456   -2.9774   18.2694 N   0  0  0  0  0  0  0  0  0  0  0  0
   10.4788   -3.0457   21.8593 C   0  0  0  0  0  0  0  0  0  0  0  0
    8.8693   -5.8099   18.4657 N   0  0  0  0  0  0  0  0  0  0  0  0
    8.9892   -0.7926   25.4573 C   0  0  0  0  0  0  0  0  0  0  0  0
   10.5677   -3.4462   20.5323 C   0  0  0  0  0  0  0  0  0  0  0  0
  1  8  1  0
  1 12  4  0
  1 14  4  0
  2  3  4  0
  2 18  4  0
  3 20  4  0
  3 22  4  0
  4 11  4  0
  4 21  4  0
  5  9  4  0
  5 16  4  0
  6 15  4  0
  6 16  4  0
  7 22  4  0
  7 26  4  0
  8 10  4  0
  8 25  4  0
  9 15  4  0
  9 17  1  0
 10 21  4  0
 11 25  4  0
 12 23  4  0
 13 20  4  0
 13 26  4  0
 14 19  4  0
 17 18  4  0
 17 24  4  0
 19 23  4  0
 20 24  4  0
 23 26  1  0
M  END
$$$$

 Created by Python create_sdf_string function

 26 30  0  0  0  0  0  0  0  0999 V2000
   10.0084   -1.8019   23.4945 C   0  0  0  0  0  0  0  0  0  0  0  0
   10.0005   -4.2520   16.5631 C   0  0  0  0  0  0  0  0  0  0  0  0
   10.2759   -4.0036   17.8845 C   0  0  0  0  0  0  0  0  0  0  0  0
    8.5652    1.5478   25.3778 N   0  0  0  0  0  0  0  0  0  0  0  0
    6.8048   -7.5457   17.8752 C   0  0  0  0  0  0  0  0  0  0  0  0
    6.1721   -8.2186   15.9886 N   0  0  0  0  0  0  0  0  0  0  0  0
   11.1764   -2.6600   19.5604 C   0  0  0  0  0  0  0  0  0  0  0  0
    9.5491   -0.6380   24.1912 C   0  0  0  0  0  0  0  0  0  0  0  0
    7.5337   -6.9256   16.9519 C   0  0  0  0  0  0  0  0  0  0  0  0
    9.6782    0.5671   23.5143 C   0  0  0  0  0  0  0  0  0  0  0  0
    8.4532    0.3482   26.0821 C   0  0  0  0  0  0  0  0  0  0  0  0
   10.4239   -1.7677   22.2230 N   0  0  0  0  0  0  0  0  0  0  0  0
    9.9468   -4.5953   20.1709 C   0  0  0  0  0  0  0  0  0  0  0  0
   10.0366   -3.0590   23.9864 N   0  0  0  0  0  0  0  0  0  0  0  0
    7.1191   -7.3636   15.7739 C   0  0  0  0  0  0  0  0  0  0  0  0
    5.9612   -8.3203   17.2732 N   0  0  0  0  0  0  0  0  0  0  0  0
    8.5296   -5.9814   17.1841 C   0  0  0  0  0  0  0  0  0  0  0  0
    9.1527   -5.2118   16.2116 C   0  0  0  0  0  0  0  0  0  0  0  0
   10.3364   -3.8368   22.9255 O   0  0  0  0  0  0  0  0  0  0  0  0
    9.6947   -4.8407   18.8534 C   0  0  0  0  0  0  0  0  0  0  0  0
    9.1596    1.7042   24.1381 C   0  0  0  0  0  0  0  0  0  0  0  0
   11.0456   -2.9774   18.2694 N   0  0  0  0  0  0  0  0  0  0  0  0
   10.4788   -3.0457   21.8593 C   0  0  0  0  0  0  0  0  0  0  0  0
    8.8693   -5.8099   18.4657 N   0  0  0  0  0  0  0  0  0  0  0  0
    8.9892   -0.7926   25.4573 C   0  0  0  0  0  0  0  0  0  0  0  0
   10.5677   -3.4462   20.5323 C   0  0  0  0  0  0  0  0  0  0  0  0
  1  8  1  0
  1 12  4  0
  1 14  4  0
  2  3  4  0
  2 18  4  0
  3 20  4  0
  3 22  4  0
  4 11  4  0
  4 21  4  0
  5  9  4  0
  5 16  4  0
  6 15  4  0
  6 16  4  0
  7 22  4  0
  7 26  4  0
  8 10  4  0
  8 25  4  0
  9 15  4  0
  9 17  1  0
 10 21  4  0
 11 25  4  0
 12 23  4  0
 13 20  4  0
 13 26  4  0
 14 19  4  0
 17 18  4  0
 17 24  4  0
 19 23  4  0
 20 24  4  0
 23 26  1  0
M  END
$$$$

 Created by Python create_sdf_string function

 26 30  0  0  0  0  0  0  0  0999 V2000
   10.0084   -1.8019   23.4945 C   0  0  0  0  0  0  0  0  0  0  0  0
   10.0005   -4.2520   16.5631 C   0  0  0  0  0  0  0  0  0  0  0  0
   10.2759   -4.0036   17.8845 C   0  0  0  0  0  0  0  0  0  0  0  0
    8.5652    1.5478   25.3778 N   0  0  0  0  0  0  0  0  0  0  0  0
    6.8048   -7.5457   17.8752 C   0  0  0  0  0  0  0  0  0  0  0  0
    6.1721   -8.2186   15.9886 N   0  0  0  0  0  0  0  0  0  0  0  0
   11.1764   -2.6600   19.5604 C   0  0  0  0  0  0  0  0  0  0  0  0
    9.5491   -0.6380   24.1912 C   0  0  0  0  0  0  0  0  0  0  0  0
    7.5337   -6.9256   16.9519 C   0  0  0  0  0  0  0  0  0  0  0  0
    9.6782    0.5671   23.5143 C   0  0  0  0  0  0  0  0  0  0  0  0
    8.4532    0.3482   26.0821 C   0  0  0  0  0  0  0  0  0  0  0  0
   10.4239   -1.7677   22.2230 N   0  0  0  0  0  0  0  0  0  0  0  0
    9.9468   -4.5953   20.1709 C   0  0  0  0  0  0  0  0  0  0  0  0
   10.0366   -3.0590   23.9864 N   0  0  0  0  0  0  0  0  0  0  0  0
    7.1191   -7.3636   15.7739 C   0  0  0  0  0  0  0  0  0  0  0  0
    5.9612   -8.3203   17.2732 N   0  0  0  0  0  0  0  0  0  0  0  0
    8.5296   -5.9814   17.1841 C   0  0  0  0  0  0  0  0  0  0  0  0
    9.1527   -5.2118   16.2116 C   0  0  0  0  0  0  0  0  0  0  0  0
   10.3364   -3.8368   22.9255 O   0  0  0  0  0  0  0  0  0  0  0  0
    9.6947   -4.8407   18.8534 C   0  0  0  0  0  0  0  0  0  0  0  0
    9.1596    1.7042   24.1381 C   0  0  0  0  0  0  0  0  0  0  0  0
   11.0456   -2.9774   18.2694 N   0  0  0  0  0  0  0  0  0  0  0  0
   10.4788   -3.0457   21.8593 C   0  0  0  0  0  0  0  0  0  0  0  0
    8.8693   -5.8099   18.4657 N   0  0  0  0  0  0  0  0  0  0  0  0
    8.9892   -0.7926   25.4573 C   0  0  0  0  0  0  0  0  0  0  0  0
   10.5677   -3.4462   20.5323 C   0  0  0  0  0  0  0  0  0  0  0  0
  1  8  1  0
  1 12  4  0
  1 14  4  0
  2  3  4  0
  2 18  4  0
  3 20  4  0
  3 22  4  0
  4 11  4  0
  4 21  4  0
  5  9  4  0
  5 16  4  0
  6 15  4  0
  6 16  4  0
  7 22  4  0
  7 26  4  0
  8 10  4  0
  8 25  4  0
  9 15  4  0
  9 17  1  0
 10 21  4  0
 11 25  4  0
 12 23  4  0
 13 20  4  0
 13 26  4  0
 14 19  4  0
 17 18  4  0
 17 24  4  0
 19 23  4  0
 20 24  4  0
 23 26  1  0
M  END
$$$$

 Created by Python create_sdf_string function

 26 30  0  0  0  0  0  0  0  0999 V2000
   10.0084   -1.8019   23.4945 C   0  0  0  0  0  0  0  0  0  0  0  0
   10.0005   -4.2520   16.5631 C   0  0  0  0  0  0  0  0  0  0  0  0
   10.2759   -4.0036   17.8845 C   0  0  0  0  0  0  0  0  0  0  0  0
    8.5652    1.5478   25.3778 N   0  0  0  0  0  0  0  0  0  0  0  0
    6.8048   -7.5457   17.8752 C   0  0  0  0  0  0  0  0  0  0  0  0
    6.1721   -8.2186   15.9886 N   0  0  0  0  0  0  0  0  0  0  0  0
   11.1764   -2.6600   19.5604 C   0  0  0  0  0  0  0  0  0  0  0  0
    9.5491   -0.6380   24.1912 C   0  0  0  0  0  0  0  0  0  0  0  0
    7.5337   -6.9256   16.9519 C   0  0  0  0  0  0  0  0  0  0  0  0
    9.6782    0.5671   23.5143 C   0  0  0  0  0  0  0  0  0  0  0  0
    8.4532    0.3482   26.0821 C   0  0  0  0  0  0  0  0  0  0  0  0
   10.4239   -1.7677   22.2230 N   0  0  0  0  0  0  0  0  0  0  0  0
    9.9468   -4.5953   20.1709 C   0  0  0  0  0  0  0  0  0  0  0  0
   10.0366   -3.0590   23.9864 N   0  0  0  0  0  0  0  0  0  0  0  0
    7.1191   -7.3636   15.7739 C   0  0  0  0  0  0  0  0  0  0  0  0
    5.9612   -8.3203   17.2732 N   0  0  0  0  0  0  0  0  0  0  0  0
    8.5296   -5.9814   17.1841 C   0  0  0  0  0  0  0  0  0  0  0  0
    9.1527   -5.2118   16.2116 C   0  0  0  0  0  0  0  0  0  0  0  0
   10.3364   -3.8368   22.9255 O   0  0  0  0  0  0  0  0  0  0  0  0
    9.6947   -4.8407   18.8534 C   0  0  0  0  0  0  0  0  0  0  0  0
    9.1596    1.7042   24.1381 C   0  0  0  0  0  0  0  0  0  0  0  0
   11.0456   -2.9774   18.2694 N   0  0  0  0  0  0  0  0  0  0  0  0
   10.4788   -3.0457   21.8593 C   0  0  0  0  0  0  0  0  0  0  0  0
    8.8693   -5.8099   18.4657 N   0  0  0  0  0  0  0  0  0  0  0  0
    8.9892   -0.7926   25.4573 C   0  0  0  0  0  0  0  0  0  0  0  0
   10.5677   -3.4462   20.5323 C   0  0  0  0  0  0  0  0  0  0  0  0
  1  8  1  0
  1 12  4  0
  1 14  4  0
  2  3  4  0
  2 18  4  0
  3 20  4  0
  3 22  4  0
  4 11  4  0
  4 21  4  0
  5  9  4  0
  5 16  4  0
  6 15  4  0
  6 16  4  0
  7 22  4  0
  7 26  4  0
  8 10  4  0
  8 25  4  0
  9 15  4  0
  9 17  1  0
 10 21  4  0
 11 25  4  0
 12 23  4  0
 13 20  4  0
 13 26  4  0
 14 19  4  0
 17 18  4  0
 17 24  4  0
 19 23  4  0
 20 24  4  0
 23 26  1  0
M  END
$$$$

 Created by Python create_sdf_string function

 26 30  0  0  0  0  0  0  0  0999 V2000
   10.0084   -1.8019   23.4945 C   0  0  0  0  0  0  0  0  0  0  0  0
   10.0005   -4.2520   16.5631 C   0  0  0  0  0  0  0  0  0  0  0  0
   10.2759   -4.0036   17.8845 C   0  0  0  0  0  0  0  0  0  0  0  0
    8.5652    1.5478   25.3778 N   0  0  0  0  0  0  0  0  0  0  0  0
    6.8048   -7.5457   17.8752 C   0  0  0  0  0  0  0  0  0  0  0  0
    6.1721   -8.2186   15.9886 N   0  0  0  0  0  0  0  0  0  0  0  0
   11.1764   -2.6600   19.5604 C   0  0  0  0  0  0  0  0  0  0  0  0
    9.5491   -0.6380   24.1912 C   0  0  0  0  0  0  0  0  0  0  0  0
    7.5337   -6.9256   16.9519 C   0  0  0  0  0  0  0  0  0  0  0  0
    9.6782    0.5671   23.5143 C   0  0  0  0  0  0  0  0  0  0  0  0
    8.4532    0.3482   26.0821 C   0  0  0  0  0  0  0  0  0  0  0  0
   10.4239   -1.7677   22.2230 N   0  0  0  0  0  0  0  0  0  0  0  0
    9.9468   -4.5953   20.1709 C   0  0  0  0  0  0  0  0  0  0  0  0
   10.0366   -3.0590   23.9864 N   0  0  0  0  0  0  0  0  0  0  0  0
    7.1191   -7.3636   15.7739 C   0  0  0  0  0  0  0  0  0  0  0  0
    5.9612   -8.3203   17.2732 N   0  0  0  0  0  0  0  0  0  0  0  0
    8.5296   -5.9814   17.1841 C   0  0  0  0  0  0  0  0  0  0  0  0
    9.1527   -5.2118   16.2116 C   0  0  0  0  0  0  0  0  0  0  0  0
   10.3364   -3.8368   22.9255 O   0  0  0  0  0  0  0  0  0  0  0  0
    9.6947   -4.8407   18.8534 C   0  0  0  0  0  0  0  0  0  0  0  0
    9.1596    1.7042   24.1381 C   0  0  0  0  0  0  0  0  0  0  0  0
   11.0456   -2.9774   18.2694 N   0  0  0  0  0  0  0  0  0  0  0  0
   10.4788   -3.0457   21.8593 C   0  0  0  0  0  0  0  0  0  0  0  0
    8.8693   -5.8099   18.4657 N   0  0  0  0  0  0  0  0  0  0  0  0
    8.9892   -0.7926   25.4573 C   0  0  0  0  0  0  0  0  0  0  0  0
   10.5677   -3.4462   20.5323 C   0  0  0  0  0  0  0  0  0  0  0  0
  1  8  1  0
  1 12  4  0
  1 14  4  0
  2  3  4  0
  2 18  4  0
  3 20  4  0
  3 22  4  0
  4 11  4  0
  4 21  4  0
  5  9  4  0
  5 16  4  0
  6 15  4  0
  6 16  4  0
  7 22  4  0
  7 26  4  0
  8 10  4  0
  8 25  4  0
  9 15  4  0
  9 17  1  0
 10 21  4  0
 11 25  4  0
 12 23  4  0
 13 20  4  0
 13 26  4  0
 14 19  4  0
 17 18  4  0
 17 24  4  0
 19 23  4  0
 20 24  4  0
 23 26  1  0
M  END
$$$$

 Created by Python create_sdf_string function

 26 30  0  0  0  0  0  0  0  0999 V2000
   10.0084   -1.8019   23.4945 C   0  0  0  0  0  0  0  0  0  0  0  0
   10.0005   -4.2520   16.5631 C   0  0  0  0  0  0  0  0  0  0  0  0
   10.2759   -4.0036   17.8845 C   0  0  0  0  0  0  0  0  0  0  0  0
    8.5652    1.5478   25.3778 N   0  0  0  0  0  0  0  0  0  0  0  0
    6.8048   -7.5457   17.8752 C   0  0  0  0  0  0  0  0  0  0  0  0
    6.1721   -8.2186   15.9886 N   0  0  0  0  0  0  0  0  0  0  0  0
   11.1764   -2.6600   19.5604 C   0  0  0  0  0  0  0  0  0  0  0  0
    9.5491   -0.6380   24.1912 C   0  0  0  0  0  0  0  0  0  0  0  0
    7.5337   -6.9256   16.9519 C   0  0  0  0  0  0  0  0  0  0  0  0
    9.6782    0.5671   23.5143 C   0  0  0  0  0  0  0  0  0  0  0  0
    8.4532    0.3482   26.0821 C   0  0  0  0  0  0  0  0  0  0  0  0
   10.4239   -1.7677   22.2230 N   0  0  0  0  0  0  0  0  0  0  0  0
    9.9468   -4.5953   20.1709 C   0  0  0  0  0  0  0  0  0  0  0  0
   10.0366   -3.0590   23.9864 N   0  0  0  0  0  0  0  0  0  0  0  0
    7.1191   -7.3636   15.7739 C   0  0  0  0  0  0  0  0  0  0  0  0
    5.9612   -8.3203   17.2732 N   0  0  0  0  0  0  0  0  0  0  0  0
    8.5296   -5.9814   17.1841 C   0  0  0  0  0  0  0  0  0  0  0  0
    9.1527   -5.2118   16.2116 C   0  0  0  0  0  0  0  0  0  0  0  0
   10.3364   -3.8368   22.9255 O   0  0  0  0  0  0  0  0  0  0  0  0
    9.6947   -4.8407   18.8534 C   0  0  0  0  0  0  0  0  0  0  0  0
    9.1596    1.7042   24.1381 C   0  0  0  0  0  0  0  0  0  0  0  0
   11.0456   -2.9774   18.2694 N   0  0  0  0  0  0  0  0  0  0  0  0
   10.4788   -3.0457   21.8593 C   0  0  0  0  0  0  0  0  0  0  0  0
    8.8693   -5.8099   18.4657 N   0  0  0  0  0  0  0  0  0  0  0  0
    8.9892   -0.7926   25.4573 C   0  0  0  0  0  0  0  0  0  0  0  0
   10.5677   -3.4462   20.5323 C   0  0  0  0  0  0  0  0  0  0  0  0
  1  8  1  0
  1 12  4  0
  1 14  4  0
  2  3  4  0
  2 18  4  0
  3 20  4  0
  3 22  4  0
  4 11  4  0
  4 21  4  0
  5  9  4  0
  5 16  4  0
  6 15  4  0
  6 16  4  0
  7 22  4  0
  7 26  4  0
  8 10  4  0
  8 25  4  0
  9 15  4  0
  9 17  1  0
 10 21  4  0
 11 25  4  0
 12 23  4  0
 13 20  4  0
 13 26  4  0
 14 19  4  0
 17 18  4  0
 17 24  4  0
 19 23  4  0
 20 24  4  0
 23 26  1  0
M  END
$$$$

 Created by Python create_sdf_string function

 26 30  0  0  0  0  0  0  0  0999 V2000
   10.0084   -1.8019   23.4945 C   0  0  0  0  0  0  0  0  0  0  0  0
   10.0005   -4.2520   16.5631 C   0  0  0  0  0  0  0  0  0  0  0  0
   10.2759   -4.0036   17.8845 C   0  0  0  0  0  0  0  0  0  0  0  0
    8.5652    1.5478   25.3778 N   0  0  0  0  0  0  0  0  0  0  0  0
    6.8048   -7.5457   17.8752 C   0  0  0  0  0  0  0  0  0  0  0  0
    6.1721   -8.2186   15.9886 N   0  0  0  0  0  0  0  0  0  0  0  0
   11.1764   -2.6600   19.5604 C   0  0  0  0  0  0  0  0  0  0  0  0
    9.5491   -0.6380   24.1912 C   0  0  0  0  0  0  0  0  0  0  0  0
    7.5337   -6.9256   16.9519 C   0  0  0  0  0  0  0  0  0  0  0  0
    9.6782    0.5671   23.5143 C   0  0  0  0  0  0  0  0  0  0  0  0
    8.4532    0.3482   26.0821 C   0  0  0  0  0  0  0  0  0  0  0  0
   10.4239   -1.7677   22.2230 N   0  0  0  0  0  0  0  0  0  0  0  0
    9.9468   -4.5953   20.1709 C   0  0  0  0  0  0  0  0  0  0  0  0
   10.0366   -3.0590   23.9864 N   0  0  0  0  0  0  0  0  0  0  0  0
    7.1191   -7.3636   15.7739 C   0  0  0  0  0  0  0  0  0  0  0  0
    5.9612   -8.3203   17.2732 N   0  0  0  0  0  0  0  0  0  0  0  0
    8.5296   -5.9814   17.1841 C   0  0  0  0  0  0  0  0  0  0  0  0
    9.1527   -5.2118   16.2116 C   0  0  0  0  0  0  0  0  0  0  0  0
   10.3364   -3.8368   22.9255 O   0  0  0  0  0  0  0  0  0  0  0  0
    9.6947   -4.8407   18.8534 C   0  0  0  0  0  0  0  0  0  0  0  0
    9.1596    1.7042   24.1381 C   0  0  0  0  0  0  0  0  0  0  0  0
   11.0456   -2.9774   18.2694 N   0  0  0  0  0  0  0  0  0  0  0  0
   10.4788   -3.0457   21.8593 C   0  0  0  0  0  0  0  0  0  0  0  0
    8.8693   -5.8099   18.4657 N   0  0  0  0  0  0  0  0  0  0  0  0
    8.9892   -0.7926   25.4573 C   0  0  0  0  0  0  0  0  0  0  0  0
   10.5677   -3.4462   20.5323 C   0  0  0  0  0  0  0  0  0  0  0  0
  1  8  1  0
  1 12  4  0
  1 14  4  0
  2  3  4  0
  2 18  4  0
  3 20  4  0
  3 22  4  0
  4 11  4  0
  4 21  4  0
  5  9  4  0
  5 16  4  0
  6 15  4  0
  6 16  4  0
  7 22  4  0
  7 26  4  0
  8 10  4  0
  8 25  4  0
  9 15  4  0
  9 17  1  0
 10 21  4  0
 11 25  4  0
 12 23  4  0
 13 20  4  0
 13 26  4  0
 14 19  4  0
 17 18  4  0
 17 24  4  0
 19 23  4  0
 20 24  4  0
 23 26  1  0
M  END
$$$$

 Created by Python create_sdf_string function

 26 30  0  0  0  0  0  0  0  0999 V2000
   10.0084   -1.8019   23.4945 C   0  0  0  0  0  0  0  0  0  0  0  0
   10.0005   -4.2520   16.5631 C   0  0  0  0  0  0  0  0  0  0  0  0
   10.2759   -4.0036   17.8845 C   0  0  0  0  0  0  0  0  0  0  0  0
    8.5652    1.5478   25.3778 N   0  0  0  0  0  0  0  0  0  0  0  0
    6.8048   -7.5457   17.8752 C   0  0  0  0  0  0  0  0  0  0  0  0
    6.1721   -8.2186   15.9886 N   0  0  0  0  0  0  0  0  0  0  0  0
   11.1764   -2.6600   19.5604 C   0  0  0  0  0  0  0  0  0  0  0  0
    9.5491   -0.6380   24.1912 C   0  0  0  0  0  0  0  0  0  0  0  0
    7.5337   -6.9256   16.9519 C   0  0  0  0  0  0  0  0  0  0  0  0
    9.6782    0.5671   23.5143 C   0  0  0  0  0  0  0  0  0  0  0  0
    8.4532    0.3482   26.0821 C   0  0  0  0  0  0  0  0  0  0  0  0
   10.4239   -1.7677   22.2230 N   0  0  0  0  0  0  0  0  0  0  0  0
    9.9468   -4.5953   20.1709 C   0  0  0  0  0  0  0  0  0  0  0  0
   10.0366   -3.0590   23.9864 N   0  0  0  0  0  0  0  0  0  0  0  0
    7.1191   -7.3636   15.7739 C   0  0  0  0  0  0  0  0  0  0  0  0
    5.9612   -8.3203   17.2732 N   0  0  0  0  0  0  0  0  0  0  0  0
    8.5296   -5.9814   17.1841 C   0  0  0  0  0  0  0  0  0  0  0  0
    9.1527   -5.2118   16.2116 C   0  0  0  0  0  0  0  0  0  0  0  0
   10.3364   -3.8368   22.9255 O   0  0  0  0  0  0  0  0  0  0  0  0
    9.6947   -4.8407   18.8534 C   0  0  0  0  0  0  0  0  0  0  0  0
    9.1596    1.7042   24.1381 C   0  0  0  0  0  0  0  0  0  0  0  0
   11.0456   -2.9774   18.2694 N   0  0  0  0  0  0  0  0  0  0  0  0
   10.4788   -3.0457   21.8593 C   0  0  0  0  0  0  0  0  0  0  0  0
    8.8693   -5.8099   18.4657 N   0  0  0  0  0  0  0  0  0  0  0  0
    8.9892   -0.7926   25.4573 C   0  0  0  0  0  0  0  0  0  0  0  0
   10.5677   -3.4462   20.5323 C   0  0  0  0  0  0  0  0  0  0  0  0
  1  8  1  0
  1 12  4  0
  1 14  4  0
  2  3  4  0
  2 18  4  0
  3 20  4  0
  3 22  4  0
  4 11  4  0
  4 21  4  0
  5  9  4  0
  5 16  4  0
  6 15  4  0
  6 16  4  0
  7 22  4  0
  7 26  4  0
  8 10  4  0
  8 25  4  0
  9 15  4  0
  9 17  1  0
 10 21  4  0
 11 25  4  0
 12 23  4  0
 13 20  4  0
 13 26  4  0
 14 19  4  0
 17 18  4  0
 17 24  4  0
 19 23  4  0
 20 24  4  0
 23 26  1  0
M  END
$$$$

 Created by Python create_sdf_string function

 26 30  0  0  0  0  0  0  0  0999 V2000
   10.0084   -1.8019   23.4945 C   0  0  0  0  0  0  0  0  0  0  0  0
   10.0005   -4.2520   16.5631 C   0  0  0  0  0  0  0  0  0  0  0  0
   10.2759   -4.0036   17.8845 C   0  0  0  0  0  0  0  0  0  0  0  0
    8.5652    1.5478   25.3778 N   0  0  0  0  0  0  0  0  0  0  0  0
    6.8048   -7.5457   17.8752 C   0  0  0  0  0  0  0  0  0  0  0  0
    6.1721   -8.2186   15.9886 N   0  0  0  0  0  0  0  0  0  0  0  0
   11.1764   -2.6600   19.5604 C   0  0  0  0  0  0  0  0  0  0  0  0
    9.5491   -0.6380   24.1912 C   0  0  0  0  0  0  0  0  0  0  0  0
    7.5337   -6.9256   16.9519 C   0  0  0  0  0  0  0  0  0  0  0  0
    9.6782    0.5671   23.5143 C   0  0  0  0  0  0  0  0  0  0  0  0
    8.4532    0.3482   26.0821 C   0  0  0  0  0  0  0  0  0  0  0  0
   10.4239   -1.7677   22.2230 N   0  0  0  0  0  0  0  0  0  0  0  0
    9.9468   -4.5953   20.1709 C   0  0  0  0  0  0  0  0  0  0  0  0
   10.0366   -3.0590   23.9864 N   0  0  0  0  0  0  0  0  0  0  0  0
    7.1191   -7.3636   15.7739 C   0  0  0  0  0  0  0  0  0  0  0  0
    5.9612   -8.3203   17.2732 N   0  0  0  0  0  0  0  0  0  0  0  0
    8.5296   -5.9814   17.1841 C   0  0  0  0  0  0  0  0  0  0  0  0
    9.1527   -5.2118   16.2116 C   0  0  0  0  0  0  0  0  0  0  0  0
   10.3364   -3.8368   22.9255 O   0  0  0  0  0  0  0  0  0  0  0  0
    9.6947   -4.8407   18.8534 C   0  0  0  0  0  0  0  0  0  0  0  0
    9.1596    1.7042   24.1381 C   0  0  0  0  0  0  0  0  0  0  0  0
   11.0456   -2.9774   18.2694 N   0  0  0  0  0  0  0  0  0  0  0  0
   10.4788   -3.0457   21.8593 C   0  0  0  0  0  0  0  0  0  0  0  0
    8.8693   -5.8099   18.4657 N   0  0  0  0  0  0  0  0  0  0  0  0
    8.9892   -0.7926   25.4573 C   0  0  0  0  0  0  0  0  0  0  0  0
   10.5677   -3.4462   20.5323 C   0  0  0  0  0  0  0  0  0  0  0  0
  1  8  1  0
  1 12  4  0
  1 14  4  0
  2  3  4  0
  2 18  4  0
  3 20  4  0
  3 22  4  0
  4 11  4  0
  4 21  4  0
  5  9  4  0
  5 16  4  0
  6 15  4  0
  6 16  4  0
  7 22  4  0
  7 26  4  0
  8 10  4  0
  8 25  4  0
  9 15  4  0
  9 17  1  0
 10 21  4  0
 11 25  4  0
 12 23  4  0
 13 20  4  0
 13 26  4  0
 14 19  4  0
 17 18  4  0
 17 24  4  0
 19 23  4  0
 20 24  4  0
 23 26  1  0
M  END
$$$$

 Created by Python create_sdf_string function

 26 30  0  0  0  0  0  0  0  0999 V2000
   10.0084   -1.8019   23.4945 C   0  0  0  0  0  0  0  0  0  0  0  0
   10.0005   -4.2520   16.5631 C   0  0  0  0  0  0  0  0  0  0  0  0
   10.2759   -4.0036   17.8845 C   0  0  0  0  0  0  0  0  0  0  0  0
    8.5652    1.5478   25.3778 N   0  0  0  0  0  0  0  0  0  0  0  0
    6.8048   -7.5457   17.8752 C   0  0  0  0  0  0  0  0  0  0  0  0
    6.1721   -8.2186   15.9886 N   0  0  0  0  0  0  0  0  0  0  0  0
   11.1764   -2.6600   19.5604 C   0  0  0  0  0  0  0  0  0  0  0  0
    9.5491   -0.6380   24.1912 C   0  0  0  0  0  0  0  0  0  0  0  0
    7.5337   -6.9256   16.9519 C   0  0  0  0  0  0  0  0  0  0  0  0
    9.6782    0.5671   23.5143 C   0  0  0  0  0  0  0  0  0  0  0  0
    8.4532    0.3482   26.0821 C   0  0  0  0  0  0  0  0  0  0  0  0
   10.4239   -1.7677   22.2230 N   0  0  0  0  0  0  0  0  0  0  0  0
    9.9468   -4.5953   20.1709 C   0  0  0  0  0  0  0  0  0  0  0  0
   10.0366   -3.0590   23.9864 N   0  0  0  0  0  0  0  0  0  0  0  0
    7.1191   -7.3636   15.7739 C   0  0  0  0  0  0  0  0  0  0  0  0
    5.9612   -8.3203   17.2732 N   0  0  0  0  0  0  0  0  0  0  0  0
    8.5296   -5.9814   17.1841 C   0  0  0  0  0  0  0  0  0  0  0  0
    9.1527   -5.2118   16.2116 C   0  0  0  0  0  0  0  0  0  0  0  0
   10.3364   -3.8368   22.9255 O   0  0  0  0  0  0  0  0  0  0  0  0
    9.6947   -4.8407   18.8534 C   0  0  0  0  0  0  0  0  0  0  0  0
    9.1596    1.7042   24.1381 C   0  0  0  0  0  0  0  0  0  0  0  0
   11.0456   -2.9774   18.2694 N   0  0  0  0  0  0  0  0  0  0  0  0
   10.4788   -3.0457   21.8593 C   0  0  0  0  0  0  0  0  0  0  0  0
    8.8693   -5.8099   18.4657 N   0  0  0  0  0  0  0  0  0  0  0  0
    8.9892   -0.7926   25.4573 C   0  0  0  0  0  0  0  0  0  0  0  0
   10.5677   -3.4462   20.5323 C   0  0  0  0  0  0  0  0  0  0  0  0
  1  8  1  0
  1 12  4  0
  1 14  4  0
  2  3  4  0
  2 18  4  0
  3 20  4  0
  3 22  4  0
  4 11  4  0
  4 21  4  0
  5  9  4  0
  5 16  4  0
  6 15  4  0
  6 16  4  0
  7 22  4  0
  7 26  4  0
  8 10  4  0
  8 25  4  0
  9 15  4  0
  9 17  1  0
 10 21  4  0
 11 25  4  0
 12 23  4  0
 13 20  4  0
 13 26  4  0
 14 19  4  0
 17 18  4  0
 17 24  4  0
 19 23  4  0
 20 24  4  0
 23 26  1  0
M  END
$$$$

 Created by Python create_sdf_string function

 26 30  0  0  0  0  0  0  0  0999 V2000
   10.0084   -1.8019   23.4945 C   0  0  0  0  0  0  0  0  0  0  0  0
   10.0005   -4.2520   16.5631 C   0  0  0  0  0  0  0  0  0  0  0  0
   10.2759   -4.0036   17.8845 C   0  0  0  0  0  0  0  0  0  0  0  0
    8.5652    1.5478   25.3778 N   0  0  0  0  0  0  0  0  0  0  0  0
    6.8048   -7.5457   17.8752 C   0  0  0  0  0  0  0  0  0  0  0  0
    6.1721   -8.2186   15.9886 N   0  0  0  0  0  0  0  0  0  0  0  0
   11.1764   -2.6600   19.5604 C   0  0  0  0  0  0  0  0  0  0  0  0
    9.5491   -0.6380   24.1912 C   0  0  0  0  0  0  0  0  0  0  0  0
    7.5337   -6.9256   16.9519 C   0  0  0  0  0  0  0  0  0  0  0  0
    9.6782    0.5671   23.5143 C   0  0  0  0  0  0  0  0  0  0  0  0
    8.4532    0.3482   26.0821 C   0  0  0  0  0  0  0  0  0  0  0  0
   10.4239   -1.7677   22.2230 N   0  0  0  0  0  0  0  0  0  0  0  0
    9.9468   -4.5953   20.1709 C   0  0  0  0  0  0  0  0  0  0  0  0
   10.0366   -3.0590   23.9864 N   0  0  0  0  0  0  0  0  0  0  0  0
    7.1191   -7.3636   15.7739 C   0  0  0  0  0  0  0  0  0  0  0  0
    5.9612   -8.3203   17.2732 N   0  0  0  0  0  0  0  0  0  0  0  0
    8.5296   -5.9814   17.1841 C   0  0  0  0  0  0  0  0  0  0  0  0
    9.1527   -5.2118   16.2116 C   0  0  0  0  0  0  0  0  0  0  0  0
   10.3364   -3.8368   22.9255 O   0  0  0  0  0  0  0  0  0  0  0  0
    9.6947   -4.8407   18.8534 C   0  0  0  0  0  0  0  0  0  0  0  0
    9.1596    1.7042   24.1381 C   0  0  0  0  0  0  0  0  0  0  0  0
   11.0456   -2.9774   18.2694 N   0  0  0  0  0  0  0  0  0  0  0  0
   10.4788   -3.0457   21.8593 C   0  0  0  0  0  0  0  0  0  0  0  0
    8.8693   -5.8099   18.4657 N   0  0  0  0  0  0  0  0  0  0  0  0
    8.9892   -0.7926   25.4573 C   0  0  0  0  0  0  0  0  0  0  0  0
   10.5677   -3.4462   20.5323 C   0  0  0  0  0  0  0  0  0  0  0  0
  1  8  1  0
  1 12  4  0
  1 14  4  0
  2  3  4  0
  2 18  4  0
  3 20  4  0
  3 22  4  0
  4 11  4  0
  4 21  4  0
  5  9  4  0
  5 16  4  0
  6 15  4  0
  6 16  4  0
  7 22  4  0
  7 26  4  0
  8 10  4  0
  8 25  4  0
  9 15  4  0
  9 17  1  0
 10 21  4  0
 11 25  4  0
 12 23  4  0
 13 20  4  0
 13 26  4  0
 14 19  4  0
 17 18  4  0
 17 24  4  0
 19 23  4  0
 20 24  4  0
 23 26  1  0
M  END
$$$$

 Created by Python create_sdf_string function

 26 30  0  0  0  0  0  0  0  0999 V2000
   10.0084   -1.8019   23.4945 C   0  0  0  0  0  0  0  0  0  0  0  0
   10.0005   -4.2520   16.5631 C   0  0  0  0  0  0  0  0  0  0  0  0
   10.2759   -4.0036   17.8845 C   0  0  0  0  0  0  0  0  0  0  0  0
    8.5652    1.5478   25.3778 N   0  0  0  0  0  0  0  0  0  0  0  0
    6.8048   -7.5457   17.8752 C   0  0  0  0  0  0  0  0  0  0  0  0
    6.1721   -8.2186   15.9886 N   0  0  0  0  0  0  0  0  0  0  0  0
   11.1764   -2.6600   19.5604 C   0  0  0  0  0  0  0  0  0  0  0  0
    9.5491   -0.6380   24.1912 C   0  0  0  0  0  0  0  0  0  0  0  0
    7.5337   -6.9256   16.9519 C   0  0  0  0  0  0  0  0  0  0  0  0
    9.6782    0.5671   23.5143 C   0  0  0  0  0  0  0  0  0  0  0  0
    8.4532    0.3482   26.0821 C   0  0  0  0  0  0  0  0  0  0  0  0
   10.4239   -1.7677   22.2230 N   0  0  0  0  0  0  0  0  0  0  0  0
    9.9468   -4.5953   20.1709 C   0  0  0  0  0  0  0  0  0  0  0  0
   10.0366   -3.0590   23.9864 N   0  0  0  0  0  0  0  0  0  0  0  0
    7.1191   -7.3636   15.7739 C   0  0  0  0  0  0  0  0  0  0  0  0
    5.9612   -8.3203   17.2732 N   0  0  0  0  0  0  0  0  0  0  0  0
    8.5296   -5.9814   17.1841 C   0  0  0  0  0  0  0  0  0  0  0  0
    9.1527   -5.2118   16.2116 C   0  0  0  0  0  0  0  0  0  0  0  0
   10.3364   -3.8368   22.9255 O   0  0  0  0  0  0  0  0  0  0  0  0
    9.6947   -4.8407   18.8534 C   0  0  0  0  0  0  0  0  0  0  0  0
    9.1596    1.7042   24.1381 C   0  0  0  0  0  0  0  0  0  0  0  0
   11.0456   -2.9774   18.2694 N   0  0  0  0  0  0  0  0  0  0  0  0
   10.4788   -3.0457   21.8593 C   0  0  0  0  0  0  0  0  0  0  0  0
    8.8693   -5.8099   18.4657 N   0  0  0  0  0  0  0  0  0  0  0  0
    8.9892   -0.7926   25.4573 C   0  0  0  0  0  0  0  0  0  0  0  0
   10.5677   -3.4462   20.5323 C   0  0  0  0  0  0  0  0  0  0  0  0
  1  8  1  0
  1 12  4  0
  1 14  4  0
  2  3  4  0
  2 18  4  0
  3 20  4  0
  3 22  4  0
  4 11  4  0
  4 21  4  0
  5  9  4  0
  5 16  4  0
  6 15  4  0
  6 16  4  0
  7 22  4  0
  7 26  4  0
  8 10  4  0
  8 25  4  0
  9 15  4  0
  9 17  1  0
 10 21  4  0
 11 25  4  0
 12 23  4  0
 13 20  4  0
 13 26  4  0
 14 19  4  0
 17 18  4  0
 17 24  4  0
 19 23  4  0
 20 24  4  0
 23 26  1  0
M  END
$$$$

 Created by Python create_sdf_string function

 26 30  0  0  0  0  0  0  0  0999 V2000
   10.0084   -1.8019   23.4945 C   0  0  0  0  0  0  0  0  0  0  0  0
   10.0005   -4.2520   16.5631 C   0  0  0  0  0  0  0  0  0  0  0  0
   10.2759   -4.0036   17.8845 C   0  0  0  0  0  0  0  0  0  0  0  0
    8.5652    1.5478   25.3778 N   0  0  0  0  0  0  0  0  0  0  0  0
    6.8048   -7.5457   17.8752 C   0  0  0  0  0  0  0  0  0  0  0  0
    6.1721   -8.2186   15.9886 N   0  0  0  0  0  0  0  0  0  0  0  0
   11.1764   -2.6600   19.5604 C   0  0  0  0  0  0  0  0  0  0  0  0
    9.5491   -0.6380   24.1912 C   0  0  0  0  0  0  0  0  0  0  0  0
    7.5337   -6.9256   16.9519 C   0  0  0  0  0  0  0  0  0  0  0  0
    9.6782    0.5671   23.5143 C   0  0  0  0  0  0  0  0  0  0  0  0
    8.4532    0.3482   26.0821 C   0  0  0  0  0  0  0  0  0  0  0  0
   10.4239   -1.7677   22.2230 N   0  0  0  0  0  0  0  0  0  0  0  0
    9.9468   -4.5953   20.1709 C   0  0  0  0  0  0  0  0  0  0  0  0
   10.0366   -3.0590   23.9864 N   0  0  0  0  0  0  0  0  0  0  0  0
    7.1191   -7.3636   15.7739 C   0  0  0  0  0  0  0  0  0  0  0  0
    5.9612   -8.3203   17.2732 N   0  0  0  0  0  0  0  0  0  0  0  0
    8.5296   -5.9814   17.1841 C   0  0  0  0  0  0  0  0  0  0  0  0
    9.1527   -5.2118   16.2116 C   0  0  0  0  0  0  0  0  0  0  0  0
   10.3364   -3.8368   22.9255 O   0  0  0  0  0  0  0  0  0  0  0  0
    9.6947   -4.8407   18.8534 C   0  0  0  0  0  0  0  0  0  0  0  0
    9.1596    1.7042   24.1381 C   0  0  0  0  0  0  0  0  0  0  0  0
   11.0456   -2.9774   18.2694 N   0  0  0  0  0  0  0  0  0  0  0  0
   10.4788   -3.0457   21.8593 C   0  0  0  0  0  0  0  0  0  0  0  0
    8.8693   -5.8099   18.4657 N   0  0  0  0  0  0  0  0  0  0  0  0
    8.9892   -0.7926   25.4573 C   0  0  0  0  0  0  0  0  0  0  0  0
   10.5677   -3.4462   20.5323 C   0  0  0  0  0  0  0  0  0  0  0  0
  1  8  1  0
  1 12  4  0
  1 14  4  0
  2  3  4  0
  2 18  4  0
  3 20  4  0
  3 22  4  0
  4 11  4  0
  4 21  4  0
  5  9  4  0
  5 16  4  0
  6 15  4  0
  6 16  4  0
  7 22  4  0
  7 26  4  0
  8 10  4  0
  8 25  4  0
  9 15  4  0
  9 17  1  0
 10 21  4  0
 11 25  4  0
 12 23  4  0
 13 20  4  0
 13 26  4  0
 14 19  4  0
 17 18  4  0
 17 24  4  0
 19 23  4  0
 20 24  4  0
 23 26  1  0
M  END
$$$$

 Created by Python create_sdf_string function

 26 30  0  0  0  0  0  0  0  0999 V2000
   10.0084   -1.8019   23.4945 C   0  0  0  0  0  0  0  0  0  0  0  0
   10.0005   -4.2520   16.5631 C   0  0  0  0  0  0  0  0  0  0  0  0
   10.2759   -4.0036   17.8845 C   0  0  0  0  0  0  0  0  0  0  0  0
    8.5652    1.5478   25.3778 N   0  0  0  0  0  0  0  0  0  0  0  0
    6.8048   -7.5457   17.8752 C   0  0  0  0  0  0  0  0  0  0  0  0
    6.1721   -8.2186   15.9886 N   0  0  0  0  0  0  0  0  0  0  0  0
   11.1764   -2.6600   19.5604 C   0  0  0  0  0  0  0  0  0  0  0  0
    9.5491   -0.6380   24.1912 C   0  0  0  0  0  0  0  0  0  0  0  0
    7.5337   -6.9256   16.9519 C   0  0  0  0  0  0  0  0  0  0  0  0
    9.6782    0.5671   23.5143 C   0  0  0  0  0  0  0  0  0  0  0  0
    8.4532    0.3482   26.0821 C   0  0  0  0  0  0  0  0  0  0  0  0
   10.4239   -1.7677   22.2230 N   0  0  0  0  0  0  0  0  0  0  0  0
    9.9468   -4.5953   20.1709 C   0  0  0  0  0  0  0  0  0  0  0  0
   10.0366   -3.0590   23.9864 N   0  0  0  0  0  0  0  0  0  0  0  0
    7.1191   -7.3636   15.7739 C   0  0  0  0  0  0  0  0  0  0  0  0
    5.9612   -8.3203   17.2732 N   0  0  0  0  0  0  0  0  0  0  0  0
    8.5296   -5.9814   17.1841 C   0  0  0  0  0  0  0  0  0  0  0  0
    9.1527   -5.2118   16.2116 C   0  0  0  0  0  0  0  0  0  0  0  0
   10.3364   -3.8368   22.9255 O   0  0  0  0  0  0  0  0  0  0  0  0
    9.6947   -4.8407   18.8534 C   0  0  0  0  0  0  0  0  0  0  0  0
    9.1596    1.7042   24.1381 C   0  0  0  0  0  0  0  0  0  0  0  0
   11.0456   -2.9774   18.2694 N   0  0  0  0  0  0  0  0  0  0  0  0
   10.4788   -3.0457   21.8593 C   0  0  0  0  0  0  0  0  0  0  0  0
    8.8693   -5.8099   18.4657 N   0  0  0  0  0  0  0  0  0  0  0  0
    8.9892   -0.7926   25.4573 C   0  0  0  0  0  0  0  0  0  0  0  0
   10.5677   -3.4462   20.5323 C   0  0  0  0  0  0  0  0  0  0  0  0
  1  8  1  0
  1 12  4  0
  1 14  4  0
  2  3  4  0
  2 18  4  0
  3 20  4  0
  3 22  4  0
  4 11  4  0
  4 21  4  0
  5  9  4  0
  5 16  4  0
  6 15  4  0
  6 16  4  0
  7 22  4  0
  7 26  4  0
  8 10  4  0
  8 25  4  0
  9 15  4  0
  9 17  1  0
 10 21  4  0
 11 25  4  0
 12 23  4  0
 13 20  4  0
 13 26  4  0
 14 19  4  0
 17 18  4  0
 17 24  4  0
 19 23  4  0
 20 24  4  0
 23 26  1  0
M  END
$$$$

 Created by Python create_sdf_string function

 26 30  0  0  0  0  0  0  0  0999 V2000
   10.0084   -1.8019   23.4945 C   0  0  0  0  0  0  0  0  0  0  0  0
   10.0005   -4.2520   16.5631 C   0  0  0  0  0  0  0  0  0  0  0  0
   10.2759   -4.0036   17.8845 C   0  0  0  0  0  0  0  0  0  0  0  0
    8.5652    1.5478   25.3778 N   0  0  0  0  0  0  0  0  0  0  0  0
    6.8048   -7.5457   17.8752 C   0  0  0  0  0  0  0  0  0  0  0  0
    6.1721   -8.2186   15.9886 N   0  0  0  0  0  0  0  0  0  0  0  0
   11.1764   -2.6600   19.5604 C   0  0  0  0  0  0  0  0  0  0  0  0
    9.5491   -0.6380   24.1912 C   0  0  0  0  0  0  0  0  0  0  0  0
    7.5337   -6.9256   16.9519 C   0  0  0  0  0  0  0  0  0  0  0  0
    9.6782    0.5671   23.5143 C   0  0  0  0  0  0  0  0  0  0  0  0
    8.4532    0.3482   26.0821 C   0  0  0  0  0  0  0  0  0  0  0  0
   10.4239   -1.7677   22.2230 N   0  0  0  0  0  0  0  0  0  0  0  0
    9.9468   -4.5953   20.1709 C   0  0  0  0  0  0  0  0  0  0  0  0
   10.0366   -3.0590   23.9864 N   0  0  0  0  0  0  0  0  0  0  0  0
    7.1191   -7.3636   15.7739 C   0  0  0  0  0  0  0  0  0  0  0  0
    5.9612   -8.3203   17.2732 N   0  0  0  0  0  0  0  0  0  0  0  0
    8.5296   -5.9814   17.1841 C   0  0  0  0  0  0  0  0  0  0  0  0
    9.1527   -5.2118   16.2116 C   0  0  0  0  0  0  0  0  0  0  0  0
   10.3364   -3.8368   22.9255 O   0  0  0  0  0  0  0  0  0  0  0  0
    9.6947   -4.8407   18.8534 C   0  0  0  0  0  0  0  0  0  0  0  0
    9.1596    1.7042   24.1381 C   0  0  0  0  0  0  0  0  0  0  0  0
   11.0456   -2.9774   18.2694 N   0  0  0  0  0  0  0  0  0  0  0  0
   10.4788   -3.0457   21.8593 C   0  0  0  0  0  0  0  0  0  0  0  0
    8.8693   -5.8099   18.4657 N   0  0  0  0  0  0  0  0  0  0  0  0
    8.9892   -0.7926   25.4573 C   0  0  0  0  0  0  0  0  0  0  0  0
   10.5677   -3.4462   20.5323 C   0  0  0  0  0  0  0  0  0  0  0  0
  1  8  1  0
  1 12  4  0
  1 14  4  0
  2  3  4  0
  2 18  4  0
  3 20  4  0
  3 22  4  0
  4 11  4  0
  4 21  4  0
  5  9  4  0
  5 16  4  0
  6 15  4  0
  6 16  4  0
  7 22  4  0
  7 26  4  0
  8 10  4  0
  8 25  4  0
  9 15  4  0
  9 17  1  0
 10 21  4  0
 11 25  4  0
 12 23  4  0
 13 20  4  0
 13 26  4  0
 14 19  4  0
 17 18  4  0
 17 24  4  0
 19 23  4  0
 20 24  4  0
 23 26  1  0
M  END
$$$$

 Created by Python create_sdf_string function

 26 30  0  0  0  0  0  0  0  0999 V2000
   10.0084   -1.8019   23.4945 C   0  0  0  0  0  0  0  0  0  0  0  0
   10.0005   -4.2520   16.5631 C   0  0  0  0  0  0  0  0  0  0  0  0
   10.2759   -4.0036   17.8845 C   0  0  0  0  0  0  0  0  0  0  0  0
    8.5652    1.5478   25.3778 N   0  0  0  0  0  0  0  0  0  0  0  0
    6.8048   -7.5457   17.8752 C   0  0  0  0  0  0  0  0  0  0  0  0
    6.1721   -8.2186   15.9886 N   0  0  0  0  0  0  0  0  0  0  0  0
   11.1764   -2.6600   19.5604 C   0  0  0  0  0  0  0  0  0  0  0  0
    9.5491   -0.6380   24.1912 C   0  0  0  0  0  0  0  0  0  0  0  0
    7.5337   -6.9256   16.9519 C   0  0  0  0  0  0  0  0  0  0  0  0
    9.6782    0.5671   23.5143 C   0  0  0  0  0  0  0  0  0  0  0  0
    8.4532    0.3482   26.0821 C   0  0  0  0  0  0  0  0  0  0  0  0
   10.4239   -1.7677   22.2230 N   0  0  0  0  0  0  0  0  0  0  0  0
    9.9468   -4.5953   20.1709 C   0  0  0  0  0  0  0  0  0  0  0  0
   10.0366   -3.0590   23.9864 N   0  0  0  0  0  0  0  0  0  0  0  0
    7.1191   -7.3636   15.7739 C   0  0  0  0  0  0  0  0  0  0  0  0
    5.9612   -8.3203   17.2732 N   0  0  0  0  0  0  0  0  0  0  0  0
    8.5296   -5.9814   17.1841 C   0  0  0  0  0  0  0  0  0  0  0  0
    9.1527   -5.2118   16.2116 C   0  0  0  0  0  0  0  0  0  0  0  0
   10.3364   -3.8368   22.9255 O   0  0  0  0  0  0  0  0  0  0  0  0
    9.6947   -4.8407   18.8534 C   0  0  0  0  0  0  0  0  0  0  0  0
    9.1596    1.7042   24.1381 C   0  0  0  0  0  0  0  0  0  0  0  0
   11.0456   -2.9774   18.2694 N   0  0  0  0  0  0  0  0  0  0  0  0
   10.4788   -3.0457   21.8593 C   0  0  0  0  0  0  0  0  0  0  0  0
    8.8693   -5.8099   18.4657 N   0  0  0  0  0  0  0  0  0  0  0  0
    8.9892   -0.7926   25.4573 C   0  0  0  0  0  0  0  0  0  0  0  0
   10.5677   -3.4462   20.5323 C   0  0  0  0  0  0  0  0  0  0  0  0
  1  8  1  0
  1 12  4  0
  1 14  4  0
  2  3  4  0
  2 18  4  0
  3 20  4  0
  3 22  4  0
  4 11  4  0
  4 21  4  0
  5  9  4  0
  5 16  4  0
  6 15  4  0
  6 16  4  0
  7 22  4  0
  7 26  4  0
  8 10  4  0
  8 25  4  0
  9 15  4  0
  9 17  1  0
 10 21  4  0
 11 25  4  0
 12 23  4  0
 13 20  4  0
 13 26  4  0
 14 19  4  0
 17 18  4  0
 17 24  4  0
 19 23  4  0
 20 24  4  0
 23 26  1  0
M  END
$$$$

 Created by Python create_sdf_string function

 26 30  0  0  0  0  0  0  0  0999 V2000
   10.0084   -1.8019   23.4945 C   0  0  0  0  0  0  0  0  0  0  0  0
   10.0005   -4.2520   16.5631 C   0  0  0  0  0  0  0  0  0  0  0  0
   10.2759   -4.0036   17.8845 C   0  0  0  0  0  0  0  0  0  0  0  0
    8.5652    1.5478   25.3778 N   0  0  0  0  0  0  0  0  0  0  0  0
    6.8048   -7.5457   17.8752 C   0  0  0  0  0  0  0  0  0  0  0  0
    6.1721   -8.2186   15.9886 N   0  0  0  0  0  0  0  0  0  0  0  0
   11.1764   -2.6600   19.5604 C   0  0  0  0  0  0  0  0  0  0  0  0
    9.5491   -0.6380   24.1912 C   0  0  0  0  0  0  0  0  0  0  0  0
    7.5337   -6.9256   16.9519 C   0  0  0  0  0  0  0  0  0  0  0  0
    9.6782    0.5671   23.5143 C   0  0  0  0  0  0  0  0  0  0  0  0
    8.4532    0.3482   26.0821 C   0  0  0  0  0  0  0  0  0  0  0  0
   10.4239   -1.7677   22.2230 N   0  0  0  0  0  0  0  0  0  0  0  0
    9.9468   -4.5953   20.1709 C   0  0  0  0  0  0  0  0  0  0  0  0
   10.0366   -3.0590   23.9864 N   0  0  0  0  0  0  0  0  0  0  0  0
    7.1191   -7.3636   15.7739 C   0  0  0  0  0  0  0  0  0  0  0  0
    5.9612   -8.3203   17.2732 N   0  0  0  0  0  0  0  0  0  0  0  0
    8.5296   -5.9814   17.1841 C   0  0  0  0  0  0  0  0  0  0  0  0
    9.1527   -5.2118   16.2116 C   0  0  0  0  0  0  0  0  0  0  0  0
   10.3364   -3.8368   22.9255 O   0  0  0  0  0  0  0  0  0  0  0  0
    9.6947   -4.8407   18.8534 C   0  0  0  0  0  0  0  0  0  0  0  0
    9.1596    1.7042   24.1381 C   0  0  0  0  0  0  0  0  0  0  0  0
   11.0456   -2.9774   18.2694 N   0  0  0  0  0  0  0  0  0  0  0  0
   10.4788   -3.0457   21.8593 C   0  0  0  0  0  0  0  0  0  0  0  0
    8.8693   -5.8099   18.4657 N   0  0  0  0  0  0  0  0  0  0  0  0
    8.9892   -0.7926   25.4573 C   0  0  0  0  0  0  0  0  0  0  0  0
   10.5677   -3.4462   20.5323 C   0  0  0  0  0  0  0  0  0  0  0  0
  1  8  1  0
  1 12  4  0
  1 14  4  0
  2  3  4  0
  2 18  4  0
  3 20  4  0
  3 22  4  0
  4 11  4  0
  4 21  4  0
  5  9  4  0
  5 16  4  0
  6 15  4  0
  6 16  4  0
  7 22  4  0
  7 26  4  0
  8 10  4  0
  8 25  4  0
  9 15  4  0
  9 17  1  0
 10 21  4  0
 11 25  4  0
 12 23  4  0
 13 20  4  0
 13 26  4  0
 14 19  4  0
 17 18  4  0
 17 24  4  0
 19 23  4  0
 20 24  4  0
 23 26  1  0
M  END
$$$$

 Created by Python create_sdf_string function

 26 30  0  0  0  0  0  0  0  0999 V2000
   10.0084   -1.8019   23.4945 C   0  0  0  0  0  0  0  0  0  0  0  0
   10.0005   -4.2520   16.5631 C   0  0  0  0  0  0  0  0  0  0  0  0
   10.2759   -4.0036   17.8845 C   0  0  0  0  0  0  0  0  0  0  0  0
    8.5652    1.5478   25.3778 N   0  0  0  0  0  0  0  0  0  0  0  0
    6.8048   -7.5457   17.8752 C   0  0  0  0  0  0  0  0  0  0  0  0
    6.1721   -8.2186   15.9886 N   0  0  0  0  0  0  0  0  0  0  0  0
   11.1764   -2.6600   19.5604 C   0  0  0  0  0  0  0  0  0  0  0  0
    9.5491   -0.6380   24.1912 C   0  0  0  0  0  0  0  0  0  0  0  0
    7.5337   -6.9256   16.9519 C   0  0  0  0  0  0  0  0  0  0  0  0
    9.6782    0.5671   23.5143 C   0  0  0  0  0  0  0  0  0  0  0  0
    8.4532    0.3482   26.0821 C   0  0  0  0  0  0  0  0  0  0  0  0
   10.4239   -1.7677   22.2230 N   0  0  0  0  0  0  0  0  0  0  0  0
    9.9468   -4.5953   20.1709 C   0  0  0  0  0  0  0  0  0  0  0  0
   10.0366   -3.0590   23.9864 N   0  0  0  0  0  0  0  0  0  0  0  0
    7.1191   -7.3636   15.7739 C   0  0  0  0  0  0  0  0  0  0  0  0
    5.9612   -8.3203   17.2732 N   0  0  0  0  0  0  0  0  0  0  0  0
    8.5296   -5.9814   17.1841 C   0  0  0  0  0  0  0  0  0  0  0  0
    9.1527   -5.2118   16.2116 C   0  0  0  0  0  0  0  0  0  0  0  0
   10.3364   -3.8368   22.9255 O   0  0  0  0  0  0  0  0  0  0  0  0
    9.6947   -4.8407   18.8534 C   0  0  0  0  0  0  0  0  0  0  0  0
    9.1596    1.7042   24.1381 C   0  0  0  0  0  0  0  0  0  0  0  0
   11.0456   -2.9774   18.2694 N   0  0  0  0  0  0  0  0  0  0  0  0
   10.4788   -3.0457   21.8593 C   0  0  0  0  0  0  0  0  0  0  0  0
    8.8693   -5.8099   18.4657 N   0  0  0  0  0  0  0  0  0  0  0  0
    8.9892   -0.7926   25.4573 C   0  0  0  0  0  0  0  0  0  0  0  0
   10.5677   -3.4462   20.5323 C   0  0  0  0  0  0  0  0  0  0  0  0
  1  8  1  0
  1 12  4  0
  1 14  4  0
  2  3  4  0
  2 18  4  0
  3 20  4  0
  3 22  4  0
  4 11  4  0
  4 21  4  0
  5  9  4  0
  5 16  4  0
  6 15  4  0
  6 16  4  0
  7 22  4  0
  7 26  4  0
  8 10  4  0
  8 25  4  0
  9 15  4  0
  9 17  1  0
 10 21  4  0
 11 25  4  0
 12 23  4  0
 13 20  4  0
 13 26  4  0
 14 19  4  0
 17 18  4  0
 17 24  4  0
 19 23  4  0
 20 24  4  0
 23 26  1  0
M  END
$$$$

 Created by Python create_sdf_string function

 26 30  0  0  0  0  0  0  0  0999 V2000
   10.0084   -1.8019   23.4945 C   0  0  0  0  0  0  0  0  0  0  0  0
   10.0005   -4.2520   16.5631 C   0  0  0  0  0  0  0  0  0  0  0  0
   10.2759   -4.0036   17.8845 C   0  0  0  0  0  0  0  0  0  0  0  0
    8.5652    1.5478   25.3778 N   0  0  0  0  0  0  0  0  0  0  0  0
    6.8048   -7.5457   17.8752 C   0  0  0  0  0  0  0  0  0  0  0  0
    6.1721   -8.2186   15.9886 N   0  0  0  0  0  0  0  0  0  0  0  0
   11.1764   -2.6600   19.5604 C   0  0  0  0  0  0  0  0  0  0  0  0
    9.5491   -0.6380   24.1912 C   0  0  0  0  0  0  0  0  0  0  0  0
    7.5337   -6.9256   16.9519 C   0  0  0  0  0  0  0  0  0  0  0  0
    9.6782    0.5671   23.5143 C   0  0  0  0  0  0  0  0  0  0  0  0
    8.4532    0.3482   26.0821 C   0  0  0  0  0  0  0  0  0  0  0  0
   10.4239   -1.7677   22.2230 N   0  0  0  0  0  0  0  0  0  0  0  0
    9.9468   -4.5953   20.1709 C   0  0  0  0  0  0  0  0  0  0  0  0
   10.0366   -3.0590   23.9864 N   0  0  0  0  0  0  0  0  0  0  0  0
    7.1191   -7.3636   15.7739 C   0  0  0  0  0  0  0  0  0  0  0  0
    5.9612   -8.3203   17.2732 N   0  0  0  0  0  0  0  0  0  0  0  0
    8.5296   -5.9814   17.1841 C   0  0  0  0  0  0  0  0  0  0  0  0
    9.1527   -5.2118   16.2116 C   0  0  0  0  0  0  0  0  0  0  0  0
   10.3364   -3.8368   22.9255 O   0  0  0  0  0  0  0  0  0  0  0  0
    9.6947   -4.8407   18.8534 C   0  0  0  0  0  0  0  0  0  0  0  0
    9.1596    1.7042   24.1381 C   0  0  0  0  0  0  0  0  0  0  0  0
   11.0456   -2.9774   18.2694 N   0  0  0  0  0  0  0  0  0  0  0  0
   10.4788   -3.0457   21.8593 C   0  0  0  0  0  0  0  0  0  0  0  0
    8.8693   -5.8099   18.4657 N   0  0  0  0  0  0  0  0  0  0  0  0
    8.9892   -0.7926   25.4573 C   0  0  0  0  0  0  0  0  0  0  0  0
   10.5677   -3.4462   20.5323 C   0  0  0  0  0  0  0  0  0  0  0  0
  1  8  1  0
  1 12  4  0
  1 14  4  0
  2  3  4  0
  2 18  4  0
  3 20  4  0
  3 22  4  0
  4 11  4  0
  4 21  4  0
  5  9  4  0
  5 16  4  0
  6 15  4  0
  6 16  4  0
  7 22  4  0
  7 26  4  0
  8 10  4  0
  8 25  4  0
  9 15  4  0
  9 17  1  0
 10 21  4  0
 11 25  4  0
 12 23  4  0
 13 20  4  0
 13 26  4  0
 14 19  4  0
 17 18  4  0
 17 24  4  0
 19 23  4  0
 20 24  4  0
 23 26  1  0
M  END
$$$$

 Created by Python create_sdf_string function

 26 30  0  0  0  0  0  0  0  0999 V2000
   10.0084   -1.8019   23.4945 C   0  0  0  0  0  0  0  0  0  0  0  0
   10.0005   -4.2520   16.5631 C   0  0  0  0  0  0  0  0  0  0  0  0
   10.2759   -4.0036   17.8845 C   0  0  0  0  0  0  0  0  0  0  0  0
    8.5652    1.5478   25.3778 N   0  0  0  0  0  0  0  0  0  0  0  0
    6.8048   -7.5457   17.8752 C   0  0  0  0  0  0  0  0  0  0  0  0
    6.1721   -8.2186   15.9886 N   0  0  0  0  0  0  0  0  0  0  0  0
   11.1764   -2.6600   19.5604 C   0  0  0  0  0  0  0  0  0  0  0  0
    9.5491   -0.6380   24.1912 C   0  0  0  0  0  0  0  0  0  0  0  0
    7.5337   -6.9256   16.9519 C   0  0  0  0  0  0  0  0  0  0  0  0
    9.6782    0.5671   23.5143 C   0  0  0  0  0  0  0  0  0  0  0  0
    8.4532    0.3482   26.0821 C   0  0  0  0  0  0  0  0  0  0  0  0
   10.4239   -1.7677   22.2230 N   0  0  0  0  0  0  0  0  0  0  0  0
    9.9468   -4.5953   20.1709 C   0  0  0  0  0  0  0  0  0  0  0  0
   10.0366   -3.0590   23.9864 N   0  0  0  0  0  0  0  0  0  0  0  0
    7.1191   -7.3636   15.7739 C   0  0  0  0  0  0  0  0  0  0  0  0
    5.9612   -8.3203   17.2732 N   0  0  0  0  0  0  0  0  0  0  0  0
    8.5296   -5.9814   17.1841 C   0  0  0  0  0  0  0  0  0  0  0  0
    9.1527   -5.2118   16.2116 C   0  0  0  0  0  0  0  0  0  0  0  0
   10.3364   -3.8368   22.9255 O   0  0  0  0  0  0  0  0  0  0  0  0
    9.6947   -4.8407   18.8534 C   0  0  0  0  0  0  0  0  0  0  0  0
    9.1596    1.7042   24.1381 C   0  0  0  0  0  0  0  0  0  0  0  0
   11.0456   -2.9774   18.2694 N   0  0  0  0  0  0  0  0  0  0  0  0
   10.4788   -3.0457   21.8593 C   0  0  0  0  0  0  0  0  0  0  0  0
    8.8693   -5.8099   18.4657 N   0  0  0  0  0  0  0  0  0  0  0  0
    8.9892   -0.7926   25.4573 C   0  0  0  0  0  0  0  0  0  0  0  0
   10.5677   -3.4462   20.5323 C   0  0  0  0  0  0  0  0  0  0  0  0
  1  8  1  0
  1 12  4  0
  1 14  4  0
  2  3  4  0
  2 18  4  0
  3 20  4  0
  3 22  4  0
  4 11  4  0
  4 21  4  0
  5  9  4  0
  5 16  4  0
  6 15  4  0
  6 16  4  0
  7 22  4  0
  7 26  4  0
  8 10  4  0
  8 25  4  0
  9 15  4  0
  9 17  1  0
 10 21  4  0
 11 25  4  0
 12 23  4  0
 13 20  4  0
 13 26  4  0
 14 19  4  0
 17 18  4  0
 17 24  4  0
 19 23  4  0
 20 24  4  0
 23 26  1  0
M  END
$$$$

 Created by Python create_sdf_string function

 26 30  0  0  0  0  0  0  0  0999 V2000
   10.0084   -1.8019   23.4945 C   0  0  0  0  0  0  0  0  0  0  0  0
   10.0005   -4.2520   16.5631 C   0  0  0  0  0  0  0  0  0  0  0  0
   10.2759   -4.0036   17.8845 C   0  0  0  0  0  0  0  0  0  0  0  0
    8.5652    1.5478   25.3778 N   0  0  0  0  0  0  0  0  0  0  0  0
    6.8048   -7.5457   17.8752 C   0  0  0  0  0  0  0  0  0  0  0  0
    6.1721   -8.2186   15.9886 N   0  0  0  0  0  0  0  0  0  0  0  0
   11.1764   -2.6600   19.5604 C   0  0  0  0  0  0  0  0  0  0  0  0
    9.5491   -0.6380   24.1912 C   0  0  0  0  0  0  0  0  0  0  0  0
    7.5337   -6.9256   16.9519 C   0  0  0  0  0  0  0  0  0  0  0  0
    9.6782    0.5671   23.5143 C   0  0  0  0  0  0  0  0  0  0  0  0
    8.4532    0.3482   26.0821 C   0  0  0  0  0  0  0  0  0  0  0  0
   10.4239   -1.7677   22.2230 N   0  0  0  0  0  0  0  0  0  0  0  0
    9.9468   -4.5953   20.1709 C   0  0  0  0  0  0  0  0  0  0  0  0
   10.0366   -3.0590   23.9864 N   0  0  0  0  0  0  0  0  0  0  0  0
    7.1191   -7.3636   15.7739 C   0  0  0  0  0  0  0  0  0  0  0  0
    5.9612   -8.3203   17.2732 N   0  0  0  0  0  0  0  0  0  0  0  0
    8.5296   -5.9814   17.1841 C   0  0  0  0  0  0  0  0  0  0  0  0
    9.1527   -5.2118   16.2116 C   0  0  0  0  0  0  0  0  0  0  0  0
   10.3364   -3.8368   22.9255 O   0  0  0  0  0  0  0  0  0  0  0  0
    9.6947   -4.8407   18.8534 C   0  0  0  0  0  0  0  0  0  0  0  0
    9.1596    1.7042   24.1381 C   0  0  0  0  0  0  0  0  0  0  0  0
   11.0456   -2.9774   18.2694 N   0  0  0  0  0  0  0  0  0  0  0  0
   10.4788   -3.0457   21.8593 C   0  0  0  0  0  0  0  0  0  0  0  0
    8.8693   -5.8099   18.4657 N   0  0  0  0  0  0  0  0  0  0  0  0
    8.9892   -0.7926   25.4573 C   0  0  0  0  0  0  0  0  0  0  0  0
   10.5677   -3.4462   20.5323 C   0  0  0  0  0  0  0  0  0  0  0  0
  1  8  1  0
  1 12  4  0
  1 14  4  0
  2  3  4  0
  2 18  4  0
  3 20  4  0
  3 22  4  0
  4 11  4  0
  4 21  4  0
  5  9  4  0
  5 16  4  0
  6 15  4  0
  6 16  4  0
  7 22  4  0
  7 26  4  0
  8 10  4  0
  8 25  4  0
  9 15  4  0
  9 17  1  0
 10 21  4  0
 11 25  4  0
 12 23  4  0
 13 20  4  0
 13 26  4  0
 14 19  4  0
 17 18  4  0
 17 24  4  0
 19 23  4  0
 20 24  4  0
 23 26  1  0
M  END
$$$$

 Created by Python create_sdf_string function

 26 30  0  0  0  0  0  0  0  0999 V2000
   10.0084   -1.8019   23.4945 C   0  0  0  0  0  0  0  0  0  0  0  0
   10.0005   -4.2520   16.5631 C   0  0  0  0  0  0  0  0  0  0  0  0
   10.2759   -4.0036   17.8845 C   0  0  0  0  0  0  0  0  0  0  0  0
    8.5652    1.5478   25.3778 N   0  0  0  0  0  0  0  0  0  0  0  0
    6.8048   -7.5457   17.8752 C   0  0  0  0  0  0  0  0  0  0  0  0
    6.1721   -8.2186   15.9886 N   0  0  0  0  0  0  0  0  0  0  0  0
   11.1764   -2.6600   19.5604 C   0  0  0  0  0  0  0  0  0  0  0  0
    9.5491   -0.6380   24.1912 C   0  0  0  0  0  0  0  0  0  0  0  0
    7.5337   -6.9256   16.9519 C   0  0  0  0  0  0  0  0  0  0  0  0
    9.6782    0.5671   23.5143 C   0  0  0  0  0  0  0  0  0  0  0  0
    8.4532    0.3482   26.0821 C   0  0  0  0  0  0  0  0  0  0  0  0
   10.4239   -1.7677   22.2230 N   0  0  0  0  0  0  0  0  0  0  0  0
    9.9468   -4.5953   20.1709 C   0  0  0  0  0  0  0  0  0  0  0  0
   10.0366   -3.0590   23.9864 N   0  0  0  0  0  0  0  0  0  0  0  0
    7.1191   -7.3636   15.7739 C   0  0  0  0  0  0  0  0  0  0  0  0
    5.9612   -8.3203   17.2732 N   0  0  0  0  0  0  0  0  0  0  0  0
    8.5296   -5.9814   17.1841 C   0  0  0  0  0  0  0  0  0  0  0  0
    9.1527   -5.2118   16.2116 C   0  0  0  0  0  0  0  0  0  0  0  0
   10.3364   -3.8368   22.9255 O   0  0  0  0  0  0  0  0  0  0  0  0
    9.6947   -4.8407   18.8534 C   0  0  0  0  0  0  0  0  0  0  0  0
    9.1596    1.7042   24.1381 C   0  0  0  0  0  0  0  0  0  0  0  0
   11.0456   -2.9774   18.2694 N   0  0  0  0  0  0  0  0  0  0  0  0
   10.4788   -3.0457   21.8593 C   0  0  0  0  0  0  0  0  0  0  0  0
    8.8693   -5.8099   18.4657 N   0  0  0  0  0  0  0  0  0  0  0  0
    8.9892   -0.7926   25.4573 C   0  0  0  0  0  0  0  0  0  0  0  0
   10.5677   -3.4462   20.5323 C   0  0  0  0  0  0  0  0  0  0  0  0
  1  8  1  0
  1 12  4  0
  1 14  4  0
  2  3  4  0
  2 18  4  0
  3 20  4  0
  3 22  4  0
  4 11  4  0
  4 21  4  0
  5  9  4  0
  5 16  4  0
  6 15  4  0
  6 16  4  0
  7 22  4  0
  7 26  4  0
  8 10  4  0
  8 25  4  0
  9 15  4  0
  9 17  1  0
 10 21  4  0
 11 25  4  0
 12 23  4  0
 13 20  4  0
 13 26  4  0
 14 19  4  0
 17 18  4  0
 17 24  4  0
 19 23  4  0
 20 24  4  0
 23 26  1  0
M  END
$$$$

 Created by Python create_sdf_string function

 26 30  0  0  0  0  0  0  0  0999 V2000
   10.0084   -1.8019   23.4945 C   0  0  0  0  0  0  0  0  0  0  0  0
   10.0005   -4.2520   16.5631 C   0  0  0  0  0  0  0  0  0  0  0  0
   10.2759   -4.0036   17.8845 C   0  0  0  0  0  0  0  0  0  0  0  0
    8.5652    1.5478   25.3778 N   0  0  0  0  0  0  0  0  0  0  0  0
    6.8048   -7.5457   17.8752 C   0  0  0  0  0  0  0  0  0  0  0  0
    6.1721   -8.2186   15.9886 N   0  0  0  0  0  0  0  0  0  0  0  0
   11.1764   -2.6600   19.5604 C   0  0  0  0  0  0  0  0  0  0  0  0
    9.5491   -0.6380   24.1912 C   0  0  0  0  0  0  0  0  0  0  0  0
    7.5337   -6.9256   16.9519 C   0  0  0  0  0  0  0  0  0  0  0  0
    9.6782    0.5671   23.5143 C   0  0  0  0  0  0  0  0  0  0  0  0
    8.4532    0.3482   26.0821 C   0  0  0  0  0  0  0  0  0  0  0  0
   10.4239   -1.7677   22.2230 N   0  0  0  0  0  0  0  0  0  0  0  0
    9.9468   -4.5953   20.1709 C   0  0  0  0  0  0  0  0  0  0  0  0
   10.0366   -3.0590   23.9864 N   0  0  0  0  0  0  0  0  0  0  0  0
    7.1191   -7.3636   15.7739 C   0  0  0  0  0  0  0  0  0  0  0  0
    5.9612   -8.3203   17.2732 N   0  0  0  0  0  0  0  0  0  0  0  0
    8.5296   -5.9814   17.1841 C   0  0  0  0  0  0  0  0  0  0  0  0
    9.1527   -5.2118   16.2116 C   0  0  0  0  0  0  0  0  0  0  0  0
   10.3364   -3.8368   22.9255 O   0  0  0  0  0  0  0  0  0  0  0  0
    9.6947   -4.8407   18.8534 C   0  0  0  0  0  0  0  0  0  0  0  0
    9.1596    1.7042   24.1381 C   0  0  0  0  0  0  0  0  0  0  0  0
   11.0456   -2.9774   18.2694 N   0  0  0  0  0  0  0  0  0  0  0  0
   10.4788   -3.0457   21.8593 C   0  0  0  0  0  0  0  0  0  0  0  0
    8.8693   -5.8099   18.4657 N   0  0  0  0  0  0  0  0  0  0  0  0
    8.9892   -0.7926   25.4573 C   0  0  0  0  0  0  0  0  0  0  0  0
   10.5677   -3.4462   20.5323 C   0  0  0  0  0  0  0  0  0  0  0  0
  1  8  1  0
  1 12  4  0
  1 14  4  0
  2  3  4  0
  2 18  4  0
  3 20  4  0
  3 22  4  0
  4 11  4  0
  4 21  4  0
  5  9  4  0
  5 16  4  0
  6 15  4  0
  6 16  4  0
  7 22  4  0
  7 26  4  0
  8 10  4  0
  8 25  4  0
  9 15  4  0
  9 17  1  0
 10 21  4  0
 11 25  4  0
 12 23  4  0
 13 20  4  0
 13 26  4  0
 14 19  4  0
 17 18  4  0
 17 24  4  0
 19 23  4  0
 20 24  4  0
 23 26  1  0
M  END
$$$$

 Created by Python create_sdf_string function

 26 30  0  0  0  0  0  0  0  0999 V2000
   10.0084   -1.8019   23.4945 C   0  0  0  0  0  0  0  0  0  0  0  0
   10.0005   -4.2520   16.5631 C   0  0  0  0  0  0  0  0  0  0  0  0
   10.2759   -4.0036   17.8845 C   0  0  0  0  0  0  0  0  0  0  0  0
    8.5652    1.5478   25.3778 N   0  0  0  0  0  0  0  0  0  0  0  0
    6.8048   -7.5457   17.8752 C   0  0  0  0  0  0  0  0  0  0  0  0
    6.1721   -8.2186   15.9886 N   0  0  0  0  0  0  0  0  0  0  0  0
   11.1764   -2.6600   19.5604 C   0  0  0  0  0  0  0  0  0  0  0  0
    9.5491   -0.6380   24.1912 C   0  0  0  0  0  0  0  0  0  0  0  0
    7.5337   -6.9256   16.9519 C   0  0  0  0  0  0  0  0  0  0  0  0
    9.6782    0.5671   23.5143 C   0  0  0  0  0  0  0  0  0  0  0  0
    8.4532    0.3482   26.0821 C   0  0  0  0  0  0  0  0  0  0  0  0
   10.4239   -1.7677   22.2230 N   0  0  0  0  0  0  0  0  0  0  0  0
    9.9468   -4.5953   20.1709 C   0  0  0  0  0  0  0  0  0  0  0  0
   10.0366   -3.0590   23.9864 N   0  0  0  0  0  0  0  0  0  0  0  0
    7.1191   -7.3636   15.7739 C   0  0  0  0  0  0  0  0  0  0  0  0
    5.9612   -8.3203   17.2732 N   0  0  0  0  0  0  0  0  0  0  0  0
    8.5296   -5.9814   17.1841 C   0  0  0  0  0  0  0  0  0  0  0  0
    9.1527   -5.2118   16.2116 C   0  0  0  0  0  0  0  0  0  0  0  0
   10.3364   -3.8368   22.9255 O   0  0  0  0  0  0  0  0  0  0  0  0
    9.6947   -4.8407   18.8534 C   0  0  0  0  0  0  0  0  0  0  0  0
    9.1596    1.7042   24.1381 C   0  0  0  0  0  0  0  0  0  0  0  0
   11.0456   -2.9774   18.2694 N   0  0  0  0  0  0  0  0  0  0  0  0
   10.4788   -3.0457   21.8593 C   0  0  0  0  0  0  0  0  0  0  0  0
    8.8693   -5.8099   18.4657 N   0  0  0  0  0  0  0  0  0  0  0  0
    8.9892   -0.7926   25.4573 C   0  0  0  0  0  0  0  0  0  0  0  0
   10.5677   -3.4462   20.5323 C   0  0  0  0  0  0  0  0  0  0  0  0
  1  8  1  0
  1 12  4  0
  1 14  4  0
  2  3  4  0
  2 18  4  0
  3 20  4  0
  3 22  4  0
  4 11  4  0
  4 21  4  0
  5  9  4  0
  5 16  4  0
  6 15  4  0
  6 16  4  0
  7 22  4  0
  7 26  4  0
  8 10  4  0
  8 25  4  0
  9 15  4  0
  9 17  1  0
 10 21  4  0
 11 25  4  0
 12 23  4  0
 13 20  4  0
 13 26  4  0
 14 19  4  0
 17 18  4  0
 17 24  4  0
 19 23  4  0
 20 24  4  0
 23 26  1  0
M  END
$$$$

 Created by Python create_sdf_string function

 26 30  0  0  0  0  0  0  0  0999 V2000
   10.0084   -1.8019   23.4945 C   0  0  0  0  0  0  0  0  0  0  0  0
   10.0005   -4.2520   16.5631 C   0  0  0  0  0  0  0  0  0  0  0  0
   10.2759   -4.0036   17.8845 C   0  0  0  0  0  0  0  0  0  0  0  0
    8.5652    1.5478   25.3778 N   0  0  0  0  0  0  0  0  0  0  0  0
    6.8048   -7.5457   17.8752 C   0  0  0  0  0  0  0  0  0  0  0  0
    6.1721   -8.2186   15.9886 N   0  0  0  0  0  0  0  0  0  0  0  0
   11.1764   -2.6600   19.5604 C   0  0  0  0  0  0  0  0  0  0  0  0
    9.5491   -0.6380   24.1912 C   0  0  0  0  0  0  0  0  0  0  0  0
    7.5337   -6.9256   16.9519 C   0  0  0  0  0  0  0  0  0  0  0  0
    9.6782    0.5671   23.5143 C   0  0  0  0  0  0  0  0  0  0  0  0
    8.4532    0.3482   26.0821 C   0  0  0  0  0  0  0  0  0  0  0  0
   10.4239   -1.7677   22.2230 N   0  0  0  0  0  0  0  0  0  0  0  0
    9.9468   -4.5953   20.1709 C   0  0  0  0  0  0  0  0  0  0  0  0
   10.0366   -3.0590   23.9864 N   0  0  0  0  0  0  0  0  0  0  0  0
    7.1191   -7.3636   15.7739 C   0  0  0  0  0  0  0  0  0  0  0  0
    5.9612   -8.3203   17.2732 N   0  0  0  0  0  0  0  0  0  0  0  0
    8.5296   -5.9814   17.1841 C   0  0  0  0  0  0  0  0  0  0  0  0
    9.1527   -5.2118   16.2116 C   0  0  0  0  0  0  0  0  0  0  0  0
   10.3364   -3.8368   22.9255 O   0  0  0  0  0  0  0  0  0  0  0  0
    9.6947   -4.8407   18.8534 C   0  0  0  0  0  0  0  0  0  0  0  0
    9.1596    1.7042   24.1381 C   0  0  0  0  0  0  0  0  0  0  0  0
   11.0456   -2.9774   18.2694 N   0  0  0  0  0  0  0  0  0  0  0  0
   10.4788   -3.0457   21.8593 C   0  0  0  0  0  0  0  0  0  0  0  0
    8.8693   -5.8099   18.4657 N   0  0  0  0  0  0  0  0  0  0  0  0
    8.9892   -0.7926   25.4573 C   0  0  0  0  0  0  0  0  0  0  0  0
   10.5677   -3.4462   20.5323 C   0  0  0  0  0  0  0  0  0  0  0  0
  1  8  1  0
  1 12  4  0
  1 14  4  0
  2  3  4  0
  2 18  4  0
  3 20  4  0
  3 22  4  0
  4 11  4  0
  4 21  4  0
  5  9  4  0
  5 16  4  0
  6 15  4  0
  6 16  4  0
  7 22  4  0
  7 26  4  0
  8 10  4  0
  8 25  4  0
  9 15  4  0
  9 17  1  0
 10 21  4  0
 11 25  4  0
 12 23  4  0
 13 20  4  0
 13 26  4  0
 14 19  4  0
 17 18  4  0
 17 24  4  0
 19 23  4  0
 20 24  4  0
 23 26  1  0
M  END
$$$$

 Created by Python create_sdf_string function

 26 30  0  0  0  0  0  0  0  0999 V2000
   10.0084   -1.8019   23.4945 C   0  0  0  0  0  0  0  0  0  0  0  0
   10.0005   -4.2520   16.5631 C   0  0  0  0  0  0  0  0  0  0  0  0
   10.2759   -4.0036   17.8845 C   0  0  0  0  0  0  0  0  0  0  0  0
    8.5652    1.5478   25.3778 N   0  0  0  0  0  0  0  0  0  0  0  0
    6.8048   -7.5457   17.8752 C   0  0  0  0  0  0  0  0  0  0  0  0
    6.1721   -8.2186   15.9886 N   0  0  0  0  0  0  0  0  0  0  0  0
   11.1764   -2.6600   19.5604 C   0  0  0  0  0  0  0  0  0  0  0  0
    9.5491   -0.6380   24.1912 C   0  0  0  0  0  0  0  0  0  0  0  0
    7.5337   -6.9256   16.9519 C   0  0  0  0  0  0  0  0  0  0  0  0
    9.6782    0.5671   23.5143 C   0  0  0  0  0  0  0  0  0  0  0  0
    8.4532    0.3482   26.0821 C   0  0  0  0  0  0  0  0  0  0  0  0
   10.4239   -1.7677   22.2230 N   0  0  0  0  0  0  0  0  0  0  0  0
    9.9468   -4.5953   20.1709 C   0  0  0  0  0  0  0  0  0  0  0  0
   10.0366   -3.0590   23.9864 N   0  0  0  0  0  0  0  0  0  0  0  0
    7.1191   -7.3636   15.7739 C   0  0  0  0  0  0  0  0  0  0  0  0
    5.9612   -8.3203   17.2732 N   0  0  0  0  0  0  0  0  0  0  0  0
    8.5296   -5.9814   17.1841 C   0  0  0  0  0  0  0  0  0  0  0  0
    9.1527   -5.2118   16.2116 C   0  0  0  0  0  0  0  0  0  0  0  0
   10.3364   -3.8368   22.9255 O   0  0  0  0  0  0  0  0  0  0  0  0
    9.6947   -4.8407   18.8534 C   0  0  0  0  0  0  0  0  0  0  0  0
    9.1596    1.7042   24.1381 C   0  0  0  0  0  0  0  0  0  0  0  0
   11.0456   -2.9774   18.2694 N   0  0  0  0  0  0  0  0  0  0  0  0
   10.4788   -3.0457   21.8593 C   0  0  0  0  0  0  0  0  0  0  0  0
    8.8693   -5.8099   18.4657 N   0  0  0  0  0  0  0  0  0  0  0  0
    8.9892   -0.7926   25.4573 C   0  0  0  0  0  0  0  0  0  0  0  0
   10.5677   -3.4462   20.5323 C   0  0  0  0  0  0  0  0  0  0  0  0
  1  8  1  0
  1 12  4  0
  1 14  4  0
  2  3  4  0
  2 18  4  0
  3 20  4  0
  3 22  4  0
  4 11  4  0
  4 21  4  0
  5  9  4  0
  5 16  4  0
  6 15  4  0
  6 16  4  0
  7 22  4  0
  7 26  4  0
  8 10  4  0
  8 25  4  0
  9 15  4  0
  9 17  1  0
 10 21  4  0
 11 25  4  0
 12 23  4  0
 13 20  4  0
 13 26  4  0
 14 19  4  0
 17 18  4  0
 17 24  4  0
 19 23  4  0
 20 24  4  0
 23 26  1  0
M  END
$$$$

 Created by Python create_sdf_string function

 26 30  0  0  0  0  0  0  0  0999 V2000
   10.0084   -1.8019   23.4945 C   0  0  0  0  0  0  0  0  0  0  0  0
   10.0005   -4.2520   16.5631 C   0  0  0  0  0  0  0  0  0  0  0  0
   10.2759   -4.0036   17.8845 C   0  0  0  0  0  0  0  0  0  0  0  0
    8.5652    1.5478   25.3778 N   0  0  0  0  0  0  0  0  0  0  0  0
    6.8048   -7.5457   17.8752 C   0  0  0  0  0  0  0  0  0  0  0  0
    6.1721   -8.2186   15.9886 N   0  0  0  0  0  0  0  0  0  0  0  0
   11.1764   -2.6600   19.5604 C   0  0  0  0  0  0  0  0  0  0  0  0
    9.5491   -0.6380   24.1912 C   0  0  0  0  0  0  0  0  0  0  0  0
    7.5337   -6.9256   16.9519 C   0  0  0  0  0  0  0  0  0  0  0  0
    9.6782    0.5671   23.5143 C   0  0  0  0  0  0  0  0  0  0  0  0
    8.4532    0.3482   26.0821 C   0  0  0  0  0  0  0  0  0  0  0  0
   10.4239   -1.7677   22.2230 N   0  0  0  0  0  0  0  0  0  0  0  0
    9.9468   -4.5953   20.1709 C   0  0  0  0  0  0  0  0  0  0  0  0
   10.0366   -3.0590   23.9864 N   0  0  0  0  0  0  0  0  0  0  0  0
    7.1191   -7.3636   15.7739 C   0  0  0  0  0  0  0  0  0  0  0  0
    5.9612   -8.3203   17.2732 N   0  0  0  0  0  0  0  0  0  0  0  0
    8.5296   -5.9814   17.1841 C   0  0  0  0  0  0  0  0  0  0  0  0
    9.1527   -5.2118   16.2116 C   0  0  0  0  0  0  0  0  0  0  0  0
   10.3364   -3.8368   22.9255 O   0  0  0  0  0  0  0  0  0  0  0  0
    9.6947   -4.8407   18.8534 C   0  0  0  0  0  0  0  0  0  0  0  0
    9.1596    1.7042   24.1381 C   0  0  0  0  0  0  0  0  0  0  0  0
   11.0456   -2.9774   18.2694 N   0  0  0  0  0  0  0  0  0  0  0  0
   10.4788   -3.0457   21.8593 C   0  0  0  0  0  0  0  0  0  0  0  0
    8.8693   -5.8099   18.4657 N   0  0  0  0  0  0  0  0  0  0  0  0
    8.9892   -0.7926   25.4573 C   0  0  0  0  0  0  0  0  0  0  0  0
   10.5677   -3.4462   20.5323 C   0  0  0  0  0  0  0  0  0  0  0  0
  1  8  1  0
  1 12  4  0
  1 14  4  0
  2  3  4  0
  2 18  4  0
  3 20  4  0
  3 22  4  0
  4 11  4  0
  4 21  4  0
  5  9  4  0
  5 16  4  0
  6 15  4  0
  6 16  4  0
  7 22  4  0
  7 26  4  0
  8 10  4  0
  8 25  4  0
  9 15  4  0
  9 17  1  0
 10 21  4  0
 11 25  4  0
 12 23  4  0
 13 20  4  0
 13 26  4  0
 14 19  4  0
 17 18  4  0
 17 24  4  0
 19 23  4  0
 20 24  4  0
 23 26  1  0
M  END
$$$$

 Created by Python create_sdf_string function

 26 30  0  0  0  0  0  0  0  0999 V2000
   10.0084   -1.8019   23.4945 C   0  0  0  0  0  0  0  0  0  0  0  0
   10.0005   -4.2520   16.5631 C   0  0  0  0  0  0  0  0  0  0  0  0
   10.2759   -4.0036   17.8845 C   0  0  0  0  0  0  0  0  0  0  0  0
    8.5652    1.5478   25.3778 N   0  0  0  0  0  0  0  0  0  0  0  0
    6.8048   -7.5457   17.8752 C   0  0  0  0  0  0  0  0  0  0  0  0
    6.1721   -8.2186   15.9886 N   0  0  0  0  0  0  0  0  0  0  0  0
   11.1764   -2.6600   19.5604 C   0  0  0  0  0  0  0  0  0  0  0  0
    9.5491   -0.6380   24.1912 C   0  0  0  0  0  0  0  0  0  0  0  0
    7.5337   -6.9256   16.9519 C   0  0  0  0  0  0  0  0  0  0  0  0
    9.6782    0.5671   23.5143 C   0  0  0  0  0  0  0  0  0  0  0  0
    8.4532    0.3482   26.0821 C   0  0  0  0  0  0  0  0  0  0  0  0
   10.4239   -1.7677   22.2230 N   0  0  0  0  0  0  0  0  0  0  0  0
    9.9468   -4.5953   20.1709 C   0  0  0  0  0  0  0  0  0  0  0  0
   10.0366   -3.0590   23.9864 N   0  0  0  0  0  0  0  0  0  0  0  0
    7.1191   -7.3636   15.7739 C   0  0  0  0  0  0  0  0  0  0  0  0
    5.9612   -8.3203   17.2732 N   0  0  0  0  0  0  0  0  0  0  0  0
    8.5296   -5.9814   17.1841 C   0  0  0  0  0  0  0  0  0  0  0  0
    9.1527   -5.2118   16.2116 C   0  0  0  0  0  0  0  0  0  0  0  0
   10.3364   -3.8368   22.9255 O   0  0  0  0  0  0  0  0  0  0  0  0
    9.6947   -4.8407   18.8534 C   0  0  0  0  0  0  0  0  0  0  0  0
    9.1596    1.7042   24.1381 C   0  0  0  0  0  0  0  0  0  0  0  0
   11.0456   -2.9774   18.2694 N   0  0  0  0  0  0  0  0  0  0  0  0
   10.4788   -3.0457   21.8593 C   0  0  0  0  0  0  0  0  0  0  0  0
    8.8693   -5.8099   18.4657 N   0  0  0  0  0  0  0  0  0  0  0  0
    8.9892   -0.7926   25.4573 C   0  0  0  0  0  0  0  0  0  0  0  0
   10.5677   -3.4462   20.5323 C   0  0  0  0  0  0  0  0  0  0  0  0
  1  8  1  0
  1 12  4  0
  1 14  4  0
  2  3  4  0
  2 18  4  0
  3 20  4  0
  3 22  4  0
  4 11  4  0
  4 21  4  0
  5  9  4  0
  5 16  4  0
  6 15  4  0
  6 16  4  0
  7 22  4  0
  7 26  4  0
  8 10  4  0
  8 25  4  0
  9 15  4  0
  9 17  1  0
 10 21  4  0
 11 25  4  0
 12 23  4  0
 13 20  4  0
 13 26  4  0
 14 19  4  0
 17 18  4  0
 17 24  4  0
 19 23  4  0
 20 24  4  0
 23 26  1  0
M  END
$$$$

 Created by Python create_sdf_string function

 26 30  0  0  0  0  0  0  0  0999 V2000
   10.0084   -1.8019   23.4945 C   0  0  0  0  0  0  0  0  0  0  0  0
   10.0005   -4.2520   16.5631 C   0  0  0  0  0  0  0  0  0  0  0  0
   10.2759   -4.0036   17.8845 C   0  0  0  0  0  0  0  0  0  0  0  0
    8.5652    1.5478   25.3778 N   0  0  0  0  0  0  0  0  0  0  0  0
    6.8048   -7.5457   17.8752 C   0  0  0  0  0  0  0  0  0  0  0  0
    6.1721   -8.2186   15.9886 N   0  0  0  0  0  0  0  0  0  0  0  0
   11.1764   -2.6600   19.5604 C   0  0  0  0  0  0  0  0  0  0  0  0
    9.5491   -0.6380   24.1912 C   0  0  0  0  0  0  0  0  0  0  0  0
    7.5337   -6.9256   16.9519 C   0  0  0  0  0  0  0  0  0  0  0  0
    9.6782    0.5671   23.5143 C   0  0  0  0  0  0  0  0  0  0  0  0
    8.4532    0.3482   26.0821 C   0  0  0  0  0  0  0  0  0  0  0  0
   10.4239   -1.7677   22.2230 N   0  0  0  0  0  0  0  0  0  0  0  0
    9.9468   -4.5953   20.1709 C   0  0  0  0  0  0  0  0  0  0  0  0
   10.0366   -3.0590   23.9864 N   0  0  0  0  0  0  0  0  0  0  0  0
    7.1191   -7.3636   15.7739 C   0  0  0  0  0  0  0  0  0  0  0  0
    5.9612   -8.3203   17.2732 N   0  0  0  0  0  0  0  0  0  0  0  0
    8.5296   -5.9814   17.1841 C   0  0  0  0  0  0  0  0  0  0  0  0
    9.1527   -5.2118   16.2116 C   0  0  0  0  0  0  0  0  0  0  0  0
   10.3364   -3.8368   22.9255 O   0  0  0  0  0  0  0  0  0  0  0  0
    9.6947   -4.8407   18.8534 C   0  0  0  0  0  0  0  0  0  0  0  0
    9.1596    1.7042   24.1381 C   0  0  0  0  0  0  0  0  0  0  0  0
   11.0456   -2.9774   18.2694 N   0  0  0  0  0  0  0  0  0  0  0  0
   10.4788   -3.0457   21.8593 C   0  0  0  0  0  0  0  0  0  0  0  0
    8.8693   -5.8099   18.4657 N   0  0  0  0  0  0  0  0  0  0  0  0
    8.9892   -0.7926   25.4573 C   0  0  0  0  0  0  0  0  0  0  0  0
   10.5677   -3.4462   20.5323 C   0  0  0  0  0  0  0  0  0  0  0  0
  1  8  1  0
  1 12  4  0
  1 14  4  0
  2  3  4  0
  2 18  4  0
  3 20  4  0
  3 22  4  0
  4 11  4  0
  4 21  4  0
  5  9  4  0
  5 16  4  0
  6 15  4  0
  6 16  4  0
  7 22  4  0
  7 26  4  0
  8 10  4  0
  8 25  4  0
  9 15  4  0
  9 17  1  0
 10 21  4  0
 11 25  4  0
 12 23  4  0
 13 20  4  0
 13 26  4  0
 14 19  4  0
 17 18  4  0
 17 24  4  0
 19 23  4  0
 20 24  4  0
 23 26  1  0
M  END
$$$$

 Created by Python create_sdf_string function

 26 30  0  0  0  0  0  0  0  0999 V2000
   10.0084   -1.8019   23.4945 C   0  0  0  0  0  0  0  0  0  0  0  0
   10.0005   -4.2520   16.5631 C   0  0  0  0  0  0  0  0  0  0  0  0
   10.2759   -4.0036   17.8845 C   0  0  0  0  0  0  0  0  0  0  0  0
    8.5652    1.5478   25.3778 N   0  0  0  0  0  0  0  0  0  0  0  0
    6.8048   -7.5457   17.8752 C   0  0  0  0  0  0  0  0  0  0  0  0
    6.1721   -8.2186   15.9886 N   0  0  0  0  0  0  0  0  0  0  0  0
   11.1764   -2.6600   19.5604 C   0  0  0  0  0  0  0  0  0  0  0  0
    9.5491   -0.6380   24.1912 C   0  0  0  0  0  0  0  0  0  0  0  0
    7.5337   -6.9256   16.9519 C   0  0  0  0  0  0  0  0  0  0  0  0
    9.6782    0.5671   23.5143 C   0  0  0  0  0  0  0  0  0  0  0  0
    8.4532    0.3482   26.0821 C   0  0  0  0  0  0  0  0  0  0  0  0
   10.4239   -1.7677   22.2230 N   0  0  0  0  0  0  0  0  0  0  0  0
    9.9468   -4.5953   20.1709 C   0  0  0  0  0  0  0  0  0  0  0  0
   10.0366   -3.0590   23.9864 N   0  0  0  0  0  0  0  0  0  0  0  0
    7.1191   -7.3636   15.7739 C   0  0  0  0  0  0  0  0  0  0  0  0
    5.9612   -8.3203   17.2732 N   0  0  0  0  0  0  0  0  0  0  0  0
    8.5296   -5.9814   17.1841 C   0  0  0  0  0  0  0  0  0  0  0  0
    9.1527   -5.2118   16.2116 C   0  0  0  0  0  0  0  0  0  0  0  0
   10.3364   -3.8368   22.9255 O   0  0  0  0  0  0  0  0  0  0  0  0
    9.6947   -4.8407   18.8534 C   0  0  0  0  0  0  0  0  0  0  0  0
    9.1596    1.7042   24.1381 C   0  0  0  0  0  0  0  0  0  0  0  0
   11.0456   -2.9774   18.2694 N   0  0  0  0  0  0  0  0  0  0  0  0
   10.4788   -3.0457   21.8593 C   0  0  0  0  0  0  0  0  0  0  0  0
    8.8693   -5.8099   18.4657 N   0  0  0  0  0  0  0  0  0  0  0  0
    8.9892   -0.7926   25.4573 C   0  0  0  0  0  0  0  0  0  0  0  0
   10.5677   -3.4462   20.5323 C   0  0  0  0  0  0  0  0  0  0  0  0
  1  8  1  0
  1 12  4  0
  1 14  4  0
  2  3  4  0
  2 18  4  0
  3 20  4  0
  3 22  4  0
  4 11  4  0
  4 21  4  0
  5  9  4  0
  5 16  4  0
  6 15  4  0
  6 16  4  0
  7 22  4  0
  7 26  4  0
  8 10  4  0
  8 25  4  0
  9 15  4  0
  9 17  1  0
 10 21  4  0
 11 25  4  0
 12 23  4  0
 13 20  4  0
 13 26  4  0
 14 19  4  0
 17 18  4  0
 17 24  4  0
 19 23  4  0
 20 24  4  0
 23 26  1  0
M  END
$$$$

 Created by Python create_sdf_string function

 26 30  0  0  0  0  0  0  0  0999 V2000
   10.0084   -1.8019   23.4945 C   0  0  0  0  0  0  0  0  0  0  0  0
   10.0005   -4.2520   16.5631 C   0  0  0  0  0  0  0  0  0  0  0  0
   10.2759   -4.0036   17.8845 C   0  0  0  0  0  0  0  0  0  0  0  0
    8.5652    1.5478   25.3778 N   0  0  0  0  0  0  0  0  0  0  0  0
    6.8048   -7.5457   17.8752 C   0  0  0  0  0  0  0  0  0  0  0  0
    6.1721   -8.2186   15.9886 N   0  0  0  0  0  0  0  0  0  0  0  0
   11.1764   -2.6600   19.5604 C   0  0  0  0  0  0  0  0  0  0  0  0
    9.5491   -0.6380   24.1912 C   0  0  0  0  0  0  0  0  0  0  0  0
    7.5337   -6.9256   16.9519 C   0  0  0  0  0  0  0  0  0  0  0  0
    9.6782    0.5671   23.5143 C   0  0  0  0  0  0  0  0  0  0  0  0
    8.4532    0.3482   26.0821 C   0  0  0  0  0  0  0  0  0  0  0  0
   10.4239   -1.7677   22.2230 N   0  0  0  0  0  0  0  0  0  0  0  0
    9.9468   -4.5953   20.1709 C   0  0  0  0  0  0  0  0  0  0  0  0
   10.0366   -3.0590   23.9864 N   0  0  0  0  0  0  0  0  0  0  0  0
    7.1191   -7.3636   15.7739 C   0  0  0  0  0  0  0  0  0  0  0  0
    5.9612   -8.3203   17.2732 N   0  0  0  0  0  0  0  0  0  0  0  0
    8.5296   -5.9814   17.1841 C   0  0  0  0  0  0  0  0  0  0  0  0
    9.1527   -5.2118   16.2116 C   0  0  0  0  0  0  0  0  0  0  0  0
   10.3364   -3.8368   22.9255 O   0  0  0  0  0  0  0  0  0  0  0  0
    9.6947   -4.8407   18.8534 C   0  0  0  0  0  0  0  0  0  0  0  0
    9.1596    1.7042   24.1381 C   0  0  0  0  0  0  0  0  0  0  0  0
   11.0456   -2.9774   18.2694 N   0  0  0  0  0  0  0  0  0  0  0  0
   10.4788   -3.0457   21.8593 C   0  0  0  0  0  0  0  0  0  0  0  0
    8.8693   -5.8099   18.4657 N   0  0  0  0  0  0  0  0  0  0  0  0
    8.9892   -0.7926   25.4573 C   0  0  0  0  0  0  0  0  0  0  0  0
   10.5677   -3.4462   20.5323 C   0  0  0  0  0  0  0  0  0  0  0  0
  1  8  1  0
  1 12  4  0
  1 14  4  0
  2  3  4  0
  2 18  4  0
  3 20  4  0
  3 22  4  0
  4 11  4  0
  4 21  4  0
  5  9  4  0
  5 16  4  0
  6 15  4  0
  6 16  4  0
  7 22  4  0
  7 26  4  0
  8 10  4  0
  8 25  4  0
  9 15  4  0
  9 17  1  0
 10 21  4  0
 11 25  4  0
 12 23  4  0
 13 20  4  0
 13 26  4  0
 14 19  4  0
 17 18  4  0
 17 24  4  0
 19 23  4  0
 20 24  4  0
 23 26  1  0
M  END
$$$$

 Created by Python create_sdf_string function

 26 30  0  0  0  0  0  0  0  0999 V2000
   10.0084   -1.8019   23.4945 C   0  0  0  0  0  0  0  0  0  0  0  0
   10.0005   -4.2520   16.5631 C   0  0  0  0  0  0  0  0  0  0  0  0
   10.2759   -4.0036   17.8845 C   0  0  0  0  0  0  0  0  0  0  0  0
    8.5652    1.5478   25.3778 N   0  0  0  0  0  0  0  0  0  0  0  0
    6.8048   -7.5457   17.8752 C   0  0  0  0  0  0  0  0  0  0  0  0
    6.1721   -8.2186   15.9886 N   0  0  0  0  0  0  0  0  0  0  0  0
   11.1764   -2.6600   19.5604 C   0  0  0  0  0  0  0  0  0  0  0  0
    9.5491   -0.6380   24.1912 C   0  0  0  0  0  0  0  0  0  0  0  0
    7.5337   -6.9256   16.9519 C   0  0  0  0  0  0  0  0  0  0  0  0
    9.6782    0.5671   23.5143 C   0  0  0  0  0  0  0  0  0  0  0  0
    8.4532    0.3482   26.0821 C   0  0  0  0  0  0  0  0  0  0  0  0
   10.4239   -1.7677   22.2230 N   0  0  0  0  0  0  0  0  0  0  0  0
    9.9468   -4.5953   20.1709 C   0  0  0  0  0  0  0  0  0  0  0  0
   10.0366   -3.0590   23.9864 N   0  0  0  0  0  0  0  0  0  0  0  0
    7.1191   -7.3636   15.7739 C   0  0  0  0  0  0  0  0  0  0  0  0
    5.9612   -8.3203   17.2732 N   0  0  0  0  0  0  0  0  0  0  0  0
    8.5296   -5.9814   17.1841 C   0  0  0  0  0  0  0  0  0  0  0  0
    9.1527   -5.2118   16.2116 C   0  0  0  0  0  0  0  0  0  0  0  0
   10.3364   -3.8368   22.9255 O   0  0  0  0  0  0  0  0  0  0  0  0
    9.6947   -4.8407   18.8534 C   0  0  0  0  0  0  0  0  0  0  0  0
    9.1596    1.7042   24.1381 C   0  0  0  0  0  0  0  0  0  0  0  0
   11.0456   -2.9774   18.2694 N   0  0  0  0  0  0  0  0  0  0  0  0
   10.4788   -3.0457   21.8593 C   0  0  0  0  0  0  0  0  0  0  0  0
    8.8693   -5.8099   18.4657 N   0  0  0  0  0  0  0  0  0  0  0  0
    8.9892   -0.7926   25.4573 C   0  0  0  0  0  0  0  0  0  0  0  0
   10.5677   -3.4462   20.5323 C   0  0  0  0  0  0  0  0  0  0  0  0
  1  8  1  0
  1 12  4  0
  1 14  4  0
  2  3  4  0
  2 18  4  0
  3 20  4  0
  3 22  4  0
  4 11  4  0
  4 21  4  0
  5  9  4  0
  5 16  4  0
  6 15  4  0
  6 16  4  0
  7 22  4  0
  7 26  4  0
  8 10  4  0
  8 25  4  0
  9 15  4  0
  9 17  1  0
 10 21  4  0
 11 25  4  0
 12 23  4  0
 13 20  4  0
 13 26  4  0
 14 19  4  0
 17 18  4  0
 17 24  4  0
 19 23  4  0
 20 24  4  0
 23 26  1  0
M  END
$$$$

 Created by Python create_sdf_string function

 26 30  0  0  0  0  0  0  0  0999 V2000
   10.0084   -1.8019   23.4945 C   0  0  0  0  0  0  0  0  0  0  0  0
   10.0005   -4.2520   16.5631 C   0  0  0  0  0  0  0  0  0  0  0  0
   10.2759   -4.0036   17.8845 C   0  0  0  0  0  0  0  0  0  0  0  0
    8.5652    1.5478   25.3778 N   0  0  0  0  0  0  0  0  0  0  0  0
    6.8048   -7.5457   17.8752 C   0  0  0  0  0  0  0  0  0  0  0  0
    6.1721   -8.2186   15.9886 N   0  0  0  0  0  0  0  0  0  0  0  0
   11.1764   -2.6600   19.5604 C   0  0  0  0  0  0  0  0  0  0  0  0
    9.5491   -0.6380   24.1912 C   0  0  0  0  0  0  0  0  0  0  0  0
    7.5337   -6.9256   16.9519 C   0  0  0  0  0  0  0  0  0  0  0  0
    9.6782    0.5671   23.5143 C   0  0  0  0  0  0  0  0  0  0  0  0
    8.4532    0.3482   26.0821 C   0  0  0  0  0  0  0  0  0  0  0  0
   10.4239   -1.7677   22.2230 N   0  0  0  0  0  0  0  0  0  0  0  0
    9.9468   -4.5953   20.1709 C   0  0  0  0  0  0  0  0  0  0  0  0
   10.0366   -3.0590   23.9864 N   0  0  0  0  0  0  0  0  0  0  0  0
    7.1191   -7.3636   15.7739 C   0  0  0  0  0  0  0  0  0  0  0  0
    5.9612   -8.3203   17.2732 N   0  0  0  0  0  0  0  0  0  0  0  0
    8.5296   -5.9814   17.1841 C   0  0  0  0  0  0  0  0  0  0  0  0
    9.1527   -5.2118   16.2116 C   0  0  0  0  0  0  0  0  0  0  0  0
   10.3364   -3.8368   22.9255 O   0  0  0  0  0  0  0  0  0  0  0  0
    9.6947   -4.8407   18.8534 C   0  0  0  0  0  0  0  0  0  0  0  0
    9.1596    1.7042   24.1381 C   0  0  0  0  0  0  0  0  0  0  0  0
   11.0456   -2.9774   18.2694 N   0  0  0  0  0  0  0  0  0  0  0  0
   10.4788   -3.0457   21.8593 C   0  0  0  0  0  0  0  0  0  0  0  0
    8.8693   -5.8099   18.4657 N   0  0  0  0  0  0  0  0  0  0  0  0
    8.9892   -0.7926   25.4573 C   0  0  0  0  0  0  0  0  0  0  0  0
   10.5677   -3.4462   20.5323 C   0  0  0  0  0  0  0  0  0  0  0  0
  1  8  1  0
  1 12  4  0
  1 14  4  0
  2  3  4  0
  2 18  4  0
  3 20  4  0
  3 22  4  0
  4 11  4  0
  4 21  4  0
  5  9  4  0
  5 16  4  0
  6 15  4  0
  6 16  4  0
  7 22  4  0
  7 26  4  0
  8 10  4  0
  8 25  4  0
  9 15  4  0
  9 17  1  0
 10 21  4  0
 11 25  4  0
 12 23  4  0
 13 20  4  0
 13 26  4  0
 14 19  4  0
 17 18  4  0
 17 24  4  0
 19 23  4  0
 20 24  4  0
 23 26  1  0
M  END
$$$$

 Created by Python create_sdf_string function

 26 30  0  0  0  0  0  0  0  0999 V2000
   10.0084   -1.8019   23.4945 C   0  0  0  0  0  0  0  0  0  0  0  0
   10.0005   -4.2520   16.5631 C   0  0  0  0  0  0  0  0  0  0  0  0
   10.2759   -4.0036   17.8845 C   0  0  0  0  0  0  0  0  0  0  0  0
    8.5652    1.5478   25.3778 N   0  0  0  0  0  0  0  0  0  0  0  0
    6.8048   -7.5457   17.8752 C   0  0  0  0  0  0  0  0  0  0  0  0
    6.1721   -8.2186   15.9886 N   0  0  0  0  0  0  0  0  0  0  0  0
   11.1764   -2.6600   19.5604 C   0  0  0  0  0  0  0  0  0  0  0  0
    9.5491   -0.6380   24.1912 C   0  0  0  0  0  0  0  0  0  0  0  0
    7.5337   -6.9256   16.9519 C   0  0  0  0  0  0  0  0  0  0  0  0
    9.6782    0.5671   23.5143 C   0  0  0  0  0  0  0  0  0  0  0  0
    8.4532    0.3482   26.0821 C   0  0  0  0  0  0  0  0  0  0  0  0
   10.4239   -1.7677   22.2230 N   0  0  0  0  0  0  0  0  0  0  0  0
    9.9468   -4.5953   20.1709 C   0  0  0  0  0  0  0  0  0  0  0  0
   10.0366   -3.0590   23.9864 N   0  0  0  0  0  0  0  0  0  0  0  0
    7.1191   -7.3636   15.7739 C   0  0  0  0  0  0  0  0  0  0  0  0
    5.9612   -8.3203   17.2732 N   0  0  0  0  0  0  0  0  0  0  0  0
    8.5296   -5.9814   17.1841 C   0  0  0  0  0  0  0  0  0  0  0  0
    9.1527   -5.2118   16.2116 C   0  0  0  0  0  0  0  0  0  0  0  0
   10.3364   -3.8368   22.9255 O   0  0  0  0  0  0  0  0  0  0  0  0
    9.6947   -4.8407   18.8534 C   0  0  0  0  0  0  0  0  0  0  0  0
    9.1596    1.7042   24.1381 C   0  0  0  0  0  0  0  0  0  0  0  0
   11.0456   -2.9774   18.2694 N   0  0  0  0  0  0  0  0  0  0  0  0
   10.4788   -3.0457   21.8593 C   0  0  0  0  0  0  0  0  0  0  0  0
    8.8693   -5.8099   18.4657 N   0  0  0  0  0  0  0  0  0  0  0  0
    8.9892   -0.7926   25.4573 C   0  0  0  0  0  0  0  0  0  0  0  0
   10.5677   -3.4462   20.5323 C   0  0  0  0  0  0  0  0  0  0  0  0
  1  8  1  0
  1 12  4  0
  1 14  4  0
  2  3  4  0
  2 18  4  0
  3 20  4  0
  3 22  4  0
  4 11  4  0
  4 21  4  0
  5  9  4  0
  5 16  4  0
  6 15  4  0
  6 16  4  0
  7 22  4  0
  7 26  4  0
  8 10  4  0
  8 25  4  0
  9 15  4  0
  9 17  1  0
 10 21  4  0
 11 25  4  0
 12 23  4  0
 13 20  4  0
 13 26  4  0
 14 19  4  0
 17 18  4  0
 17 24  4  0
 19 23  4  0
 20 24  4  0
 23 26  1  0
M  END
$$$$

 Created by Python create_sdf_string function

 26 30  0  0  0  0  0  0  0  0999 V2000
   10.0084   -1.8019   23.4945 C   0  0  0  0  0  0  0  0  0  0  0  0
   10.0005   -4.2520   16.5631 C   0  0  0  0  0  0  0  0  0  0  0  0
   10.2759   -4.0036   17.8845 C   0  0  0  0  0  0  0  0  0  0  0  0
    8.5652    1.5478   25.3778 N   0  0  0  0  0  0  0  0  0  0  0  0
    6.8048   -7.5457   17.8752 C   0  0  0  0  0  0  0  0  0  0  0  0
    6.1721   -8.2186   15.9886 N   0  0  0  0  0  0  0  0  0  0  0  0
   11.1764   -2.6600   19.5604 C   0  0  0  0  0  0  0  0  0  0  0  0
    9.5491   -0.6380   24.1912 C   0  0  0  0  0  0  0  0  0  0  0  0
    7.5337   -6.9256   16.9519 C   0  0  0  0  0  0  0  0  0  0  0  0
    9.6782    0.5671   23.5143 C   0  0  0  0  0  0  0  0  0  0  0  0
    8.4532    0.3482   26.0821 C   0  0  0  0  0  0  0  0  0  0  0  0
   10.4239   -1.7677   22.2230 N   0  0  0  0  0  0  0  0  0  0  0  0
    9.9468   -4.5953   20.1709 C   0  0  0  0  0  0  0  0  0  0  0  0
   10.0366   -3.0590   23.9864 N   0  0  0  0  0  0  0  0  0  0  0  0
    7.1191   -7.3636   15.7739 C   0  0  0  0  0  0  0  0  0  0  0  0
    5.9612   -8.3203   17.2732 N   0  0  0  0  0  0  0  0  0  0  0  0
    8.5296   -5.9814   17.1841 C   0  0  0  0  0  0  0  0  0  0  0  0
    9.1527   -5.2118   16.2116 C   0  0  0  0  0  0  0  0  0  0  0  0
   10.3364   -3.8368   22.9255 O   0  0  0  0  0  0  0  0  0  0  0  0
    9.6947   -4.8407   18.8534 C   0  0  0  0  0  0  0  0  0  0  0  0
    9.1596    1.7042   24.1381 C   0  0  0  0  0  0  0  0  0  0  0  0
   11.0456   -2.9774   18.2694 N   0  0  0  0  0  0  0  0  0  0  0  0
   10.4788   -3.0457   21.8593 C   0  0  0  0  0  0  0  0  0  0  0  0
    8.8693   -5.8099   18.4657 N   0  0  0  0  0  0  0  0  0  0  0  0
    8.9892   -0.7926   25.4573 C   0  0  0  0  0  0  0  0  0  0  0  0
   10.5677   -3.4462   20.5323 C   0  0  0  0  0  0  0  0  0  0  0  0
  1  8  1  0
  1 12  4  0
  1 14  4  0
  2  3  4  0
  2 18  4  0
  3 20  4  0
  3 22  4  0
  4 11  4  0
  4 21  4  0
  5  9  4  0
  5 16  4  0
  6 15  4  0
  6 16  4  0
  7 22  4  0
  7 26  4  0
  8 10  4  0
  8 25  4  0
  9 15  4  0
  9 17  1  0
 10 21  4  0
 11 25  4  0
 12 23  4  0
 13 20  4  0
 13 26  4  0
 14 19  4  0
 17 18  4  0
 17 24  4  0
 19 23  4  0
 20 24  4  0
 23 26  1  0
M  END
$$$$

 Created by Python create_sdf_string function

 26 30  0  0  0  0  0  0  0  0999 V2000
   10.0084   -1.8019   23.4945 C   0  0  0  0  0  0  0  0  0  0  0  0
   10.0005   -4.2520   16.5631 C   0  0  0  0  0  0  0  0  0  0  0  0
   10.2759   -4.0036   17.8845 C   0  0  0  0  0  0  0  0  0  0  0  0
    8.5652    1.5478   25.3778 N   0  0  0  0  0  0  0  0  0  0  0  0
    6.8048   -7.5457   17.8752 C   0  0  0  0  0  0  0  0  0  0  0  0
    6.1721   -8.2186   15.9886 N   0  0  0  0  0  0  0  0  0  0  0  0
   11.1764   -2.6600   19.5604 C   0  0  0  0  0  0  0  0  0  0  0  0
    9.5491   -0.6380   24.1912 C   0  0  0  0  0  0  0  0  0  0  0  0
    7.5337   -6.9256   16.9519 C   0  0  0  0  0  0  0  0  0  0  0  0
    9.6782    0.5671   23.5143 C   0  0  0  0  0  0  0  0  0  0  0  0
    8.4532    0.3482   26.0821 C   0  0  0  0  0  0  0  0  0  0  0  0
   10.4239   -1.7677   22.2230 N   0  0  0  0  0  0  0  0  0  0  0  0
    9.9468   -4.5953   20.1709 C   0  0  0  0  0  0  0  0  0  0  0  0
   10.0366   -3.0590   23.9864 N   0  0  0  0  0  0  0  0  0  0  0  0
    7.1191   -7.3636   15.7739 C   0  0  0  0  0  0  0  0  0  0  0  0
    5.9612   -8.3203   17.2732 N   0  0  0  0  0  0  0  0  0  0  0  0
    8.5296   -5.9814   17.1841 C   0  0  0  0  0  0  0  0  0  0  0  0
    9.1527   -5.2118   16.2116 C   0  0  0  0  0  0  0  0  0  0  0  0
   10.3364   -3.8368   22.9255 O   0  0  0  0  0  0  0  0  0  0  0  0
    9.6947   -4.8407   18.8534 C   0  0  0  0  0  0  0  0  0  0  0  0
    9.1596    1.7042   24.1381 C   0  0  0  0  0  0  0  0  0  0  0  0
   11.0456   -2.9774   18.2694 N   0  0  0  0  0  0  0  0  0  0  0  0
   10.4788   -3.0457   21.8593 C   0  0  0  0  0  0  0  0  0  0  0  0
    8.8693   -5.8099   18.4657 N   0  0  0  0  0  0  0  0  0  0  0  0
    8.9892   -0.7926   25.4573 C   0  0  0  0  0  0  0  0  0  0  0  0
   10.5677   -3.4462   20.5323 C   0  0  0  0  0  0  0  0  0  0  0  0
  1  8  1  0
  1 12  4  0
  1 14  4  0
  2  3  4  0
  2 18  4  0
  3 20  4  0
  3 22  4  0
  4 11  4  0
  4 21  4  0
  5  9  4  0
  5 16  4  0
  6 15  4  0
  6 16  4  0
  7 22  4  0
  7 26  4  0
  8 10  4  0
  8 25  4  0
  9 15  4  0
  9 17  1  0
 10 21  4  0
 11 25  4  0
 12 23  4  0
 13 20  4  0
 13 26  4  0
 14 19  4  0
 17 18  4  0
 17 24  4  0
 19 23  4  0
 20 24  4  0
 23 26  1  0
M  END
$$$$

 Created by Python create_sdf_string function

 26 30  0  0  0  0  0  0  0  0999 V2000
   10.0084   -1.8019   23.4945 C   0  0  0  0  0  0  0  0  0  0  0  0
   10.0005   -4.2520   16.5631 C   0  0  0  0  0  0  0  0  0  0  0  0
   10.2759   -4.0036   17.8845 C   0  0  0  0  0  0  0  0  0  0  0  0
    8.5652    1.5478   25.3778 N   0  0  0  0  0  0  0  0  0  0  0  0
    6.8048   -7.5457   17.8752 C   0  0  0  0  0  0  0  0  0  0  0  0
    6.1721   -8.2186   15.9886 N   0  0  0  0  0  0  0  0  0  0  0  0
   11.1764   -2.6600   19.5604 C   0  0  0  0  0  0  0  0  0  0  0  0
    9.5491   -0.6380   24.1912 C   0  0  0  0  0  0  0  0  0  0  0  0
    7.5337   -6.9256   16.9519 C   0  0  0  0  0  0  0  0  0  0  0  0
    9.6782    0.5671   23.5143 C   0  0  0  0  0  0  0  0  0  0  0  0
    8.4532    0.3482   26.0821 C   0  0  0  0  0  0  0  0  0  0  0  0
   10.4239   -1.7677   22.2230 N   0  0  0  0  0  0  0  0  0  0  0  0
    9.9468   -4.5953   20.1709 C   0  0  0  0  0  0  0  0  0  0  0  0
   10.0366   -3.0590   23.9864 N   0  0  0  0  0  0  0  0  0  0  0  0
    7.1191   -7.3636   15.7739 C   0  0  0  0  0  0  0  0  0  0  0  0
    5.9612   -8.3203   17.2732 N   0  0  0  0  0  0  0  0  0  0  0  0
    8.5296   -5.9814   17.1841 C   0  0  0  0  0  0  0  0  0  0  0  0
    9.1527   -5.2118   16.2116 C   0  0  0  0  0  0  0  0  0  0  0  0
   10.3364   -3.8368   22.9255 O   0  0  0  0  0  0  0  0  0  0  0  0
    9.6947   -4.8407   18.8534 C   0  0  0  0  0  0  0  0  0  0  0  0
    9.1596    1.7042   24.1381 C   0  0  0  0  0  0  0  0  0  0  0  0
   11.0456   -2.9774   18.2694 N   0  0  0  0  0  0  0  0  0  0  0  0
   10.4788   -3.0457   21.8593 C   0  0  0  0  0  0  0  0  0  0  0  0
    8.8693   -5.8099   18.4657 N   0  0  0  0  0  0  0  0  0  0  0  0
    8.9892   -0.7926   25.4573 C   0  0  0  0  0  0  0  0  0  0  0  0
   10.5677   -3.4462   20.5323 C   0  0  0  0  0  0  0  0  0  0  0  0
  1  8  1  0
  1 12  4  0
  1 14  4  0
  2  3  4  0
  2 18  4  0
  3 20  4  0
  3 22  4  0
  4 11  4  0
  4 21  4  0
  5  9  4  0
  5 16  4  0
  6 15  4  0
  6 16  4  0
  7 22  4  0
  7 26  4  0
  8 10  4  0
  8 25  4  0
  9 15  4  0
  9 17  1  0
 10 21  4  0
 11 25  4  0
 12 23  4  0
 13 20  4  0
 13 26  4  0
 14 19  4  0
 17 18  4  0
 17 24  4  0
 19 23  4  0
 20 24  4  0
 23 26  1  0
M  END
$$$$

 Created by Python create_sdf_string function

 26 30  0  0  0  0  0  0  0  0999 V2000
   10.0084   -1.8019   23.4945 C   0  0  0  0  0  0  0  0  0  0  0  0
   10.0005   -4.2520   16.5631 C   0  0  0  0  0  0  0  0  0  0  0  0
   10.2759   -4.0036   17.8845 C   0  0  0  0  0  0  0  0  0  0  0  0
    8.5652    1.5478   25.3778 N   0  0  0  0  0  0  0  0  0  0  0  0
    6.8048   -7.5457   17.8752 C   0  0  0  0  0  0  0  0  0  0  0  0
    6.1721   -8.2186   15.9886 N   0  0  0  0  0  0  0  0  0  0  0  0
   11.1764   -2.6600   19.5604 C   0  0  0  0  0  0  0  0  0  0  0  0
    9.5491   -0.6380   24.1912 C   0  0  0  0  0  0  0  0  0  0  0  0
    7.5337   -6.9256   16.9519 C   0  0  0  0  0  0  0  0  0  0  0  0
    9.6782    0.5671   23.5143 C   0  0  0  0  0  0  0  0  0  0  0  0
    8.4532    0.3482   26.0821 C   0  0  0  0  0  0  0  0  0  0  0  0
   10.4239   -1.7677   22.2230 N   0  0  0  0  0  0  0  0  0  0  0  0
    9.9468   -4.5953   20.1709 C   0  0  0  0  0  0  0  0  0  0  0  0
   10.0366   -3.0590   23.9864 N   0  0  0  0  0  0  0  0  0  0  0  0
    7.1191   -7.3636   15.7739 C   0  0  0  0  0  0  0  0  0  0  0  0
    5.9612   -8.3203   17.2732 N   0  0  0  0  0  0  0  0  0  0  0  0
    8.5296   -5.9814   17.1841 C   0  0  0  0  0  0  0  0  0  0  0  0
    9.1527   -5.2118   16.2116 C   0  0  0  0  0  0  0  0  0  0  0  0
   10.3364   -3.8368   22.9255 O   0  0  0  0  0  0  0  0  0  0  0  0
    9.6947   -4.8407   18.8534 C   0  0  0  0  0  0  0  0  0  0  0  0
    9.1596    1.7042   24.1381 C   0  0  0  0  0  0  0  0  0  0  0  0
   11.0456   -2.9774   18.2694 N   0  0  0  0  0  0  0  0  0  0  0  0
   10.4788   -3.0457   21.8593 C   0  0  0  0  0  0  0  0  0  0  0  0
    8.8693   -5.8099   18.4657 N   0  0  0  0  0  0  0  0  0  0  0  0
    8.9892   -0.7926   25.4573 C   0  0  0  0  0  0  0  0  0  0  0  0
   10.5677   -3.4462   20.5323 C   0  0  0  0  0  0  0  0  0  0  0  0
  1  8  1  0
  1 12  4  0
  1 14  4  0
  2  3  4  0
  2 18  4  0
  3 20  4  0
  3 22  4  0
  4 11  4  0
  4 21  4  0
  5  9  4  0
  5 16  4  0
  6 15  4  0
  6 16  4  0
  7 22  4  0
  7 26  4  0
  8 10  4  0
  8 25  4  0
  9 15  4  0
  9 17  1  0
 10 21  4  0
 11 25  4  0
 12 23  4  0
 13 20  4  0
 13 26  4  0
 14 19  4  0
 17 18  4  0
 17 24  4  0
 19 23  4  0
 20 24  4  0
 23 26  1  0
M  END
$$$$

 Created by Python create_sdf_string function

 26 30  0  0  0  0  0  0  0  0999 V2000
   10.0084   -1.8019   23.4945 C   0  0  0  0  0  0  0  0  0  0  0  0
   10.0005   -4.2520   16.5631 C   0  0  0  0  0  0  0  0  0  0  0  0
   10.2759   -4.0036   17.8845 C   0  0  0  0  0  0  0  0  0  0  0  0
    8.5652    1.5478   25.3778 N   0  0  0  0  0  0  0  0  0  0  0  0
    6.8048   -7.5457   17.8752 C   0  0  0  0  0  0  0  0  0  0  0  0
    6.1721   -8.2186   15.9886 N   0  0  0  0  0  0  0  0  0  0  0  0
   11.1764   -2.6600   19.5604 C   0  0  0  0  0  0  0  0  0  0  0  0
    9.5491   -0.6380   24.1912 C   0  0  0  0  0  0  0  0  0  0  0  0
    7.5337   -6.9256   16.9519 C   0  0  0  0  0  0  0  0  0  0  0  0
    9.6782    0.5671   23.5143 C   0  0  0  0  0  0  0  0  0  0  0  0
    8.4532    0.3482   26.0821 C   0  0  0  0  0  0  0  0  0  0  0  0
   10.4239   -1.7677   22.2230 N   0  0  0  0  0  0  0  0  0  0  0  0
    9.9468   -4.5953   20.1709 C   0  0  0  0  0  0  0  0  0  0  0  0
   10.0366   -3.0590   23.9864 N   0  0  0  0  0  0  0  0  0  0  0  0
    7.1191   -7.3636   15.7739 C   0  0  0  0  0  0  0  0  0  0  0  0
    5.9612   -8.3203   17.2732 N   0  0  0  0  0  0  0  0  0  0  0  0
    8.5296   -5.9814   17.1841 C   0  0  0  0  0  0  0  0  0  0  0  0
    9.1527   -5.2118   16.2116 C   0  0  0  0  0  0  0  0  0  0  0  0
   10.3364   -3.8368   22.9255 O   0  0  0  0  0  0  0  0  0  0  0  0
    9.6947   -4.8407   18.8534 C   0  0  0  0  0  0  0  0  0  0  0  0
    9.1596    1.7042   24.1381 C   0  0  0  0  0  0  0  0  0  0  0  0
   11.0456   -2.9774   18.2694 N   0  0  0  0  0  0  0  0  0  0  0  0
   10.4788   -3.0457   21.8593 C   0  0  0  0  0  0  0  0  0  0  0  0
    8.8693   -5.8099   18.4657 N   0  0  0  0  0  0  0  0  0  0  0  0
    8.9892   -0.7926   25.4573 C   0  0  0  0  0  0  0  0  0  0  0  0
   10.5677   -3.4462   20.5323 C   0  0  0  0  0  0  0  0  0  0  0  0
  1  8  1  0
  1 12  4  0
  1 14  4  0
  2  3  4  0
  2 18  4  0
  3 20  4  0
  3 22  4  0
  4 11  4  0
  4 21  4  0
  5  9  4  0
  5 16  4  0
  6 15  4  0
  6 16  4  0
  7 22  4  0
  7 26  4  0
  8 10  4  0
  8 25  4  0
  9 15  4  0
  9 17  1  0
 10 21  4  0
 11 25  4  0
 12 23  4  0
 13 20  4  0
 13 26  4  0
 14 19  4  0
 17 18  4  0
 17 24  4  0
 19 23  4  0
 20 24  4  0
 23 26  1  0
M  END
$$$$

 Created by Python create_sdf_string function

 26 30  0  0  0  0  0  0  0  0999 V2000
   10.0084   -1.8019   23.4945 C   0  0  0  0  0  0  0  0  0  0  0  0
   10.0005   -4.2520   16.5631 C   0  0  0  0  0  0  0  0  0  0  0  0
   10.2759   -4.0036   17.8845 C   0  0  0  0  0  0  0  0  0  0  0  0
    8.5652    1.5478   25.3778 N   0  0  0  0  0  0  0  0  0  0  0  0
    6.8048   -7.5457   17.8752 C   0  0  0  0  0  0  0  0  0  0  0  0
    6.1721   -8.2186   15.9886 N   0  0  0  0  0  0  0  0  0  0  0  0
   11.1764   -2.6600   19.5604 C   0  0  0  0  0  0  0  0  0  0  0  0
    9.5491   -0.6380   24.1912 C   0  0  0  0  0  0  0  0  0  0  0  0
    7.5337   -6.9256   16.9519 C   0  0  0  0  0  0  0  0  0  0  0  0
    9.6782    0.5671   23.5143 C   0  0  0  0  0  0  0  0  0  0  0  0
    8.4532    0.3482   26.0821 C   0  0  0  0  0  0  0  0  0  0  0  0
   10.4239   -1.7677   22.2230 N   0  0  0  0  0  0  0  0  0  0  0  0
    9.9468   -4.5953   20.1709 C   0  0  0  0  0  0  0  0  0  0  0  0
   10.0366   -3.0590   23.9864 N   0  0  0  0  0  0  0  0  0  0  0  0
    7.1191   -7.3636   15.7739 C   0  0  0  0  0  0  0  0  0  0  0  0
    5.9612   -8.3203   17.2732 N   0  0  0  0  0  0  0  0  0  0  0  0
    8.5296   -5.9814   17.1841 C   0  0  0  0  0  0  0  0  0  0  0  0
    9.1527   -5.2118   16.2116 C   0  0  0  0  0  0  0  0  0  0  0  0
   10.3364   -3.8368   22.9255 O   0  0  0  0  0  0  0  0  0  0  0  0
    9.6947   -4.8407   18.8534 C   0  0  0  0  0  0  0  0  0  0  0  0
    9.1596    1.7042   24.1381 C   0  0  0  0  0  0  0  0  0  0  0  0
   11.0456   -2.9774   18.2694 N   0  0  0  0  0  0  0  0  0  0  0  0
   10.4788   -3.0457   21.8593 C   0  0  0  0  0  0  0  0  0  0  0  0
    8.8693   -5.8099   18.4657 N   0  0  0  0  0  0  0  0  0  0  0  0
    8.9892   -0.7926   25.4573 C   0  0  0  0  0  0  0  0  0  0  0  0
   10.5677   -3.4462   20.5323 C   0  0  0  0  0  0  0  0  0  0  0  0
  1  8  1  0
  1 12  4  0
  1 14  4  0
  2  3  4  0
  2 18  4  0
  3 20  4  0
  3 22  4  0
  4 11  4  0
  4 21  4  0
  5  9  4  0
  5 16  4  0
  6 15  4  0
  6 16  4  0
  7 22  4  0
  7 26  4  0
  8 10  4  0
  8 25  4  0
  9 15  4  0
  9 17  1  0
 10 21  4  0
 11 25  4  0
 12 23  4  0
 13 20  4  0
 13 26  4  0
 14 19  4  0
 17 18  4  0
 17 24  4  0
 19 23  4  0
 20 24  4  0
 23 26  1  0
M  END
$$$$

 Created by Python create_sdf_string function

 26 30  0  0  0  0  0  0  0  0999 V2000
   10.0084   -1.8019   23.4945 C   0  0  0  0  0  0  0  0  0  0  0  0
   10.0005   -4.2520   16.5631 C   0  0  0  0  0  0  0  0  0  0  0  0
   10.2759   -4.0036   17.8845 C   0  0  0  0  0  0  0  0  0  0  0  0
    8.5652    1.5478   25.3778 N   0  0  0  0  0  0  0  0  0  0  0  0
    6.8048   -7.5457   17.8752 C   0  0  0  0  0  0  0  0  0  0  0  0
    6.1721   -8.2186   15.9886 N   0  0  0  0  0  0  0  0  0  0  0  0
   11.1764   -2.6600   19.5604 C   0  0  0  0  0  0  0  0  0  0  0  0
    9.5491   -0.6380   24.1912 C   0  0  0  0  0  0  0  0  0  0  0  0
    7.5337   -6.9256   16.9519 C   0  0  0  0  0  0  0  0  0  0  0  0
    9.6782    0.5671   23.5143 C   0  0  0  0  0  0  0  0  0  0  0  0
    8.4532    0.3482   26.0821 C   0  0  0  0  0  0  0  0  0  0  0  0
   10.4239   -1.7677   22.2230 N   0  0  0  0  0  0  0  0  0  0  0  0
    9.9468   -4.5953   20.1709 C   0  0  0  0  0  0  0  0  0  0  0  0
   10.0366   -3.0590   23.9864 N   0  0  0  0  0  0  0  0  0  0  0  0
    7.1191   -7.3636   15.7739 C   0  0  0  0  0  0  0  0  0  0  0  0
    5.9612   -8.3203   17.2732 N   0  0  0  0  0  0  0  0  0  0  0  0
    8.5296   -5.9814   17.1841 C   0  0  0  0  0  0  0  0  0  0  0  0
    9.1527   -5.2118   16.2116 C   0  0  0  0  0  0  0  0  0  0  0  0
   10.3364   -3.8368   22.9255 O   0  0  0  0  0  0  0  0  0  0  0  0
    9.6947   -4.8407   18.8534 C   0  0  0  0  0  0  0  0  0  0  0  0
    9.1596    1.7042   24.1381 C   0  0  0  0  0  0  0  0  0  0  0  0
   11.0456   -2.9774   18.2694 N   0  0  0  0  0  0  0  0  0  0  0  0
   10.4788   -3.0457   21.8593 C   0  0  0  0  0  0  0  0  0  0  0  0
    8.8693   -5.8099   18.4657 N   0  0  0  0  0  0  0  0  0  0  0  0
    8.9892   -0.7926   25.4573 C   0  0  0  0  0  0  0  0  0  0  0  0
   10.5677   -3.4462   20.5323 C   0  0  0  0  0  0  0  0  0  0  0  0
  1  8  1  0
  1 12  4  0
  1 14  4  0
  2  3  4  0
  2 18  4  0
  3 20  4  0
  3 22  4  0
  4 11  4  0
  4 21  4  0
  5  9  4  0
  5 16  4  0
  6 15  4  0
  6 16  4  0
  7 22  4  0
  7 26  4  0
  8 10  4  0
  8 25  4  0
  9 15  4  0
  9 17  1  0
 10 21  4  0
 11 25  4  0
 12 23  4  0
 13 20  4  0
 13 26  4  0
 14 19  4  0
 17 18  4  0
 17 24  4  0
 19 23  4  0
 20 24  4  0
 23 26  1  0
M  END
$$$$

 Created by Python create_sdf_string function

 26 30  0  0  0  0  0  0  0  0999 V2000
   10.0084   -1.8019   23.4945 C   0  0  0  0  0  0  0  0  0  0  0  0
   10.0005   -4.2520   16.5631 C   0  0  0  0  0  0  0  0  0  0  0  0
   10.2759   -4.0036   17.8845 C   0  0  0  0  0  0  0  0  0  0  0  0
    8.5652    1.5478   25.3778 N   0  0  0  0  0  0  0  0  0  0  0  0
    6.8048   -7.5457   17.8752 C   0  0  0  0  0  0  0  0  0  0  0  0
    6.1721   -8.2186   15.9886 N   0  0  0  0  0  0  0  0  0  0  0  0
   11.1764   -2.6600   19.5604 C   0  0  0  0  0  0  0  0  0  0  0  0
    9.5491   -0.6380   24.1912 C   0  0  0  0  0  0  0  0  0  0  0  0
    7.5337   -6.9256   16.9519 C   0  0  0  0  0  0  0  0  0  0  0  0
    9.6782    0.5671   23.5143 C   0  0  0  0  0  0  0  0  0  0  0  0
    8.4532    0.3482   26.0821 C   0  0  0  0  0  0  0  0  0  0  0  0
   10.4239   -1.7677   22.2230 N   0  0  0  0  0  0  0  0  0  0  0  0
    9.9468   -4.5953   20.1709 C   0  0  0  0  0  0  0  0  0  0  0  0
   10.0366   -3.0590   23.9864 N   0  0  0  0  0  0  0  0  0  0  0  0
    7.1191   -7.3636   15.7739 C   0  0  0  0  0  0  0  0  0  0  0  0
    5.9612   -8.3203   17.2732 N   0  0  0  0  0  0  0  0  0  0  0  0
    8.5296   -5.9814   17.1841 C   0  0  0  0  0  0  0  0  0  0  0  0
    9.1527   -5.2118   16.2116 C   0  0  0  0  0  0  0  0  0  0  0  0
   10.3364   -3.8368   22.9255 O   0  0  0  0  0  0  0  0  0  0  0  0
    9.6947   -4.8407   18.8534 C   0  0  0  0  0  0  0  0  0  0  0  0
    9.1596    1.7042   24.1381 C   0  0  0  0  0  0  0  0  0  0  0  0
   11.0456   -2.9774   18.2694 N   0  0  0  0  0  0  0  0  0  0  0  0
   10.4788   -3.0457   21.8593 C   0  0  0  0  0  0  0  0  0  0  0  0
    8.8693   -5.8099   18.4657 N   0  0  0  0  0  0  0  0  0  0  0  0
    8.9892   -0.7926   25.4573 C   0  0  0  0  0  0  0  0  0  0  0  0
   10.5677   -3.4462   20.5323 C   0  0  0  0  0  0  0  0  0  0  0  0
  1  8  1  0
  1 12  4  0
  1 14  4  0
  2  3  4  0
  2 18  4  0
  3 20  4  0
  3 22  4  0
  4 11  4  0
  4 21  4  0
  5  9  4  0
  5 16  4  0
  6 15  4  0
  6 16  4  0
  7 22  4  0
  7 26  4  0
  8 10  4  0
  8 25  4  0
  9 15  4  0
  9 17  1  0
 10 21  4  0
 11 25  4  0
 12 23  4  0
 13 20  4  0
 13 26  4  0
 14 19  4  0
 17 18  4  0
 17 24  4  0
 19 23  4  0
 20 24  4  0
 23 26  1  0
M  END
$$$$

 Created by Python create_sdf_string function

 26 30  0  0  0  0  0  0  0  0999 V2000
   10.0084   -1.8019   23.4945 C   0  0  0  0  0  0  0  0  0  0  0  0
   10.0005   -4.2520   16.5631 C   0  0  0  0  0  0  0  0  0  0  0  0
   10.2759   -4.0036   17.8845 C   0  0  0  0  0  0  0  0  0  0  0  0
    8.5652    1.5478   25.3778 N   0  0  0  0  0  0  0  0  0  0  0  0
    6.8048   -7.5457   17.8752 C   0  0  0  0  0  0  0  0  0  0  0  0
    6.1721   -8.2186   15.9886 N   0  0  0  0  0  0  0  0  0  0  0  0
   11.1764   -2.6600   19.5604 C   0  0  0  0  0  0  0  0  0  0  0  0
    9.5491   -0.6380   24.1912 C   0  0  0  0  0  0  0  0  0  0  0  0
    7.5337   -6.9256   16.9519 C   0  0  0  0  0  0  0  0  0  0  0  0
    9.6782    0.5671   23.5143 C   0  0  0  0  0  0  0  0  0  0  0  0
    8.4532    0.3482   26.0821 C   0  0  0  0  0  0  0  0  0  0  0  0
   10.4239   -1.7677   22.2230 N   0  0  0  0  0  0  0  0  0  0  0  0
    9.9468   -4.5953   20.1709 C   0  0  0  0  0  0  0  0  0  0  0  0
   10.0366   -3.0590   23.9864 N   0  0  0  0  0  0  0  0  0  0  0  0
    7.1191   -7.3636   15.7739 C   0  0  0  0  0  0  0  0  0  0  0  0
    5.9612   -8.3203   17.2732 N   0  0  0  0  0  0  0  0  0  0  0  0
    8.5296   -5.9814   17.1841 C   0  0  0  0  0  0  0  0  0  0  0  0
    9.1527   -5.2118   16.2116 C   0  0  0  0  0  0  0  0  0  0  0  0
   10.3364   -3.8368   22.9255 O   0  0  0  0  0  0  0  0  0  0  0  0
    9.6947   -4.8407   18.8534 C   0  0  0  0  0  0  0  0  0  0  0  0
    9.1596    1.7042   24.1381 C   0  0  0  0  0  0  0  0  0  0  0  0
   11.0456   -2.9774   18.2694 N   0  0  0  0  0  0  0  0  0  0  0  0
   10.4788   -3.0457   21.8593 C   0  0  0  0  0  0  0  0  0  0  0  0
    8.8693   -5.8099   18.4657 N   0  0  0  0  0  0  0  0  0  0  0  0
    8.9892   -0.7926   25.4573 C   0  0  0  0  0  0  0  0  0  0  0  0
   10.5677   -3.4462   20.5323 C   0  0  0  0  0  0  0  0  0  0  0  0
  1  8  1  0
  1 12  4  0
  1 14  4  0
  2  3  4  0
  2 18  4  0
  3 20  4  0
  3 22  4  0
  4 11  4  0
  4 21  4  0
  5  9  4  0
  5 16  4  0
  6 15  4  0
  6 16  4  0
  7 22  4  0
  7 26  4  0
  8 10  4  0
  8 25  4  0
  9 15  4  0
  9 17  1  0
 10 21  4  0
 11 25  4  0
 12 23  4  0
 13 20  4  0
 13 26  4  0
 14 19  4  0
 17 18  4  0
 17 24  4  0
 19 23  4  0
 20 24  4  0
 23 26  1  0
M  END
$$$$

 Created by Python create_sdf_string function

 26 30  0  0  0  0  0  0  0  0999 V2000
   10.0084   -1.8019   23.4945 C   0  0  0  0  0  0  0  0  0  0  0  0
   10.0005   -4.2520   16.5631 C   0  0  0  0  0  0  0  0  0  0  0  0
   10.2759   -4.0036   17.8845 C   0  0  0  0  0  0  0  0  0  0  0  0
    8.5652    1.5478   25.3778 N   0  0  0  0  0  0  0  0  0  0  0  0
    6.8048   -7.5457   17.8752 C   0  0  0  0  0  0  0  0  0  0  0  0
    6.1721   -8.2186   15.9886 N   0  0  0  0  0  0  0  0  0  0  0  0
   11.1764   -2.6600   19.5604 C   0  0  0  0  0  0  0  0  0  0  0  0
    9.5491   -0.6380   24.1912 C   0  0  0  0  0  0  0  0  0  0  0  0
    7.5337   -6.9256   16.9519 C   0  0  0  0  0  0  0  0  0  0  0  0
    9.6782    0.5671   23.5143 C   0  0  0  0  0  0  0  0  0  0  0  0
    8.4532    0.3482   26.0821 C   0  0  0  0  0  0  0  0  0  0  0  0
   10.4239   -1.7677   22.2230 N   0  0  0  0  0  0  0  0  0  0  0  0
    9.9468   -4.5953   20.1709 C   0  0  0  0  0  0  0  0  0  0  0  0
   10.0366   -3.0590   23.9864 N   0  0  0  0  0  0  0  0  0  0  0  0
    7.1191   -7.3636   15.7739 C   0  0  0  0  0  0  0  0  0  0  0  0
    5.9612   -8.3203   17.2732 N   0  0  0  0  0  0  0  0  0  0  0  0
    8.5296   -5.9814   17.1841 C   0  0  0  0  0  0  0  0  0  0  0  0
    9.1527   -5.2118   16.2116 C   0  0  0  0  0  0  0  0  0  0  0  0
   10.3364   -3.8368   22.9255 O   0  0  0  0  0  0  0  0  0  0  0  0
    9.6947   -4.8407   18.8534 C   0  0  0  0  0  0  0  0  0  0  0  0
    9.1596    1.7042   24.1381 C   0  0  0  0  0  0  0  0  0  0  0  0
   11.0456   -2.9774   18.2694 N   0  0  0  0  0  0  0  0  0  0  0  0
   10.4788   -3.0457   21.8593 C   0  0  0  0  0  0  0  0  0  0  0  0
    8.8693   -5.8099   18.4657 N   0  0  0  0  0  0  0  0  0  0  0  0
    8.9892   -0.7926   25.4573 C   0  0  0  0  0  0  0  0  0  0  0  0
   10.5677   -3.4462   20.5323 C   0  0  0  0  0  0  0  0  0  0  0  0
  1  8  1  0
  1 12  4  0
  1 14  4  0
  2  3  4  0
  2 18  4  0
  3 20  4  0
  3 22  4  0
  4 11  4  0
  4 21  4  0
  5  9  4  0
  5 16  4  0
  6 15  4  0
  6 16  4  0
  7 22  4  0
  7 26  4  0
  8 10  4  0
  8 25  4  0
  9 15  4  0
  9 17  1  0
 10 21  4  0
 11 25  4  0
 12 23  4  0
 13 20  4  0
 13 26  4  0
 14 19  4  0
 17 18  4  0
 17 24  4  0
 19 23  4  0
 20 24  4  0
 23 26  1  0
M  END
$$$$

 Created by Python create_sdf_string function

 26 30  0  0  0  0  0  0  0  0999 V2000
   10.0084   -1.8019   23.4945 C   0  0  0  0  0  0  0  0  0  0  0  0
   10.0005   -4.2520   16.5631 C   0  0  0  0  0  0  0  0  0  0  0  0
   10.2759   -4.0036   17.8845 C   0  0  0  0  0  0  0  0  0  0  0  0
    8.5652    1.5478   25.3778 N   0  0  0  0  0  0  0  0  0  0  0  0
    6.8048   -7.5457   17.8752 C   0  0  0  0  0  0  0  0  0  0  0  0
    6.1721   -8.2186   15.9886 N   0  0  0  0  0  0  0  0  0  0  0  0
   11.1764   -2.6600   19.5604 C   0  0  0  0  0  0  0  0  0  0  0  0
    9.5491   -0.6380   24.1912 C   0  0  0  0  0  0  0  0  0  0  0  0
    7.5337   -6.9256   16.9519 C   0  0  0  0  0  0  0  0  0  0  0  0
    9.6782    0.5671   23.5143 C   0  0  0  0  0  0  0  0  0  0  0  0
    8.4532    0.3482   26.0821 C   0  0  0  0  0  0  0  0  0  0  0  0
   10.4239   -1.7677   22.2230 N   0  0  0  0  0  0  0  0  0  0  0  0
    9.9468   -4.5953   20.1709 C   0  0  0  0  0  0  0  0  0  0  0  0
   10.0366   -3.0590   23.9864 N   0  0  0  0  0  0  0  0  0  0  0  0
    7.1191   -7.3636   15.7739 C   0  0  0  0  0  0  0  0  0  0  0  0
    5.9612   -8.3203   17.2732 N   0  0  0  0  0  0  0  0  0  0  0  0
    8.5296   -5.9814   17.1841 C   0  0  0  0  0  0  0  0  0  0  0  0
    9.1527   -5.2118   16.2116 C   0  0  0  0  0  0  0  0  0  0  0  0
   10.3364   -3.8368   22.9255 O   0  0  0  0  0  0  0  0  0  0  0  0
    9.6947   -4.8407   18.8534 C   0  0  0  0  0  0  0  0  0  0  0  0
    9.1596    1.7042   24.1381 C   0  0  0  0  0  0  0  0  0  0  0  0
   11.0456   -2.9774   18.2694 N   0  0  0  0  0  0  0  0  0  0  0  0
   10.4788   -3.0457   21.8593 C   0  0  0  0  0  0  0  0  0  0  0  0
    8.8693   -5.8099   18.4657 N   0  0  0  0  0  0  0  0  0  0  0  0
    8.9892   -0.7926   25.4573 C   0  0  0  0  0  0  0  0  0  0  0  0
   10.5677   -3.4462   20.5323 C   0  0  0  0  0  0  0  0  0  0  0  0
  1  8  1  0
  1 12  4  0
  1 14  4  0
  2  3  4  0
  2 18  4  0
  3 20  4  0
  3 22  4  0
  4 11  4  0
  4 21  4  0
  5  9  4  0
  5 16  4  0
  6 15  4  0
  6 16  4  0
  7 22  4  0
  7 26  4  0
  8 10  4  0
  8 25  4  0
  9 15  4  0
  9 17  1  0
 10 21  4  0
 11 25  4  0
 12 23  4  0
 13 20  4  0
 13 26  4  0
 14 19  4  0
 17 18  4  0
 17 24  4  0
 19 23  4  0
 20 24  4  0
 23 26  1  0
M  END
$$$$

 Created by Python create_sdf_string function

 26 30  0  0  0  0  0  0  0  0999 V2000
   10.0084   -1.8019   23.4945 C   0  0  0  0  0  0  0  0  0  0  0  0
   10.0005   -4.2520   16.5631 C   0  0  0  0  0  0  0  0  0  0  0  0
   10.2759   -4.0036   17.8845 C   0  0  0  0  0  0  0  0  0  0  0  0
    8.5652    1.5478   25.3778 N   0  0  0  0  0  0  0  0  0  0  0  0
    6.8048   -7.5457   17.8752 C   0  0  0  0  0  0  0  0  0  0  0  0
    6.1721   -8.2186   15.9886 N   0  0  0  0  0  0  0  0  0  0  0  0
   11.1764   -2.6600   19.5604 C   0  0  0  0  0  0  0  0  0  0  0  0
    9.5491   -0.6380   24.1912 C   0  0  0  0  0  0  0  0  0  0  0  0
    7.5337   -6.9256   16.9519 C   0  0  0  0  0  0  0  0  0  0  0  0
    9.6782    0.5671   23.5143 C   0  0  0  0  0  0  0  0  0  0  0  0
    8.4532    0.3482   26.0821 C   0  0  0  0  0  0  0  0  0  0  0  0
   10.4239   -1.7677   22.2230 N   0  0  0  0  0  0  0  0  0  0  0  0
    9.9468   -4.5953   20.1709 C   0  0  0  0  0  0  0  0  0  0  0  0
   10.0366   -3.0590   23.9864 N   0  0  0  0  0  0  0  0  0  0  0  0
    7.1191   -7.3636   15.7739 C   0  0  0  0  0  0  0  0  0  0  0  0
    5.9612   -8.3203   17.2732 N   0  0  0  0  0  0  0  0  0  0  0  0
    8.5296   -5.9814   17.1841 C   0  0  0  0  0  0  0  0  0  0  0  0
    9.1527   -5.2118   16.2116 C   0  0  0  0  0  0  0  0  0  0  0  0
   10.3364   -3.8368   22.9255 O   0  0  0  0  0  0  0  0  0  0  0  0
    9.6947   -4.8407   18.8534 C   0  0  0  0  0  0  0  0  0  0  0  0
    9.1596    1.7042   24.1381 C   0  0  0  0  0  0  0  0  0  0  0  0
   11.0456   -2.9774   18.2694 N   0  0  0  0  0  0  0  0  0  0  0  0
   10.4788   -3.0457   21.8593 C   0  0  0  0  0  0  0  0  0  0  0  0
    8.8693   -5.8099   18.4657 N   0  0  0  0  0  0  0  0  0  0  0  0
    8.9892   -0.7926   25.4573 C   0  0  0  0  0  0  0  0  0  0  0  0
   10.5677   -3.4462   20.5323 C   0  0  0  0  0  0  0  0  0  0  0  0
  1  8  1  0
  1 12  4  0
  1 14  4  0
  2  3  4  0
  2 18  4  0
  3 20  4  0
  3 22  4  0
  4 11  4  0
  4 21  4  0
  5  9  4  0
  5 16  4  0
  6 15  4  0
  6 16  4  0
  7 22  4  0
  7 26  4  0
  8 10  4  0
  8 25  4  0
  9 15  4  0
  9 17  1  0
 10 21  4  0
 11 25  4  0
 12 23  4  0
 13 20  4  0
 13 26  4  0
 14 19  4  0
 17 18  4  0
 17 24  4  0
 19 23  4  0
 20 24  4  0
 23 26  1  0
M  END
$$$$

 Created by Python create_sdf_string function

 26 30  0  0  0  0  0  0  0  0999 V2000
   10.0084   -1.8019   23.4945 C   0  0  0  0  0  0  0  0  0  0  0  0
   10.0005   -4.2520   16.5631 C   0  0  0  0  0  0  0  0  0  0  0  0
   10.2759   -4.0036   17.8845 C   0  0  0  0  0  0  0  0  0  0  0  0
    8.5652    1.5478   25.3778 N   0  0  0  0  0  0  0  0  0  0  0  0
    6.8048   -7.5457   17.8752 C   0  0  0  0  0  0  0  0  0  0  0  0
    6.1721   -8.2186   15.9886 N   0  0  0  0  0  0  0  0  0  0  0  0
   11.1764   -2.6600   19.5604 C   0  0  0  0  0  0  0  0  0  0  0  0
    9.5491   -0.6380   24.1912 C   0  0  0  0  0  0  0  0  0  0  0  0
    7.5337   -6.9256   16.9519 C   0  0  0  0  0  0  0  0  0  0  0  0
    9.6782    0.5671   23.5143 C   0  0  0  0  0  0  0  0  0  0  0  0
    8.4532    0.3482   26.0821 C   0  0  0  0  0  0  0  0  0  0  0  0
   10.4239   -1.7677   22.2230 N   0  0  0  0  0  0  0  0  0  0  0  0
    9.9468   -4.5953   20.1709 C   0  0  0  0  0  0  0  0  0  0  0  0
   10.0366   -3.0590   23.9864 N   0  0  0  0  0  0  0  0  0  0  0  0
    7.1191   -7.3636   15.7739 C   0  0  0  0  0  0  0  0  0  0  0  0
    5.9612   -8.3203   17.2732 N   0  0  0  0  0  0  0  0  0  0  0  0
    8.5296   -5.9814   17.1841 C   0  0  0  0  0  0  0  0  0  0  0  0
    9.1527   -5.2118   16.2116 C   0  0  0  0  0  0  0  0  0  0  0  0
   10.3364   -3.8368   22.9255 O   0  0  0  0  0  0  0  0  0  0  0  0
    9.6947   -4.8407   18.8534 C   0  0  0  0  0  0  0  0  0  0  0  0
    9.1596    1.7042   24.1381 C   0  0  0  0  0  0  0  0  0  0  0  0
   11.0456   -2.9774   18.2694 N   0  0  0  0  0  0  0  0  0  0  0  0
   10.4788   -3.0457   21.8593 C   0  0  0  0  0  0  0  0  0  0  0  0
    8.8693   -5.8099   18.4657 N   0  0  0  0  0  0  0  0  0  0  0  0
    8.9892   -0.7926   25.4573 C   0  0  0  0  0  0  0  0  0  0  0  0
   10.5677   -3.4462   20.5323 C   0  0  0  0  0  0  0  0  0  0  0  0
  1  8  1  0
  1 12  4  0
  1 14  4  0
  2  3  4  0
  2 18  4  0
  3 20  4  0
  3 22  4  0
  4 11  4  0
  4 21  4  0
  5  9  4  0
  5 16  4  0
  6 15  4  0
  6 16  4  0
  7 22  4  0
  7 26  4  0
  8 10  4  0
  8 25  4  0
  9 15  4  0
  9 17  1  0
 10 21  4  0
 11 25  4  0
 12 23  4  0
 13 20  4  0
 13 26  4  0
 14 19  4  0
 17 18  4  0
 17 24  4  0
 19 23  4  0
 20 24  4  0
 23 26  1  0
M  END
$$$$

 Created by Python create_sdf_string function

 26 30  0  0  0  0  0  0  0  0999 V2000
   10.0084   -1.8019   23.4945 C   0  0  0  0  0  0  0  0  0  0  0  0
   10.0005   -4.2520   16.5631 C   0  0  0  0  0  0  0  0  0  0  0  0
   10.2759   -4.0036   17.8845 C   0  0  0  0  0  0  0  0  0  0  0  0
    8.5652    1.5478   25.3778 N   0  0  0  0  0  0  0  0  0  0  0  0
    6.8048   -7.5457   17.8752 C   0  0  0  0  0  0  0  0  0  0  0  0
    6.1721   -8.2186   15.9886 N   0  0  0  0  0  0  0  0  0  0  0  0
   11.1764   -2.6600   19.5604 C   0  0  0  0  0  0  0  0  0  0  0  0
    9.5491   -0.6380   24.1912 C   0  0  0  0  0  0  0  0  0  0  0  0
    7.5337   -6.9256   16.9519 C   0  0  0  0  0  0  0  0  0  0  0  0
    9.6782    0.5671   23.5143 C   0  0  0  0  0  0  0  0  0  0  0  0
    8.4532    0.3482   26.0821 C   0  0  0  0  0  0  0  0  0  0  0  0
   10.4239   -1.7677   22.2230 N   0  0  0  0  0  0  0  0  0  0  0  0
    9.9468   -4.5953   20.1709 C   0  0  0  0  0  0  0  0  0  0  0  0
   10.0366   -3.0590   23.9864 N   0  0  0  0  0  0  0  0  0  0  0  0
    7.1191   -7.3636   15.7739 C   0  0  0  0  0  0  0  0  0  0  0  0
    5.9612   -8.3203   17.2732 N   0  0  0  0  0  0  0  0  0  0  0  0
    8.5296   -5.9814   17.1841 C   0  0  0  0  0  0  0  0  0  0  0  0
    9.1527   -5.2118   16.2116 C   0  0  0  0  0  0  0  0  0  0  0  0
   10.3364   -3.8368   22.9255 O   0  0  0  0  0  0  0  0  0  0  0  0
    9.6947   -4.8407   18.8534 C   0  0  0  0  0  0  0  0  0  0  0  0
    9.1596    1.7042   24.1381 C   0  0  0  0  0  0  0  0  0  0  0  0
   11.0456   -2.9774   18.2694 N   0  0  0  0  0  0  0  0  0  0  0  0
   10.4788   -3.0457   21.8593 C   0  0  0  0  0  0  0  0  0  0  0  0
    8.8693   -5.8099   18.4657 N   0  0  0  0  0  0  0  0  0  0  0  0
    8.9892   -0.7926   25.4573 C   0  0  0  0  0  0  0  0  0  0  0  0
   10.5677   -3.4462   20.5323 C   0  0  0  0  0  0  0  0  0  0  0  0
  1  8  1  0
  1 12  4  0
  1 14  4  0
  2  3  4  0
  2 18  4  0
  3 20  4  0
  3 22  4  0
  4 11  4  0
  4 21  4  0
  5  9  4  0
  5 16  4  0
  6 15  4  0
  6 16  4  0
  7 22  4  0
  7 26  4  0
  8 10  4  0
  8 25  4  0
  9 15  4  0
  9 17  1  0
 10 21  4  0
 11 25  4  0
 12 23  4  0
 13 20  4  0
 13 26  4  0
 14 19  4  0
 17 18  4  0
 17 24  4  0
 19 23  4  0
 20 24  4  0
 23 26  1  0
M  END
$$$$

 Created by Python create_sdf_string function

 26 30  0  0  0  0  0  0  0  0999 V2000
   10.0084   -1.8019   23.4945 C   0  0  0  0  0  0  0  0  0  0  0  0
   10.0005   -4.2520   16.5631 C   0  0  0  0  0  0  0  0  0  0  0  0
   10.2759   -4.0036   17.8845 C   0  0  0  0  0  0  0  0  0  0  0  0
    8.5652    1.5478   25.3778 N   0  0  0  0  0  0  0  0  0  0  0  0
    6.8048   -7.5457   17.8752 C   0  0  0  0  0  0  0  0  0  0  0  0
    6.1721   -8.2186   15.9886 N   0  0  0  0  0  0  0  0  0  0  0  0
   11.1764   -2.6600   19.5604 C   0  0  0  0  0  0  0  0  0  0  0  0
    9.5491   -0.6380   24.1912 C   0  0  0  0  0  0  0  0  0  0  0  0
    7.5337   -6.9256   16.9519 C   0  0  0  0  0  0  0  0  0  0  0  0
    9.6782    0.5671   23.5143 C   0  0  0  0  0  0  0  0  0  0  0  0
    8.4532    0.3482   26.0821 C   0  0  0  0  0  0  0  0  0  0  0  0
   10.4239   -1.7677   22.2230 N   0  0  0  0  0  0  0  0  0  0  0  0
    9.9468   -4.5953   20.1709 C   0  0  0  0  0  0  0  0  0  0  0  0
   10.0366   -3.0590   23.9864 N   0  0  0  0  0  0  0  0  0  0  0  0
    7.1191   -7.3636   15.7739 C   0  0  0  0  0  0  0  0  0  0  0  0
    5.9612   -8.3203   17.2732 N   0  0  0  0  0  0  0  0  0  0  0  0
    8.5296   -5.9814   17.1841 C   0  0  0  0  0  0  0  0  0  0  0  0
    9.1527   -5.2118   16.2116 C   0  0  0  0  0  0  0  0  0  0  0  0
   10.3364   -3.8368   22.9255 O   0  0  0  0  0  0  0  0  0  0  0  0
    9.6947   -4.8407   18.8534 C   0  0  0  0  0  0  0  0  0  0  0  0
    9.1596    1.7042   24.1381 C   0  0  0  0  0  0  0  0  0  0  0  0
   11.0456   -2.9774   18.2694 N   0  0  0  0  0  0  0  0  0  0  0  0
   10.4788   -3.0457   21.8593 C   0  0  0  0  0  0  0  0  0  0  0  0
    8.8693   -5.8099   18.4657 N   0  0  0  0  0  0  0  0  0  0  0  0
    8.9892   -0.7926   25.4573 C   0  0  0  0  0  0  0  0  0  0  0  0
   10.5677   -3.4462   20.5323 C   0  0  0  0  0  0  0  0  0  0  0  0
  1  8  1  0
  1 12  4  0
  1 14  4  0
  2  3  4  0
  2 18  4  0
  3 20  4  0
  3 22  4  0
  4 11  4  0
  4 21  4  0
  5  9  4  0
  5 16  4  0
  6 15  4  0
  6 16  4  0
  7 22  4  0
  7 26  4  0
  8 10  4  0
  8 25  4  0
  9 15  4  0
  9 17  1  0
 10 21  4  0
 11 25  4  0
 12 23  4  0
 13 20  4  0
 13 26  4  0
 14 19  4  0
 17 18  4  0
 17 24  4  0
 19 23  4  0
 20 24  4  0
 23 26  1  0
M  END
$$$$

 Created by Python create_sdf_string function

 26 30  0  0  0  0  0  0  0  0999 V2000
   10.0084   -1.8019   23.4945 C   0  0  0  0  0  0  0  0  0  0  0  0
   10.0005   -4.2520   16.5631 C   0  0  0  0  0  0  0  0  0  0  0  0
   10.2759   -4.0036   17.8845 C   0  0  0  0  0  0  0  0  0  0  0  0
    8.5652    1.5478   25.3778 N   0  0  0  0  0  0  0  0  0  0  0  0
    6.8048   -7.5457   17.8752 C   0  0  0  0  0  0  0  0  0  0  0  0
    6.1721   -8.2186   15.9886 N   0  0  0  0  0  0  0  0  0  0  0  0
   11.1764   -2.6600   19.5604 C   0  0  0  0  0  0  0  0  0  0  0  0
    9.5491   -0.6380   24.1912 C   0  0  0  0  0  0  0  0  0  0  0  0
    7.5337   -6.9256   16.9519 C   0  0  0  0  0  0  0  0  0  0  0  0
    9.6782    0.5671   23.5143 C   0  0  0  0  0  0  0  0  0  0  0  0
    8.4532    0.3482   26.0821 C   0  0  0  0  0  0  0  0  0  0  0  0
   10.4239   -1.7677   22.2230 N   0  0  0  0  0  0  0  0  0  0  0  0
    9.9468   -4.5953   20.1709 C   0  0  0  0  0  0  0  0  0  0  0  0
   10.0366   -3.0590   23.9864 N   0  0  0  0  0  0  0  0  0  0  0  0
    7.1191   -7.3636   15.7739 C   0  0  0  0  0  0  0  0  0  0  0  0
    5.9612   -8.3203   17.2732 N   0  0  0  0  0  0  0  0  0  0  0  0
    8.5296   -5.9814   17.1841 C   0  0  0  0  0  0  0  0  0  0  0  0
    9.1527   -5.2118   16.2116 C   0  0  0  0  0  0  0  0  0  0  0  0
   10.3364   -3.8368   22.9255 O   0  0  0  0  0  0  0  0  0  0  0  0
    9.6947   -4.8407   18.8534 C   0  0  0  0  0  0  0  0  0  0  0  0
    9.1596    1.7042   24.1381 C   0  0  0  0  0  0  0  0  0  0  0  0
   11.0456   -2.9774   18.2694 N   0  0  0  0  0  0  0  0  0  0  0  0
   10.4788   -3.0457   21.8593 C   0  0  0  0  0  0  0  0  0  0  0  0
    8.8693   -5.8099   18.4657 N   0  0  0  0  0  0  0  0  0  0  0  0
    8.9892   -0.7926   25.4573 C   0  0  0  0  0  0  0  0  0  0  0  0
   10.5677   -3.4462   20.5323 C   0  0  0  0  0  0  0  0  0  0  0  0
  1  8  1  0
  1 12  4  0
  1 14  4  0
  2  3  4  0
  2 18  4  0
  3 20  4  0
  3 22  4  0
  4 11  4  0
  4 21  4  0
  5  9  4  0
  5 16  4  0
  6 15  4  0
  6 16  4  0
  7 22  4  0
  7 26  4  0
  8 10  4  0
  8 25  4  0
  9 15  4  0
  9 17  1  0
 10 21  4  0
 11 25  4  0
 12 23  4  0
 13 20  4  0
 13 26  4  0
 14 19  4  0
 17 18  4  0
 17 24  4  0
 19 23  4  0
 20 24  4  0
 23 26  1  0
M  END
$$$$

 Created by Python create_sdf_string function

 26 30  0  0  0  0  0  0  0  0999 V2000
   10.0084   -1.8019   23.4945 C   0  0  0  0  0  0  0  0  0  0  0  0
   10.0005   -4.2520   16.5631 C   0  0  0  0  0  0  0  0  0  0  0  0
   10.2759   -4.0036   17.8845 C   0  0  0  0  0  0  0  0  0  0  0  0
    8.5652    1.5478   25.3778 N   0  0  0  0  0  0  0  0  0  0  0  0
    6.8048   -7.5457   17.8752 C   0  0  0  0  0  0  0  0  0  0  0  0
    6.1721   -8.2186   15.9886 N   0  0  0  0  0  0  0  0  0  0  0  0
   11.1764   -2.6600   19.5604 C   0  0  0  0  0  0  0  0  0  0  0  0
    9.5491   -0.6380   24.1912 C   0  0  0  0  0  0  0  0  0  0  0  0
    7.5337   -6.9256   16.9519 C   0  0  0  0  0  0  0  0  0  0  0  0
    9.6782    0.5671   23.5143 C   0  0  0  0  0  0  0  0  0  0  0  0
    8.4532    0.3482   26.0821 C   0  0  0  0  0  0  0  0  0  0  0  0
   10.4239   -1.7677   22.2230 N   0  0  0  0  0  0  0  0  0  0  0  0
    9.9468   -4.5953   20.1709 C   0  0  0  0  0  0  0  0  0  0  0  0
   10.0366   -3.0590   23.9864 N   0  0  0  0  0  0  0  0  0  0  0  0
    7.1191   -7.3636   15.7739 C   0  0  0  0  0  0  0  0  0  0  0  0
    5.9612   -8.3203   17.2732 N   0  0  0  0  0  0  0  0  0  0  0  0
    8.5296   -5.9814   17.1841 C   0  0  0  0  0  0  0  0  0  0  0  0
    9.1527   -5.2118   16.2116 C   0  0  0  0  0  0  0  0  0  0  0  0
   10.3364   -3.8368   22.9255 O   0  0  0  0  0  0  0  0  0  0  0  0
    9.6947   -4.8407   18.8534 C   0  0  0  0  0  0  0  0  0  0  0  0
    9.1596    1.7042   24.1381 C   0  0  0  0  0  0  0  0  0  0  0  0
   11.0456   -2.9774   18.2694 N   0  0  0  0  0  0  0  0  0  0  0  0
   10.4788   -3.0457   21.8593 C   0  0  0  0  0  0  0  0  0  0  0  0
    8.8693   -5.8099   18.4657 N   0  0  0  0  0  0  0  0  0  0  0  0
    8.9892   -0.7926   25.4573 C   0  0  0  0  0  0  0  0  0  0  0  0
   10.5677   -3.4462   20.5323 C   0  0  0  0  0  0  0  0  0  0  0  0
  1  8  1  0
  1 12  4  0
  1 14  4  0
  2  3  4  0
  2 18  4  0
  3 20  4  0
  3 22  4  0
  4 11  4  0
  4 21  4  0
  5  9  4  0
  5 16  4  0
  6 15  4  0
  6 16  4  0
  7 22  4  0
  7 26  4  0
  8 10  4  0
  8 25  4  0
  9 15  4  0
  9 17  1  0
 10 21  4  0
 11 25  4  0
 12 23  4  0
 13 20  4  0
 13 26  4  0
 14 19  4  0
 17 18  4  0
 17 24  4  0
 19 23  4  0
 20 24  4  0
 23 26  1  0
M  END
$$$$

 Created by Python create_sdf_string function

 26 30  0  0  0  0  0  0  0  0999 V2000
   10.0084   -1.8019   23.4945 C   0  0  0  0  0  0  0  0  0  0  0  0
   10.0005   -4.2520   16.5631 C   0  0  0  0  0  0  0  0  0  0  0  0
   10.2759   -4.0036   17.8845 C   0  0  0  0  0  0  0  0  0  0  0  0
    8.5652    1.5478   25.3778 N   0  0  0  0  0  0  0  0  0  0  0  0
    6.8048   -7.5457   17.8752 C   0  0  0  0  0  0  0  0  0  0  0  0
    6.1721   -8.2186   15.9886 N   0  0  0  0  0  0  0  0  0  0  0  0
   11.1764   -2.6600   19.5604 C   0  0  0  0  0  0  0  0  0  0  0  0
    9.5491   -0.6380   24.1912 C   0  0  0  0  0  0  0  0  0  0  0  0
    7.5337   -6.9256   16.9519 C   0  0  0  0  0  0  0  0  0  0  0  0
    9.6782    0.5671   23.5143 C   0  0  0  0  0  0  0  0  0  0  0  0
    8.4532    0.3482   26.0821 C   0  0  0  0  0  0  0  0  0  0  0  0
   10.4239   -1.7677   22.2230 N   0  0  0  0  0  0  0  0  0  0  0  0
    9.9468   -4.5953   20.1709 C   0  0  0  0  0  0  0  0  0  0  0  0
   10.0366   -3.0590   23.9864 N   0  0  0  0  0  0  0  0  0  0  0  0
    7.1191   -7.3636   15.7739 C   0  0  0  0  0  0  0  0  0  0  0  0
    5.9612   -8.3203   17.2732 N   0  0  0  0  0  0  0  0  0  0  0  0
    8.5296   -5.9814   17.1841 C   0  0  0  0  0  0  0  0  0  0  0  0
    9.1527   -5.2118   16.2116 C   0  0  0  0  0  0  0  0  0  0  0  0
   10.3364   -3.8368   22.9255 O   0  0  0  0  0  0  0  0  0  0  0  0
    9.6947   -4.8407   18.8534 C   0  0  0  0  0  0  0  0  0  0  0  0
    9.1596    1.7042   24.1381 C   0  0  0  0  0  0  0  0  0  0  0  0
   11.0456   -2.9774   18.2694 N   0  0  0  0  0  0  0  0  0  0  0  0
   10.4788   -3.0457   21.8593 C   0  0  0  0  0  0  0  0  0  0  0  0
    8.8693   -5.8099   18.4657 N   0  0  0  0  0  0  0  0  0  0  0  0
    8.9892   -0.7926   25.4573 C   0  0  0  0  0  0  0  0  0  0  0  0
   10.5677   -3.4462   20.5323 C   0  0  0  0  0  0  0  0  0  0  0  0
  1  8  1  0
  1 12  4  0
  1 14  4  0
  2  3  4  0
  2 18  4  0
  3 20  4  0
  3 22  4  0
  4 11  4  0
  4 21  4  0
  5  9  4  0
  5 16  4  0
  6 15  4  0
  6 16  4  0
  7 22  4  0
  7 26  4  0
  8 10  4  0
  8 25  4  0
  9 15  4  0
  9 17  1  0
 10 21  4  0
 11 25  4  0
 12 23  4  0
 13 20  4  0
 13 26  4  0
 14 19  4  0
 17 18  4  0
 17 24  4  0
 19 23  4  0
 20 24  4  0
 23 26  1  0
M  END
$$$$

 Created by Python create_sdf_string function

 26 30  0  0  0  0  0  0  0  0999 V2000
   10.0084   -1.8019   23.4945 C   0  0  0  0  0  0  0  0  0  0  0  0
   10.0005   -4.2520   16.5631 C   0  0  0  0  0  0  0  0  0  0  0  0
   10.2759   -4.0036   17.8845 C   0  0  0  0  0  0  0  0  0  0  0  0
    8.5652    1.5478   25.3778 N   0  0  0  0  0  0  0  0  0  0  0  0
    6.8048   -7.5457   17.8752 C   0  0  0  0  0  0  0  0  0  0  0  0
    6.1721   -8.2186   15.9886 N   0  0  0  0  0  0  0  0  0  0  0  0
   11.1764   -2.6600   19.5604 C   0  0  0  0  0  0  0  0  0  0  0  0
    9.5491   -0.6380   24.1912 C   0  0  0  0  0  0  0  0  0  0  0  0
    7.5337   -6.9256   16.9519 C   0  0  0  0  0  0  0  0  0  0  0  0
    9.6782    0.5671   23.5143 C   0  0  0  0  0  0  0  0  0  0  0  0
    8.4532    0.3482   26.0821 C   0  0  0  0  0  0  0  0  0  0  0  0
   10.4239   -1.7677   22.2230 N   0  0  0  0  0  0  0  0  0  0  0  0
    9.9468   -4.5953   20.1709 C   0  0  0  0  0  0  0  0  0  0  0  0
   10.0366   -3.0590   23.9864 N   0  0  0  0  0  0  0  0  0  0  0  0
    7.1191   -7.3636   15.7739 C   0  0  0  0  0  0  0  0  0  0  0  0
    5.9612   -8.3203   17.2732 N   0  0  0  0  0  0  0  0  0  0  0  0
    8.5296   -5.9814   17.1841 C   0  0  0  0  0  0  0  0  0  0  0  0
    9.1527   -5.2118   16.2116 C   0  0  0  0  0  0  0  0  0  0  0  0
   10.3364   -3.8368   22.9255 O   0  0  0  0  0  0  0  0  0  0  0  0
    9.6947   -4.8407   18.8534 C   0  0  0  0  0  0  0  0  0  0  0  0
    9.1596    1.7042   24.1381 C   0  0  0  0  0  0  0  0  0  0  0  0
   11.0456   -2.9774   18.2694 N   0  0  0  0  0  0  0  0  0  0  0  0
   10.4788   -3.0457   21.8593 C   0  0  0  0  0  0  0  0  0  0  0  0
    8.8693   -5.8099   18.4657 N   0  0  0  0  0  0  0  0  0  0  0  0
    8.9892   -0.7926   25.4573 C   0  0  0  0  0  0  0  0  0  0  0  0
   10.5677   -3.4462   20.5323 C   0  0  0  0  0  0  0  0  0  0  0  0
  1  8  1  0
  1 12  4  0
  1 14  4  0
  2  3  4  0
  2 18  4  0
  3 20  4  0
  3 22  4  0
  4 11  4  0
  4 21  4  0
  5  9  4  0
  5 16  4  0
  6 15  4  0
  6 16  4  0
  7 22  4  0
  7 26  4  0
  8 10  4  0
  8 25  4  0
  9 15  4  0
  9 17  1  0
 10 21  4  0
 11 25  4  0
 12 23  4  0
 13 20  4  0
 13 26  4  0
 14 19  4  0
 17 18  4  0
 17 24  4  0
 19 23  4  0
 20 24  4  0
 23 26  1  0
M  END
$$$$

 Created by Python create_sdf_string function

 26 30  0  0  0  0  0  0  0  0999 V2000
   10.0084   -1.8019   23.4945 C   0  0  0  0  0  0  0  0  0  0  0  0
   10.0005   -4.2520   16.5631 C   0  0  0  0  0  0  0  0  0  0  0  0
   10.2759   -4.0036   17.8845 C   0  0  0  0  0  0  0  0  0  0  0  0
    8.5652    1.5478   25.3778 N   0  0  0  0  0  0  0  0  0  0  0  0
    6.8048   -7.5457   17.8752 C   0  0  0  0  0  0  0  0  0  0  0  0
    6.1721   -8.2186   15.9886 N   0  0  0  0  0  0  0  0  0  0  0  0
   11.1764   -2.6600   19.5604 C   0  0  0  0  0  0  0  0  0  0  0  0
    9.5491   -0.6380   24.1912 C   0  0  0  0  0  0  0  0  0  0  0  0
    7.5337   -6.9256   16.9519 C   0  0  0  0  0  0  0  0  0  0  0  0
    9.6782    0.5671   23.5143 C   0  0  0  0  0  0  0  0  0  0  0  0
    8.4532    0.3482   26.0821 C   0  0  0  0  0  0  0  0  0  0  0  0
   10.4239   -1.7677   22.2230 N   0  0  0  0  0  0  0  0  0  0  0  0
    9.9468   -4.5953   20.1709 C   0  0  0  0  0  0  0  0  0  0  0  0
   10.0366   -3.0590   23.9864 N   0  0  0  0  0  0  0  0  0  0  0  0
    7.1191   -7.3636   15.7739 C   0  0  0  0  0  0  0  0  0  0  0  0
    5.9612   -8.3203   17.2732 N   0  0  0  0  0  0  0  0  0  0  0  0
    8.5296   -5.9814   17.1841 C   0  0  0  0  0  0  0  0  0  0  0  0
    9.1527   -5.2118   16.2116 C   0  0  0  0  0  0  0  0  0  0  0  0
   10.3364   -3.8368   22.9255 O   0  0  0  0  0  0  0  0  0  0  0  0
    9.6947   -4.8407   18.8534 C   0  0  0  0  0  0  0  0  0  0  0  0
    9.1596    1.7042   24.1381 C   0  0  0  0  0  0  0  0  0  0  0  0
   11.0456   -2.9774   18.2694 N   0  0  0  0  0  0  0  0  0  0  0  0
   10.4788   -3.0457   21.8593 C   0  0  0  0  0  0  0  0  0  0  0  0
    8.8693   -5.8099   18.4657 N   0  0  0  0  0  0  0  0  0  0  0  0
    8.9892   -0.7926   25.4573 C   0  0  0  0  0  0  0  0  0  0  0  0
   10.5677   -3.4462   20.5323 C   0  0  0  0  0  0  0  0  0  0  0  0
  1  8  1  0
  1 12  4  0
  1 14  4  0
  2  3  4  0
  2 18  4  0
  3 20  4  0
  3 22  4  0
  4 11  4  0
  4 21  4  0
  5  9  4  0
  5 16  4  0
  6 15  4  0
  6 16  4  0
  7 22  4  0
  7 26  4  0
  8 10  4  0
  8 25  4  0
  9 15  4  0
  9 17  1  0
 10 21  4  0
 11 25  4  0
 12 23  4  0
 13 20  4  0
 13 26  4  0
 14 19  4  0
 17 18  4  0
 17 24  4  0
 19 23  4  0
 20 24  4  0
 23 26  1  0
M  END
$$$$

 Created by Python create_sdf_string function

 26 30  0  0  0  0  0  0  0  0999 V2000
   10.0084   -1.8019   23.4945 C   0  0  0  0  0  0  0  0  0  0  0  0
   10.0005   -4.2520   16.5631 C   0  0  0  0  0  0  0  0  0  0  0  0
   10.2759   -4.0036   17.8845 C   0  0  0  0  0  0  0  0  0  0  0  0
    8.5652    1.5478   25.3778 N   0  0  0  0  0  0  0  0  0  0  0  0
    6.8048   -7.5457   17.8752 C   0  0  0  0  0  0  0  0  0  0  0  0
    6.1721   -8.2186   15.9886 N   0  0  0  0  0  0  0  0  0  0  0  0
   11.1764   -2.6600   19.5604 C   0  0  0  0  0  0  0  0  0  0  0  0
    9.5491   -0.6380   24.1912 C   0  0  0  0  0  0  0  0  0  0  0  0
    7.5337   -6.9256   16.9519 C   0  0  0  0  0  0  0  0  0  0  0  0
    9.6782    0.5671   23.5143 C   0  0  0  0  0  0  0  0  0  0  0  0
    8.4532    0.3482   26.0821 C   0  0  0  0  0  0  0  0  0  0  0  0
   10.4239   -1.7677   22.2230 N   0  0  0  0  0  0  0  0  0  0  0  0
    9.9468   -4.5953   20.1709 C   0  0  0  0  0  0  0  0  0  0  0  0
   10.0366   -3.0590   23.9864 N   0  0  0  0  0  0  0  0  0  0  0  0
    7.1191   -7.3636   15.7739 C   0  0  0  0  0  0  0  0  0  0  0  0
    5.9612   -8.3203   17.2732 N   0  0  0  0  0  0  0  0  0  0  0  0
    8.5296   -5.9814   17.1841 C   0  0  0  0  0  0  0  0  0  0  0  0
    9.1527   -5.2118   16.2116 C   0  0  0  0  0  0  0  0  0  0  0  0
   10.3364   -3.8368   22.9255 O   0  0  0  0  0  0  0  0  0  0  0  0
    9.6947   -4.8407   18.8534 C   0  0  0  0  0  0  0  0  0  0  0  0
    9.1596    1.7042   24.1381 C   0  0  0  0  0  0  0  0  0  0  0  0
   11.0456   -2.9774   18.2694 N   0  0  0  0  0  0  0  0  0  0  0  0
   10.4788   -3.0457   21.8593 C   0  0  0  0  0  0  0  0  0  0  0  0
    8.8693   -5.8099   18.4657 N   0  0  0  0  0  0  0  0  0  0  0  0
    8.9892   -0.7926   25.4573 C   0  0  0  0  0  0  0  0  0  0  0  0
   10.5677   -3.4462   20.5323 C   0  0  0  0  0  0  0  0  0  0  0  0
  1  8  1  0
  1 12  4  0
  1 14  4  0
  2  3  4  0
  2 18  4  0
  3 20  4  0
  3 22  4  0
  4 11  4  0
  4 21  4  0
  5  9  4  0
  5 16  4  0
  6 15  4  0
  6 16  4  0
  7 22  4  0
  7 26  4  0
  8 10  4  0
  8 25  4  0
  9 15  4  0
  9 17  1  0
 10 21  4  0
 11 25  4  0
 12 23  4  0
 13 20  4  0
 13 26  4  0
 14 19  4  0
 17 18  4  0
 17 24  4  0
 19 23  4  0
 20 24  4  0
 23 26  1  0
M  END
$$$$

 Created by Python create_sdf_string function

 26 30  0  0  0  0  0  0  0  0999 V2000
   10.0084   -1.8019   23.4945 C   0  0  0  0  0  0  0  0  0  0  0  0
   10.0005   -4.2520   16.5631 C   0  0  0  0  0  0  0  0  0  0  0  0
   10.2759   -4.0036   17.8845 C   0  0  0  0  0  0  0  0  0  0  0  0
    8.5652    1.5478   25.3778 N   0  0  0  0  0  0  0  0  0  0  0  0
    6.8048   -7.5457   17.8752 C   0  0  0  0  0  0  0  0  0  0  0  0
    6.1721   -8.2186   15.9886 N   0  0  0  0  0  0  0  0  0  0  0  0
   11.1764   -2.6600   19.5604 C   0  0  0  0  0  0  0  0  0  0  0  0
    9.5491   -0.6380   24.1912 C   0  0  0  0  0  0  0  0  0  0  0  0
    7.5337   -6.9256   16.9519 C   0  0  0  0  0  0  0  0  0  0  0  0
    9.6782    0.5671   23.5143 C   0  0  0  0  0  0  0  0  0  0  0  0
    8.4532    0.3482   26.0821 C   0  0  0  0  0  0  0  0  0  0  0  0
   10.4239   -1.7677   22.2230 N   0  0  0  0  0  0  0  0  0  0  0  0
    9.9468   -4.5953   20.1709 C   0  0  0  0  0  0  0  0  0  0  0  0
   10.0366   -3.0590   23.9864 N   0  0  0  0  0  0  0  0  0  0  0  0
    7.1191   -7.3636   15.7739 C   0  0  0  0  0  0  0  0  0  0  0  0
    5.9612   -8.3203   17.2732 N   0  0  0  0  0  0  0  0  0  0  0  0
    8.5296   -5.9814   17.1841 C   0  0  0  0  0  0  0  0  0  0  0  0
    9.1527   -5.2118   16.2116 C   0  0  0  0  0  0  0  0  0  0  0  0
   10.3364   -3.8368   22.9255 O   0  0  0  0  0  0  0  0  0  0  0  0
    9.6947   -4.8407   18.8534 C   0  0  0  0  0  0  0  0  0  0  0  0
    9.1596    1.7042   24.1381 C   0  0  0  0  0  0  0  0  0  0  0  0
   11.0456   -2.9774   18.2694 N   0  0  0  0  0  0  0  0  0  0  0  0
   10.4788   -3.0457   21.8593 C   0  0  0  0  0  0  0  0  0  0  0  0
    8.8693   -5.8099   18.4657 N   0  0  0  0  0  0  0  0  0  0  0  0
    8.9892   -0.7926   25.4573 C   0  0  0  0  0  0  0  0  0  0  0  0
   10.5677   -3.4462   20.5323 C   0  0  0  0  0  0  0  0  0  0  0  0
  1  8  1  0
  1 12  4  0
  1 14  4  0
  2  3  4  0
  2 18  4  0
  3 20  4  0
  3 22  4  0
  4 11  4  0
  4 21  4  0
  5  9  4  0
  5 16  4  0
  6 15  4  0
  6 16  4  0
  7 22  4  0
  7 26  4  0
  8 10  4  0
  8 25  4  0
  9 15  4  0
  9 17  1  0
 10 21  4  0
 11 25  4  0
 12 23  4  0
 13 20  4  0
 13 26  4  0
 14 19  4  0
 17 18  4  0
 17 24  4  0
 19 23  4  0
 20 24  4  0
 23 26  1  0
M  END
$$$$

 Created by Python create_sdf_string function

 26 30  0  0  0  0  0  0  0  0999 V2000
   10.0084   -1.8019   23.4945 C   0  0  0  0  0  0  0  0  0  0  0  0
   10.0005   -4.2520   16.5631 C   0  0  0  0  0  0  0  0  0  0  0  0
   10.2759   -4.0036   17.8845 C   0  0  0  0  0  0  0  0  0  0  0  0
    8.5652    1.5478   25.3778 N   0  0  0  0  0  0  0  0  0  0  0  0
    6.8048   -7.5457   17.8752 C   0  0  0  0  0  0  0  0  0  0  0  0
    6.1721   -8.2186   15.9886 N   0  0  0  0  0  0  0  0  0  0  0  0
   11.1764   -2.6600   19.5604 C   0  0  0  0  0  0  0  0  0  0  0  0
    9.5491   -0.6380   24.1912 C   0  0  0  0  0  0  0  0  0  0  0  0
    7.5337   -6.9256   16.9519 C   0  0  0  0  0  0  0  0  0  0  0  0
    9.6782    0.5671   23.5143 C   0  0  0  0  0  0  0  0  0  0  0  0
    8.4532    0.3482   26.0821 C   0  0  0  0  0  0  0  0  0  0  0  0
   10.4239   -1.7677   22.2230 N   0  0  0  0  0  0  0  0  0  0  0  0
    9.9468   -4.5953   20.1709 C   0  0  0  0  0  0  0  0  0  0  0  0
   10.0366   -3.0590   23.9864 N   0  0  0  0  0  0  0  0  0  0  0  0
    7.1191   -7.3636   15.7739 C   0  0  0  0  0  0  0  0  0  0  0  0
    5.9612   -8.3203   17.2732 N   0  0  0  0  0  0  0  0  0  0  0  0
    8.5296   -5.9814   17.1841 C   0  0  0  0  0  0  0  0  0  0  0  0
    9.1527   -5.2118   16.2116 C   0  0  0  0  0  0  0  0  0  0  0  0
   10.3364   -3.8368   22.9255 O   0  0  0  0  0  0  0  0  0  0  0  0
    9.6947   -4.8407   18.8534 C   0  0  0  0  0  0  0  0  0  0  0  0
    9.1596    1.7042   24.1381 C   0  0  0  0  0  0  0  0  0  0  0  0
   11.0456   -2.9774   18.2694 N   0  0  0  0  0  0  0  0  0  0  0  0
   10.4788   -3.0457   21.8593 C   0  0  0  0  0  0  0  0  0  0  0  0
    8.8693   -5.8099   18.4657 N   0  0  0  0  0  0  0  0  0  0  0  0
    8.9892   -0.7926   25.4573 C   0  0  0  0  0  0  0  0  0  0  0  0
   10.5677   -3.4462   20.5323 C   0  0  0  0  0  0  0  0  0  0  0  0
  1  8  1  0
  1 12  4  0
  1 14  4  0
  2  3  4  0
  2 18  4  0
  3 20  4  0
  3 22  4  0
  4 11  4  0
  4 21  4  0
  5  9  4  0
  5 16  4  0
  6 15  4  0
  6 16  4  0
  7 22  4  0
  7 26  4  0
  8 10  4  0
  8 25  4  0
  9 15  4  0
  9 17  1  0
 10 21  4  0
 11 25  4  0
 12 23  4  0
 13 20  4  0
 13 26  4  0
 14 19  4  0
 17 18  4  0
 17 24  4  0
 19 23  4  0
 20 24  4  0
 23 26  1  0
M  END
$$$$

 Created by Python create_sdf_string function

 26 30  0  0  0  0  0  0  0  0999 V2000
   10.0084   -1.8019   23.4945 C   0  0  0  0  0  0  0  0  0  0  0  0
   10.0005   -4.2520   16.5631 C   0  0  0  0  0  0  0  0  0  0  0  0
   10.2759   -4.0036   17.8845 C   0  0  0  0  0  0  0  0  0  0  0  0
    8.5652    1.5478   25.3778 N   0  0  0  0  0  0  0  0  0  0  0  0
    6.8048   -7.5457   17.8752 C   0  0  0  0  0  0  0  0  0  0  0  0
    6.1721   -8.2186   15.9886 N   0  0  0  0  0  0  0  0  0  0  0  0
   11.1764   -2.6600   19.5604 C   0  0  0  0  0  0  0  0  0  0  0  0
    9.5491   -0.6380   24.1912 C   0  0  0  0  0  0  0  0  0  0  0  0
    7.5337   -6.9256   16.9519 C   0  0  0  0  0  0  0  0  0  0  0  0
    9.6782    0.5671   23.5143 C   0  0  0  0  0  0  0  0  0  0  0  0
    8.4532    0.3482   26.0821 C   0  0  0  0  0  0  0  0  0  0  0  0
   10.4239   -1.7677   22.2230 N   0  0  0  0  0  0  0  0  0  0  0  0
    9.9468   -4.5953   20.1709 C   0  0  0  0  0  0  0  0  0  0  0  0
   10.0366   -3.0590   23.9864 N   0  0  0  0  0  0  0  0  0  0  0  0
    7.1191   -7.3636   15.7739 C   0  0  0  0  0  0  0  0  0  0  0  0
    5.9612   -8.3203   17.2732 N   0  0  0  0  0  0  0  0  0  0  0  0
    8.5296   -5.9814   17.1841 C   0  0  0  0  0  0  0  0  0  0  0  0
    9.1527   -5.2118   16.2116 C   0  0  0  0  0  0  0  0  0  0  0  0
   10.3364   -3.8368   22.9255 O   0  0  0  0  0  0  0  0  0  0  0  0
    9.6947   -4.8407   18.8534 C   0  0  0  0  0  0  0  0  0  0  0  0
    9.1596    1.7042   24.1381 C   0  0  0  0  0  0  0  0  0  0  0  0
   11.0456   -2.9774   18.2694 N   0  0  0  0  0  0  0  0  0  0  0  0
   10.4788   -3.0457   21.8593 C   0  0  0  0  0  0  0  0  0  0  0  0
    8.8693   -5.8099   18.4657 N   0  0  0  0  0  0  0  0  0  0  0  0
    8.9892   -0.7926   25.4573 C   0  0  0  0  0  0  0  0  0  0  0  0
   10.5677   -3.4462   20.5323 C   0  0  0  0  0  0  0  0  0  0  0  0
  1  8  1  0
  1 12  4  0
  1 14  4  0
  2  3  4  0
  2 18  4  0
  3 20  4  0
  3 22  4  0
  4 11  4  0
  4 21  4  0
  5  9  4  0
  5 16  4  0
  6 15  4  0
  6 16  4  0
  7 22  4  0
  7 26  4  0
  8 10  4  0
  8 25  4  0
  9 15  4  0
  9 17  1  0
 10 21  4  0
 11 25  4  0
 12 23  4  0
 13 20  4  0
 13 26  4  0
 14 19  4  0
 17 18  4  0
 17 24  4  0
 19 23  4  0
 20 24  4  0
 23 26  1  0
M  END
$$$$

 Created by Python create_sdf_string function

 26 30  0  0  0  0  0  0  0  0999 V2000
   10.0084   -1.8019   23.4945 C   0  0  0  0  0  0  0  0  0  0  0  0
   10.0005   -4.2520   16.5631 C   0  0  0  0  0  0  0  0  0  0  0  0
   10.2759   -4.0036   17.8845 C   0  0  0  0  0  0  0  0  0  0  0  0
    8.5652    1.5478   25.3778 N   0  0  0  0  0  0  0  0  0  0  0  0
    6.8048   -7.5457   17.8752 C   0  0  0  0  0  0  0  0  0  0  0  0
    6.1721   -8.2186   15.9886 N   0  0  0  0  0  0  0  0  0  0  0  0
   11.1764   -2.6600   19.5604 C   0  0  0  0  0  0  0  0  0  0  0  0
    9.5491   -0.6380   24.1912 C   0  0  0  0  0  0  0  0  0  0  0  0
    7.5337   -6.9256   16.9519 C   0  0  0  0  0  0  0  0  0  0  0  0
    9.6782    0.5671   23.5143 C   0  0  0  0  0  0  0  0  0  0  0  0
    8.4532    0.3482   26.0821 C   0  0  0  0  0  0  0  0  0  0  0  0
   10.4239   -1.7677   22.2230 N   0  0  0  0  0  0  0  0  0  0  0  0
    9.9468   -4.5953   20.1709 C   0  0  0  0  0  0  0  0  0  0  0  0
   10.0366   -3.0590   23.9864 N   0  0  0  0  0  0  0  0  0  0  0  0
    7.1191   -7.3636   15.7739 C   0  0  0  0  0  0  0  0  0  0  0  0
    5.9612   -8.3203   17.2732 N   0  0  0  0  0  0  0  0  0  0  0  0
    8.5296   -5.9814   17.1841 C   0  0  0  0  0  0  0  0  0  0  0  0
    9.1527   -5.2118   16.2116 C   0  0  0  0  0  0  0  0  0  0  0  0
   10.3364   -3.8368   22.9255 O   0  0  0  0  0  0  0  0  0  0  0  0
    9.6947   -4.8407   18.8534 C   0  0  0  0  0  0  0  0  0  0  0  0
    9.1596    1.7042   24.1381 C   0  0  0  0  0  0  0  0  0  0  0  0
   11.0456   -2.9774   18.2694 N   0  0  0  0  0  0  0  0  0  0  0  0
   10.4788   -3.0457   21.8593 C   0  0  0  0  0  0  0  0  0  0  0  0
    8.8693   -5.8099   18.4657 N   0  0  0  0  0  0  0  0  0  0  0  0
    8.9892   -0.7926   25.4573 C   0  0  0  0  0  0  0  0  0  0  0  0
   10.5677   -3.4462   20.5323 C   0  0  0  0  0  0  0  0  0  0  0  0
  1  8  1  0
  1 12  4  0
  1 14  4  0
  2  3  4  0
  2 18  4  0
  3 20  4  0
  3 22  4  0
  4 11  4  0
  4 21  4  0
  5  9  4  0
  5 16  4  0
  6 15  4  0
  6 16  4  0
  7 22  4  0
  7 26  4  0
  8 10  4  0
  8 25  4  0
  9 15  4  0
  9 17  1  0
 10 21  4  0
 11 25  4  0
 12 23  4  0
 13 20  4  0
 13 26  4  0
 14 19  4  0
 17 18  4  0
 17 24  4  0
 19 23  4  0
 20 24  4  0
 23 26  1  0
M  END
$$$$

 Created by Python create_sdf_string function

 26 30  0  0  0  0  0  0  0  0999 V2000
   10.0084   -1.8019   23.4945 C   0  0  0  0  0  0  0  0  0  0  0  0
   10.0005   -4.2520   16.5631 C   0  0  0  0  0  0  0  0  0  0  0  0
   10.2759   -4.0036   17.8845 C   0  0  0  0  0  0  0  0  0  0  0  0
    8.5652    1.5478   25.3778 N   0  0  0  0  0  0  0  0  0  0  0  0
    6.8048   -7.5457   17.8752 C   0  0  0  0  0  0  0  0  0  0  0  0
    6.1721   -8.2186   15.9886 N   0  0  0  0  0  0  0  0  0  0  0  0
   11.1764   -2.6600   19.5604 C   0  0  0  0  0  0  0  0  0  0  0  0
    9.5491   -0.6380   24.1912 C   0  0  0  0  0  0  0  0  0  0  0  0
    7.5337   -6.9256   16.9519 C   0  0  0  0  0  0  0  0  0  0  0  0
    9.6782    0.5671   23.5143 C   0  0  0  0  0  0  0  0  0  0  0  0
    8.4532    0.3482   26.0821 C   0  0  0  0  0  0  0  0  0  0  0  0
   10.4239   -1.7677   22.2230 N   0  0  0  0  0  0  0  0  0  0  0  0
    9.9468   -4.5953   20.1709 C   0  0  0  0  0  0  0  0  0  0  0  0
   10.0366   -3.0590   23.9864 N   0  0  0  0  0  0  0  0  0  0  0  0
    7.1191   -7.3636   15.7739 C   0  0  0  0  0  0  0  0  0  0  0  0
    5.9612   -8.3203   17.2732 N   0  0  0  0  0  0  0  0  0  0  0  0
    8.5296   -5.9814   17.1841 C   0  0  0  0  0  0  0  0  0  0  0  0
    9.1527   -5.2118   16.2116 C   0  0  0  0  0  0  0  0  0  0  0  0
   10.3364   -3.8368   22.9255 O   0  0  0  0  0  0  0  0  0  0  0  0
    9.6947   -4.8407   18.8534 C   0  0  0  0  0  0  0  0  0  0  0  0
    9.1596    1.7042   24.1381 C   0  0  0  0  0  0  0  0  0  0  0  0
   11.0456   -2.9774   18.2694 N   0  0  0  0  0  0  0  0  0  0  0  0
   10.4788   -3.0457   21.8593 C   0  0  0  0  0  0  0  0  0  0  0  0
    8.8693   -5.8099   18.4657 N   0  0  0  0  0  0  0  0  0  0  0  0
    8.9892   -0.7926   25.4573 C   0  0  0  0  0  0  0  0  0  0  0  0
   10.5677   -3.4462   20.5323 C   0  0  0  0  0  0  0  0  0  0  0  0
  1  8  1  0
  1 12  4  0
  1 14  4  0
  2  3  4  0
  2 18  4  0
  3 20  4  0
  3 22  4  0
  4 11  4  0
  4 21  4  0
  5  9  4  0
  5 16  4  0
  6 15  4  0
  6 16  4  0
  7 22  4  0
  7 26  4  0
  8 10  4  0
  8 25  4  0
  9 15  4  0
  9 17  1  0
 10 21  4  0
 11 25  4  0
 12 23  4  0
 13 20  4  0
 13 26  4  0
 14 19  4  0
 17 18  4  0
 17 24  4  0
 19 23  4  0
 20 24  4  0
 23 26  1  0
M  END
$$$$

 Created by Python create_sdf_string function

 26 30  0  0  0  0  0  0  0  0999 V2000
   10.0084   -1.8019   23.4945 C   0  0  0  0  0  0  0  0  0  0  0  0
   10.0005   -4.2520   16.5631 C   0  0  0  0  0  0  0  0  0  0  0  0
   10.2759   -4.0036   17.8845 C   0  0  0  0  0  0  0  0  0  0  0  0
    8.5652    1.5478   25.3778 N   0  0  0  0  0  0  0  0  0  0  0  0
    6.8048   -7.5457   17.8752 C   0  0  0  0  0  0  0  0  0  0  0  0
    6.1721   -8.2186   15.9886 N   0  0  0  0  0  0  0  0  0  0  0  0
   11.1764   -2.6600   19.5604 C   0  0  0  0  0  0  0  0  0  0  0  0
    9.5491   -0.6380   24.1912 C   0  0  0  0  0  0  0  0  0  0  0  0
    7.5337   -6.9256   16.9519 C   0  0  0  0  0  0  0  0  0  0  0  0
    9.6782    0.5671   23.5143 C   0  0  0  0  0  0  0  0  0  0  0  0
    8.4532    0.3482   26.0821 C   0  0  0  0  0  0  0  0  0  0  0  0
   10.4239   -1.7677   22.2230 N   0  0  0  0  0  0  0  0  0  0  0  0
    9.9468   -4.5953   20.1709 C   0  0  0  0  0  0  0  0  0  0  0  0
   10.0366   -3.0590   23.9864 N   0  0  0  0  0  0  0  0  0  0  0  0
    7.1191   -7.3636   15.7739 C   0  0  0  0  0  0  0  0  0  0  0  0
    5.9612   -8.3203   17.2732 N   0  0  0  0  0  0  0  0  0  0  0  0
    8.5296   -5.9814   17.1841 C   0  0  0  0  0  0  0  0  0  0  0  0
    9.1527   -5.2118   16.2116 C   0  0  0  0  0  0  0  0  0  0  0  0
   10.3364   -3.8368   22.9255 O   0  0  0  0  0  0  0  0  0  0  0  0
    9.6947   -4.8407   18.8534 C   0  0  0  0  0  0  0  0  0  0  0  0
    9.1596    1.7042   24.1381 C   0  0  0  0  0  0  0  0  0  0  0  0
   11.0456   -2.9774   18.2694 N   0  0  0  0  0  0  0  0  0  0  0  0
   10.4788   -3.0457   21.8593 C   0  0  0  0  0  0  0  0  0  0  0  0
    8.8693   -5.8099   18.4657 N   0  0  0  0  0  0  0  0  0  0  0  0
    8.9892   -0.7926   25.4573 C   0  0  0  0  0  0  0  0  0  0  0  0
   10.5677   -3.4462   20.5323 C   0  0  0  0  0  0  0  0  0  0  0  0
  1  8  1  0
  1 12  4  0
  1 14  4  0
  2  3  4  0
  2 18  4  0
  3 20  4  0
  3 22  4  0
  4 11  4  0
  4 21  4  0
  5  9  4  0
  5 16  4  0
  6 15  4  0
  6 16  4  0
  7 22  4  0
  7 26  4  0
  8 10  4  0
  8 25  4  0
  9 15  4  0
  9 17  1  0
 10 21  4  0
 11 25  4  0
 12 23  4  0
 13 20  4  0
 13 26  4  0
 14 19  4  0
 17 18  4  0
 17 24  4  0
 19 23  4  0
 20 24  4  0
 23 26  1  0
M  END
$$$$

 Created by Python create_sdf_string function

 26 30  0  0  0  0  0  0  0  0999 V2000
   10.0084   -1.8019   23.4945 C   0  0  0  0  0  0  0  0  0  0  0  0
   10.0005   -4.2520   16.5631 C   0  0  0  0  0  0  0  0  0  0  0  0
   10.2759   -4.0036   17.8845 C   0  0  0  0  0  0  0  0  0  0  0  0
    8.5652    1.5478   25.3778 N   0  0  0  0  0  0  0  0  0  0  0  0
    6.8048   -7.5457   17.8752 C   0  0  0  0  0  0  0  0  0  0  0  0
    6.1721   -8.2186   15.9886 N   0  0  0  0  0  0  0  0  0  0  0  0
   11.1764   -2.6600   19.5604 C   0  0  0  0  0  0  0  0  0  0  0  0
    9.5491   -0.6380   24.1912 C   0  0  0  0  0  0  0  0  0  0  0  0
    7.5337   -6.9256   16.9519 C   0  0  0  0  0  0  0  0  0  0  0  0
    9.6782    0.5671   23.5143 C   0  0  0  0  0  0  0  0  0  0  0  0
    8.4532    0.3482   26.0821 C   0  0  0  0  0  0  0  0  0  0  0  0
   10.4239   -1.7677   22.2230 N   0  0  0  0  0  0  0  0  0  0  0  0
    9.9468   -4.5953   20.1709 C   0  0  0  0  0  0  0  0  0  0  0  0
   10.0366   -3.0590   23.9864 N   0  0  0  0  0  0  0  0  0  0  0  0
    7.1191   -7.3636   15.7739 C   0  0  0  0  0  0  0  0  0  0  0  0
    5.9612   -8.3203   17.2732 N   0  0  0  0  0  0  0  0  0  0  0  0
    8.5296   -5.9814   17.1841 C   0  0  0  0  0  0  0  0  0  0  0  0
    9.1527   -5.2118   16.2116 C   0  0  0  0  0  0  0  0  0  0  0  0
   10.3364   -3.8368   22.9255 O   0  0  0  0  0  0  0  0  0  0  0  0
    9.6947   -4.8407   18.8534 C   0  0  0  0  0  0  0  0  0  0  0  0
    9.1596    1.7042   24.1381 C   0  0  0  0  0  0  0  0  0  0  0  0
   11.0456   -2.9774   18.2694 N   0  0  0  0  0  0  0  0  0  0  0  0
   10.4788   -3.0457   21.8593 C   0  0  0  0  0  0  0  0  0  0  0  0
    8.8693   -5.8099   18.4657 N   0  0  0  0  0  0  0  0  0  0  0  0
    8.9892   -0.7926   25.4573 C   0  0  0  0  0  0  0  0  0  0  0  0
   10.5677   -3.4462   20.5323 C   0  0  0  0  0  0  0  0  0  0  0  0
  1  8  1  0
  1 12  4  0
  1 14  4  0
  2  3  4  0
  2 18  4  0
  3 20  4  0
  3 22  4  0
  4 11  4  0
  4 21  4  0
  5  9  4  0
  5 16  4  0
  6 15  4  0
  6 16  4  0
  7 22  4  0
  7 26  4  0
  8 10  4  0
  8 25  4  0
  9 15  4  0
  9 17  1  0
 10 21  4  0
 11 25  4  0
 12 23  4  0
 13 20  4  0
 13 26  4  0
 14 19  4  0
 17 18  4  0
 17 24  4  0
 19 23  4  0
 20 24  4  0
 23 26  1  0
M  END
$$$$

 Created by Python create_sdf_string function

 26 30  0  0  0  0  0  0  0  0999 V2000
   10.0084   -1.8019   23.4945 C   0  0  0  0  0  0  0  0  0  0  0  0
   10.0005   -4.2520   16.5631 C   0  0  0  0  0  0  0  0  0  0  0  0
   10.2759   -4.0036   17.8845 C   0  0  0  0  0  0  0  0  0  0  0  0
    8.5652    1.5478   25.3778 N   0  0  0  0  0  0  0  0  0  0  0  0
    6.8048   -7.5457   17.8752 C   0  0  0  0  0  0  0  0  0  0  0  0
    6.1721   -8.2186   15.9886 N   0  0  0  0  0  0  0  0  0  0  0  0
   11.1764   -2.6600   19.5604 C   0  0  0  0  0  0  0  0  0  0  0  0
    9.5491   -0.6380   24.1912 C   0  0  0  0  0  0  0  0  0  0  0  0
    7.5337   -6.9256   16.9519 C   0  0  0  0  0  0  0  0  0  0  0  0
    9.6782    0.5671   23.5143 C   0  0  0  0  0  0  0  0  0  0  0  0
    8.4532    0.3482   26.0821 C   0  0  0  0  0  0  0  0  0  0  0  0
   10.4239   -1.7677   22.2230 N   0  0  0  0  0  0  0  0  0  0  0  0
    9.9468   -4.5953   20.1709 C   0  0  0  0  0  0  0  0  0  0  0  0
   10.0366   -3.0590   23.9864 N   0  0  0  0  0  0  0  0  0  0  0  0
    7.1191   -7.3636   15.7739 C   0  0  0  0  0  0  0  0  0  0  0  0
    5.9612   -8.3203   17.2732 N   0  0  0  0  0  0  0  0  0  0  0  0
    8.5296   -5.9814   17.1841 C   0  0  0  0  0  0  0  0  0  0  0  0
    9.1527   -5.2118   16.2116 C   0  0  0  0  0  0  0  0  0  0  0  0
   10.3364   -3.8368   22.9255 O   0  0  0  0  0  0  0  0  0  0  0  0
    9.6947   -4.8407   18.8534 C   0  0  0  0  0  0  0  0  0  0  0  0
    9.1596    1.7042   24.1381 C   0  0  0  0  0  0  0  0  0  0  0  0
   11.0456   -2.9774   18.2694 N   0  0  0  0  0  0  0  0  0  0  0  0
   10.4788   -3.0457   21.8593 C   0  0  0  0  0  0  0  0  0  0  0  0
    8.8693   -5.8099   18.4657 N   0  0  0  0  0  0  0  0  0  0  0  0
    8.9892   -0.7926   25.4573 C   0  0  0  0  0  0  0  0  0  0  0  0
   10.5677   -3.4462   20.5323 C   0  0  0  0  0  0  0  0  0  0  0  0
  1  8  1  0
  1 12  4  0
  1 14  4  0
  2  3  4  0
  2 18  4  0
  3 20  4  0
  3 22  4  0
  4 11  4  0
  4 21  4  0
  5  9  4  0
  5 16  4  0
  6 15  4  0
  6 16  4  0
  7 22  4  0
  7 26  4  0
  8 10  4  0
  8 25  4  0
  9 15  4  0
  9 17  1  0
 10 21  4  0
 11 25  4  0
 12 23  4  0
 13 20  4  0
 13 26  4  0
 14 19  4  0
 17 18  4  0
 17 24  4  0
 19 23  4  0
 20 24  4  0
 23 26  1  0
M  END
$$$$

 Created by Python create_sdf_string function

 26 30  0  0  0  0  0  0  0  0999 V2000
   10.0084   -1.8019   23.4945 C   0  0  0  0  0  0  0  0  0  0  0  0
   10.0005   -4.2520   16.5631 C   0  0  0  0  0  0  0  0  0  0  0  0
   10.2759   -4.0036   17.8845 C   0  0  0  0  0  0  0  0  0  0  0  0
    8.5652    1.5478   25.3778 N   0  0  0  0  0  0  0  0  0  0  0  0
    6.8048   -7.5457   17.8752 C   0  0  0  0  0  0  0  0  0  0  0  0
    6.1721   -8.2186   15.9886 N   0  0  0  0  0  0  0  0  0  0  0  0
   11.1764   -2.6600   19.5604 C   0  0  0  0  0  0  0  0  0  0  0  0
    9.5491   -0.6380   24.1912 C   0  0  0  0  0  0  0  0  0  0  0  0
    7.5337   -6.9256   16.9519 C   0  0  0  0  0  0  0  0  0  0  0  0
    9.6782    0.5671   23.5143 C   0  0  0  0  0  0  0  0  0  0  0  0
    8.4532    0.3482   26.0821 C   0  0  0  0  0  0  0  0  0  0  0  0
   10.4239   -1.7677   22.2230 N   0  0  0  0  0  0  0  0  0  0  0  0
    9.9468   -4.5953   20.1709 C   0  0  0  0  0  0  0  0  0  0  0  0
   10.0366   -3.0590   23.9864 N   0  0  0  0  0  0  0  0  0  0  0  0
    7.1191   -7.3636   15.7739 C   0  0  0  0  0  0  0  0  0  0  0  0
    5.9612   -8.3203   17.2732 N   0  0  0  0  0  0  0  0  0  0  0  0
    8.5296   -5.9814   17.1841 C   0  0  0  0  0  0  0  0  0  0  0  0
    9.1527   -5.2118   16.2116 C   0  0  0  0  0  0  0  0  0  0  0  0
   10.3364   -3.8368   22.9255 O   0  0  0  0  0  0  0  0  0  0  0  0
    9.6947   -4.8407   18.8534 C   0  0  0  0  0  0  0  0  0  0  0  0
    9.1596    1.7042   24.1381 C   0  0  0  0  0  0  0  0  0  0  0  0
   11.0456   -2.9774   18.2694 N   0  0  0  0  0  0  0  0  0  0  0  0
   10.4788   -3.0457   21.8593 C   0  0  0  0  0  0  0  0  0  0  0  0
    8.8693   -5.8099   18.4657 N   0  0  0  0  0  0  0  0  0  0  0  0
    8.9892   -0.7926   25.4573 C   0  0  0  0  0  0  0  0  0  0  0  0
   10.5677   -3.4462   20.5323 C   0  0  0  0  0  0  0  0  0  0  0  0
  1  8  1  0
  1 12  4  0
  1 14  4  0
  2  3  4  0
  2 18  4  0
  3 20  4  0
  3 22  4  0
  4 11  4  0
  4 21  4  0
  5  9  4  0
  5 16  4  0
  6 15  4  0
  6 16  4  0
  7 22  4  0
  7 26  4  0
  8 10  4  0
  8 25  4  0
  9 15  4  0
  9 17  1  0
 10 21  4  0
 11 25  4  0
 12 23  4  0
 13 20  4  0
 13 26  4  0
 14 19  4  0
 17 18  4  0
 17 24  4  0
 19 23  4  0
 20 24  4  0
 23 26  1  0
M  END
$$$$

 Created by Python create_sdf_string function

 26 30  0  0  0  0  0  0  0  0999 V2000
   10.0084   -1.8019   23.4945 C   0  0  0  0  0  0  0  0  0  0  0  0
   10.0005   -4.2520   16.5631 C   0  0  0  0  0  0  0  0  0  0  0  0
   10.2759   -4.0036   17.8845 C   0  0  0  0  0  0  0  0  0  0  0  0
    8.5652    1.5478   25.3778 N   0  0  0  0  0  0  0  0  0  0  0  0
    6.8048   -7.5457   17.8752 C   0  0  0  0  0  0  0  0  0  0  0  0
    6.1721   -8.2186   15.9886 N   0  0  0  0  0  0  0  0  0  0  0  0
   11.1764   -2.6600   19.5604 C   0  0  0  0  0  0  0  0  0  0  0  0
    9.5491   -0.6380   24.1912 C   0  0  0  0  0  0  0  0  0  0  0  0
    7.5337   -6.9256   16.9519 C   0  0  0  0  0  0  0  0  0  0  0  0
    9.6782    0.5671   23.5143 C   0  0  0  0  0  0  0  0  0  0  0  0
    8.4532    0.3482   26.0821 C   0  0  0  0  0  0  0  0  0  0  0  0
   10.4239   -1.7677   22.2230 N   0  0  0  0  0  0  0  0  0  0  0  0
    9.9468   -4.5953   20.1709 C   0  0  0  0  0  0  0  0  0  0  0  0
   10.0366   -3.0590   23.9864 N   0  0  0  0  0  0  0  0  0  0  0  0
    7.1191   -7.3636   15.7739 C   0  0  0  0  0  0  0  0  0  0  0  0
    5.9612   -8.3203   17.2732 N   0  0  0  0  0  0  0  0  0  0  0  0
    8.5296   -5.9814   17.1841 C   0  0  0  0  0  0  0  0  0  0  0  0
    9.1527   -5.2118   16.2116 C   0  0  0  0  0  0  0  0  0  0  0  0
   10.3364   -3.8368   22.9255 O   0  0  0  0  0  0  0  0  0  0  0  0
    9.6947   -4.8407   18.8534 C   0  0  0  0  0  0  0  0  0  0  0  0
    9.1596    1.7042   24.1381 C   0  0  0  0  0  0  0  0  0  0  0  0
   11.0456   -2.9774   18.2694 N   0  0  0  0  0  0  0  0  0  0  0  0
   10.4788   -3.0457   21.8593 C   0  0  0  0  0  0  0  0  0  0  0  0
    8.8693   -5.8099   18.4657 N   0  0  0  0  0  0  0  0  0  0  0  0
    8.9892   -0.7926   25.4573 C   0  0  0  0  0  0  0  0  0  0  0  0
   10.5677   -3.4462   20.5323 C   0  0  0  0  0  0  0  0  0  0  0  0
  1  8  1  0
  1 12  4  0
  1 14  4  0
  2  3  4  0
  2 18  4  0
  3 20  4  0
  3 22  4  0
  4 11  4  0
  4 21  4  0
  5  9  4  0
  5 16  4  0
  6 15  4  0
  6 16  4  0
  7 22  4  0
  7 26  4  0
  8 10  4  0
  8 25  4  0
  9 15  4  0
  9 17  1  0
 10 21  4  0
 11 25  4  0
 12 23  4  0
 13 20  4  0
 13 26  4  0
 14 19  4  0
 17 18  4  0
 17 24  4  0
 19 23  4  0
 20 24  4  0
 23 26  1  0
M  END
$$$$

 Created by Python create_sdf_string function

 26 30  0  0  0  0  0  0  0  0999 V2000
   10.0084   -1.8019   23.4945 C   0  0  0  0  0  0  0  0  0  0  0  0
   10.0005   -4.2520   16.5631 C   0  0  0  0  0  0  0  0  0  0  0  0
   10.2759   -4.0036   17.8845 C   0  0  0  0  0  0  0  0  0  0  0  0
    8.5652    1.5478   25.3778 N   0  0  0  0  0  0  0  0  0  0  0  0
    6.8048   -7.5457   17.8752 C   0  0  0  0  0  0  0  0  0  0  0  0
    6.1721   -8.2186   15.9886 N   0  0  0  0  0  0  0  0  0  0  0  0
   11.1764   -2.6600   19.5604 C   0  0  0  0  0  0  0  0  0  0  0  0
    9.5491   -0.6380   24.1912 C   0  0  0  0  0  0  0  0  0  0  0  0
    7.5337   -6.9256   16.9519 C   0  0  0  0  0  0  0  0  0  0  0  0
    9.6782    0.5671   23.5143 C   0  0  0  0  0  0  0  0  0  0  0  0
    8.4532    0.3482   26.0821 C   0  0  0  0  0  0  0  0  0  0  0  0
   10.4239   -1.7677   22.2230 N   0  0  0  0  0  0  0  0  0  0  0  0
    9.9468   -4.5953   20.1709 C   0  0  0  0  0  0  0  0  0  0  0  0
   10.0366   -3.0590   23.9864 N   0  0  0  0  0  0  0  0  0  0  0  0
    7.1191   -7.3636   15.7739 C   0  0  0  0  0  0  0  0  0  0  0  0
    5.9612   -8.3203   17.2732 N   0  0  0  0  0  0  0  0  0  0  0  0
    8.5296   -5.9814   17.1841 C   0  0  0  0  0  0  0  0  0  0  0  0
    9.1527   -5.2118   16.2116 C   0  0  0  0  0  0  0  0  0  0  0  0
   10.3364   -3.8368   22.9255 O   0  0  0  0  0  0  0  0  0  0  0  0
    9.6947   -4.8407   18.8534 C   0  0  0  0  0  0  0  0  0  0  0  0
    9.1596    1.7042   24.1381 C   0  0  0  0  0  0  0  0  0  0  0  0
   11.0456   -2.9774   18.2694 N   0  0  0  0  0  0  0  0  0  0  0  0
   10.4788   -3.0457   21.8593 C   0  0  0  0  0  0  0  0  0  0  0  0
    8.8693   -5.8099   18.4657 N   0  0  0  0  0  0  0  0  0  0  0  0
    8.9892   -0.7926   25.4573 C   0  0  0  0  0  0  0  0  0  0  0  0
   10.5677   -3.4462   20.5323 C   0  0  0  0  0  0  0  0  0  0  0  0
  1  8  1  0
  1 12  4  0
  1 14  4  0
  2  3  4  0
  2 18  4  0
  3 20  4  0
  3 22  4  0
  4 11  4  0
  4 21  4  0
  5  9  4  0
  5 16  4  0
  6 15  4  0
  6 16  4  0
  7 22  4  0
  7 26  4  0
  8 10  4  0
  8 25  4  0
  9 15  4  0
  9 17  1  0
 10 21  4  0
 11 25  4  0
 12 23  4  0
 13 20  4  0
 13 26  4  0
 14 19  4  0
 17 18  4  0
 17 24  4  0
 19 23  4  0
 20 24  4  0
 23 26  1  0
M  END
$$$$

 Created by Python create_sdf_string function

 26 30  0  0  0  0  0  0  0  0999 V2000
   10.0084   -1.8019   23.4945 C   0  0  0  0  0  0  0  0  0  0  0  0
   10.0005   -4.2520   16.5631 C   0  0  0  0  0  0  0  0  0  0  0  0
   10.2759   -4.0036   17.8845 C   0  0  0  0  0  0  0  0  0  0  0  0
    8.5652    1.5478   25.3778 N   0  0  0  0  0  0  0  0  0  0  0  0
    6.8048   -7.5457   17.8752 C   0  0  0  0  0  0  0  0  0  0  0  0
    6.1721   -8.2186   15.9886 N   0  0  0  0  0  0  0  0  0  0  0  0
   11.1764   -2.6600   19.5604 C   0  0  0  0  0  0  0  0  0  0  0  0
    9.5491   -0.6380   24.1912 C   0  0  0  0  0  0  0  0  0  0  0  0
    7.5337   -6.9256   16.9519 C   0  0  0  0  0  0  0  0  0  0  0  0
    9.6782    0.5671   23.5143 C   0  0  0  0  0  0  0  0  0  0  0  0
    8.4532    0.3482   26.0821 C   0  0  0  0  0  0  0  0  0  0  0  0
   10.4239   -1.7677   22.2230 N   0  0  0  0  0  0  0  0  0  0  0  0
    9.9468   -4.5953   20.1709 C   0  0  0  0  0  0  0  0  0  0  0  0
   10.0366   -3.0590   23.9864 N   0  0  0  0  0  0  0  0  0  0  0  0
    7.1191   -7.3636   15.7739 C   0  0  0  0  0  0  0  0  0  0  0  0
    5.9612   -8.3203   17.2732 N   0  0  0  0  0  0  0  0  0  0  0  0
    8.5296   -5.9814   17.1841 C   0  0  0  0  0  0  0  0  0  0  0  0
    9.1527   -5.2118   16.2116 C   0  0  0  0  0  0  0  0  0  0  0  0
   10.3364   -3.8368   22.9255 O   0  0  0  0  0  0  0  0  0  0  0  0
    9.6947   -4.8407   18.8534 C   0  0  0  0  0  0  0  0  0  0  0  0
    9.1596    1.7042   24.1381 C   0  0  0  0  0  0  0  0  0  0  0  0
   11.0456   -2.9774   18.2694 N   0  0  0  0  0  0  0  0  0  0  0  0
   10.4788   -3.0457   21.8593 C   0  0  0  0  0  0  0  0  0  0  0  0
    8.8693   -5.8099   18.4657 N   0  0  0  0  0  0  0  0  0  0  0  0
    8.9892   -0.7926   25.4573 C   0  0  0  0  0  0  0  0  0  0  0  0
   10.5677   -3.4462   20.5323 C   0  0  0  0  0  0  0  0  0  0  0  0
  1  8  1  0
  1 12  4  0
  1 14  4  0
  2  3  4  0
  2 18  4  0
  3 20  4  0
  3 22  4  0
  4 11  4  0
  4 21  4  0
  5  9  4  0
  5 16  4  0
  6 15  4  0
  6 16  4  0
  7 22  4  0
  7 26  4  0
  8 10  4  0
  8 25  4  0
  9 15  4  0
  9 17  1  0
 10 21  4  0
 11 25  4  0
 12 23  4  0
 13 20  4  0
 13 26  4  0
 14 19  4  0
 17 18  4  0
 17 24  4  0
 19 23  4  0
 20 24  4  0
 23 26  1  0
M  END
$$$$

 Created by Python create_sdf_string function

 26 30  0  0  0  0  0  0  0  0999 V2000
   10.0084   -1.8019   23.4945 C   0  0  0  0  0  0  0  0  0  0  0  0
   10.0005   -4.2520   16.5631 C   0  0  0  0  0  0  0  0  0  0  0  0
   10.2759   -4.0036   17.8845 C   0  0  0  0  0  0  0  0  0  0  0  0
    8.5652    1.5478   25.3778 N   0  0  0  0  0  0  0  0  0  0  0  0
    6.8048   -7.5457   17.8752 C   0  0  0  0  0  0  0  0  0  0  0  0
    6.1721   -8.2186   15.9886 N   0  0  0  0  0  0  0  0  0  0  0  0
   11.1764   -2.6600   19.5604 C   0  0  0  0  0  0  0  0  0  0  0  0
    9.5491   -0.6380   24.1912 C   0  0  0  0  0  0  0  0  0  0  0  0
    7.5337   -6.9256   16.9519 C   0  0  0  0  0  0  0  0  0  0  0  0
    9.6782    0.5671   23.5143 C   0  0  0  0  0  0  0  0  0  0  0  0
    8.4532    0.3482   26.0821 C   0  0  0  0  0  0  0  0  0  0  0  0
   10.4239   -1.7677   22.2230 N   0  0  0  0  0  0  0  0  0  0  0  0
    9.9468   -4.5953   20.1709 C   0  0  0  0  0  0  0  0  0  0  0  0
   10.0366   -3.0590   23.9864 N   0  0  0  0  0  0  0  0  0  0  0  0
    7.1191   -7.3636   15.7739 C   0  0  0  0  0  0  0  0  0  0  0  0
    5.9612   -8.3203   17.2732 N   0  0  0  0  0  0  0  0  0  0  0  0
    8.5296   -5.9814   17.1841 C   0  0  0  0  0  0  0  0  0  0  0  0
    9.1527   -5.2118   16.2116 C   0  0  0  0  0  0  0  0  0  0  0  0
   10.3364   -3.8368   22.9255 O   0  0  0  0  0  0  0  0  0  0  0  0
    9.6947   -4.8407   18.8534 C   0  0  0  0  0  0  0  0  0  0  0  0
    9.1596    1.7042   24.1381 C   0  0  0  0  0  0  0  0  0  0  0  0
   11.0456   -2.9774   18.2694 N   0  0  0  0  0  0  0  0  0  0  0  0
   10.4788   -3.0457   21.8593 C   0  0  0  0  0  0  0  0  0  0  0  0
    8.8693   -5.8099   18.4657 N   0  0  0  0  0  0  0  0  0  0  0  0
    8.9892   -0.7926   25.4573 C   0  0  0  0  0  0  0  0  0  0  0  0
   10.5677   -3.4462   20.5323 C   0  0  0  0  0  0  0  0  0  0  0  0
  1  8  1  0
  1 12  4  0
  1 14  4  0
  2  3  4  0
  2 18  4  0
  3 20  4  0
  3 22  4  0
  4 11  4  0
  4 21  4  0
  5  9  4  0
  5 16  4  0
  6 15  4  0
  6 16  4  0
  7 22  4  0
  7 26  4  0
  8 10  4  0
  8 25  4  0
  9 15  4  0
  9 17  1  0
 10 21  4  0
 11 25  4  0
 12 23  4  0
 13 20  4  0
 13 26  4  0
 14 19  4  0
 17 18  4  0
 17 24  4  0
 19 23  4  0
 20 24  4  0
 23 26  1  0
M  END
$$$$

 Created by Python create_sdf_string function

 26 30  0  0  0  0  0  0  0  0999 V2000
   10.0084   -1.8019   23.4945 C   0  0  0  0  0  0  0  0  0  0  0  0
   10.0005   -4.2520   16.5631 C   0  0  0  0  0  0  0  0  0  0  0  0
   10.2759   -4.0036   17.8845 C   0  0  0  0  0  0  0  0  0  0  0  0
    8.5652    1.5478   25.3778 N   0  0  0  0  0  0  0  0  0  0  0  0
    6.8048   -7.5457   17.8752 C   0  0  0  0  0  0  0  0  0  0  0  0
    6.1721   -8.2186   15.9886 N   0  0  0  0  0  0  0  0  0  0  0  0
   11.1764   -2.6600   19.5604 C   0  0  0  0  0  0  0  0  0  0  0  0
    9.5491   -0.6380   24.1912 C   0  0  0  0  0  0  0  0  0  0  0  0
    7.5337   -6.9256   16.9519 C   0  0  0  0  0  0  0  0  0  0  0  0
    9.6782    0.5671   23.5143 C   0  0  0  0  0  0  0  0  0  0  0  0
    8.4532    0.3482   26.0821 C   0  0  0  0  0  0  0  0  0  0  0  0
   10.4239   -1.7677   22.2230 N   0  0  0  0  0  0  0  0  0  0  0  0
    9.9468   -4.5953   20.1709 C   0  0  0  0  0  0  0  0  0  0  0  0
   10.0366   -3.0590   23.9864 N   0  0  0  0  0  0  0  0  0  0  0  0
    7.1191   -7.3636   15.7739 C   0  0  0  0  0  0  0  0  0  0  0  0
    5.9612   -8.3203   17.2732 N   0  0  0  0  0  0  0  0  0  0  0  0
    8.5296   -5.9814   17.1841 C   0  0  0  0  0  0  0  0  0  0  0  0
    9.1527   -5.2118   16.2116 C   0  0  0  0  0  0  0  0  0  0  0  0
   10.3364   -3.8368   22.9255 O   0  0  0  0  0  0  0  0  0  0  0  0
    9.6947   -4.8407   18.8534 C   0  0  0  0  0  0  0  0  0  0  0  0
    9.1596    1.7042   24.1381 C   0  0  0  0  0  0  0  0  0  0  0  0
   11.0456   -2.9774   18.2694 N   0  0  0  0  0  0  0  0  0  0  0  0
   10.4788   -3.0457   21.8593 C   0  0  0  0  0  0  0  0  0  0  0  0
    8.8693   -5.8099   18.4657 N   0  0  0  0  0  0  0  0  0  0  0  0
    8.9892   -0.7926   25.4573 C   0  0  0  0  0  0  0  0  0  0  0  0
   10.5677   -3.4462   20.5323 C   0  0  0  0  0  0  0  0  0  0  0  0
  1  8  1  0
  1 12  4  0
  1 14  4  0
  2  3  4  0
  2 18  4  0
  3 20  4  0
  3 22  4  0
  4 11  4  0
  4 21  4  0
  5  9  4  0
  5 16  4  0
  6 15  4  0
  6 16  4  0
  7 22  4  0
  7 26  4  0
  8 10  4  0
  8 25  4  0
  9 15  4  0
  9 17  1  0
 10 21  4  0
 11 25  4  0
 12 23  4  0
 13 20  4  0
 13 26  4  0
 14 19  4  0
 17 18  4  0
 17 24  4  0
 19 23  4  0
 20 24  4  0
 23 26  1  0
M  END
$$$$

 Created by Python create_sdf_string function

 26 30  0  0  0  0  0  0  0  0999 V2000
   10.0084   -1.8019   23.4945 C   0  0  0  0  0  0  0  0  0  0  0  0
   10.0005   -4.2520   16.5631 C   0  0  0  0  0  0  0  0  0  0  0  0
   10.2759   -4.0036   17.8845 C   0  0  0  0  0  0  0  0  0  0  0  0
    8.5652    1.5478   25.3778 N   0  0  0  0  0  0  0  0  0  0  0  0
    6.8048   -7.5457   17.8752 C   0  0  0  0  0  0  0  0  0  0  0  0
    6.1721   -8.2186   15.9886 N   0  0  0  0  0  0  0  0  0  0  0  0
   11.1764   -2.6600   19.5604 C   0  0  0  0  0  0  0  0  0  0  0  0
    9.5491   -0.6380   24.1912 C   0  0  0  0  0  0  0  0  0  0  0  0
    7.5337   -6.9256   16.9519 C   0  0  0  0  0  0  0  0  0  0  0  0
    9.6782    0.5671   23.5143 C   0  0  0  0  0  0  0  0  0  0  0  0
    8.4532    0.3482   26.0821 C   0  0  0  0  0  0  0  0  0  0  0  0
   10.4239   -1.7677   22.2230 N   0  0  0  0  0  0  0  0  0  0  0  0
    9.9468   -4.5953   20.1709 C   0  0  0  0  0  0  0  0  0  0  0  0
   10.0366   -3.0590   23.9864 N   0  0  0  0  0  0  0  0  0  0  0  0
    7.1191   -7.3636   15.7739 C   0  0  0  0  0  0  0  0  0  0  0  0
    5.9612   -8.3203   17.2732 N   0  0  0  0  0  0  0  0  0  0  0  0
    8.5296   -5.9814   17.1841 C   0  0  0  0  0  0  0  0  0  0  0  0
    9.1527   -5.2118   16.2116 C   0  0  0  0  0  0  0  0  0  0  0  0
   10.3364   -3.8368   22.9255 O   0  0  0  0  0  0  0  0  0  0  0  0
    9.6947   -4.8407   18.8534 C   0  0  0  0  0  0  0  0  0  0  0  0
    9.1596    1.7042   24.1381 C   0  0  0  0  0  0  0  0  0  0  0  0
   11.0456   -2.9774   18.2694 N   0  0  0  0  0  0  0  0  0  0  0  0
   10.4788   -3.0457   21.8593 C   0  0  0  0  0  0  0  0  0  0  0  0
    8.8693   -5.8099   18.4657 N   0  0  0  0  0  0  0  0  0  0  0  0
    8.9892   -0.7926   25.4573 C   0  0  0  0  0  0  0  0  0  0  0  0
   10.5677   -3.4462   20.5323 C   0  0  0  0  0  0  0  0  0  0  0  0
  1  8  1  0
  1 12  4  0
  1 14  4  0
  2  3  4  0
  2 18  4  0
  3 20  4  0
  3 22  4  0
  4 11  4  0
  4 21  4  0
  5  9  4  0
  5 16  4  0
  6 15  4  0
  6 16  4  0
  7 22  4  0
  7 26  4  0
  8 10  4  0
  8 25  4  0
  9 15  4  0
  9 17  1  0
 10 21  4  0
 11 25  4  0
 12 23  4  0
 13 20  4  0
 13 26  4  0
 14 19  4  0
 17 18  4  0
 17 24  4  0
 19 23  4  0
 20 24  4  0
 23 26  1  0
M  END
$$$$

 Created by Python create_sdf_string function

 26 30  0  0  0  0  0  0  0  0999 V2000
   10.0084   -1.8019   23.4945 C   0  0  0  0  0  0  0  0  0  0  0  0
   10.0005   -4.2520   16.5631 C   0  0  0  0  0  0  0  0  0  0  0  0
   10.2759   -4.0036   17.8845 C   0  0  0  0  0  0  0  0  0  0  0  0
    8.5652    1.5478   25.3778 N   0  0  0  0  0  0  0  0  0  0  0  0
    6.8048   -7.5457   17.8752 C   0  0  0  0  0  0  0  0  0  0  0  0
    6.1721   -8.2186   15.9886 N   0  0  0  0  0  0  0  0  0  0  0  0
   11.1764   -2.6600   19.5604 C   0  0  0  0  0  0  0  0  0  0  0  0
    9.5491   -0.6380   24.1912 C   0  0  0  0  0  0  0  0  0  0  0  0
    7.5337   -6.9256   16.9519 C   0  0  0  0  0  0  0  0  0  0  0  0
    9.6782    0.5671   23.5143 C   0  0  0  0  0  0  0  0  0  0  0  0
    8.4532    0.3482   26.0821 C   0  0  0  0  0  0  0  0  0  0  0  0
   10.4239   -1.7677   22.2230 N   0  0  0  0  0  0  0  0  0  0  0  0
    9.9468   -4.5953   20.1709 C   0  0  0  0  0  0  0  0  0  0  0  0
   10.0366   -3.0590   23.9864 N   0  0  0  0  0  0  0  0  0  0  0  0
    7.1191   -7.3636   15.7739 C   0  0  0  0  0  0  0  0  0  0  0  0
    5.9612   -8.3203   17.2732 N   0  0  0  0  0  0  0  0  0  0  0  0
    8.5296   -5.9814   17.1841 C   0  0  0  0  0  0  0  0  0  0  0  0
    9.1527   -5.2118   16.2116 C   0  0  0  0  0  0  0  0  0  0  0  0
   10.3364   -3.8368   22.9255 O   0  0  0  0  0  0  0  0  0  0  0  0
    9.6947   -4.8407   18.8534 C   0  0  0  0  0  0  0  0  0  0  0  0
    9.1596    1.7042   24.1381 C   0  0  0  0  0  0  0  0  0  0  0  0
   11.0456   -2.9774   18.2694 N   0  0  0  0  0  0  0  0  0  0  0  0
   10.4788   -3.0457   21.8593 C   0  0  0  0  0  0  0  0  0  0  0  0
    8.8693   -5.8099   18.4657 N   0  0  0  0  0  0  0  0  0  0  0  0
    8.9892   -0.7926   25.4573 C   0  0  0  0  0  0  0  0  0  0  0  0
   10.5677   -3.4462   20.5323 C   0  0  0  0  0  0  0  0  0  0  0  0
  1  8  1  0
  1 12  4  0
  1 14  4  0
  2  3  4  0
  2 18  4  0
  3 20  4  0
  3 22  4  0
  4 11  4  0
  4 21  4  0
  5  9  4  0
  5 16  4  0
  6 15  4  0
  6 16  4  0
  7 22  4  0
  7 26  4  0
  8 10  4  0
  8 25  4  0
  9 15  4  0
  9 17  1  0
 10 21  4  0
 11 25  4  0
 12 23  4  0
 13 20  4  0
 13 26  4  0
 14 19  4  0
 17 18  4  0
 17 24  4  0
 19 23  4  0
 20 24  4  0
 23 26  1  0
M  END
$$$$

 Created by Python create_sdf_string function

 26 30  0  0  0  0  0  0  0  0999 V2000
   10.0084   -1.8019   23.4945 C   0  0  0  0  0  0  0  0  0  0  0  0
   10.0005   -4.2520   16.5631 C   0  0  0  0  0  0  0  0  0  0  0  0
   10.2759   -4.0036   17.8845 C   0  0  0  0  0  0  0  0  0  0  0  0
    8.5652    1.5478   25.3778 N   0  0  0  0  0  0  0  0  0  0  0  0
    6.8048   -7.5457   17.8752 C   0  0  0  0  0  0  0  0  0  0  0  0
    6.1721   -8.2186   15.9886 N   0  0  0  0  0  0  0  0  0  0  0  0
   11.1764   -2.6600   19.5604 C   0  0  0  0  0  0  0  0  0  0  0  0
    9.5491   -0.6380   24.1912 C   0  0  0  0  0  0  0  0  0  0  0  0
    7.5337   -6.9256   16.9519 C   0  0  0  0  0  0  0  0  0  0  0  0
    9.6782    0.5671   23.5143 C   0  0  0  0  0  0  0  0  0  0  0  0
    8.4532    0.3482   26.0821 C   0  0  0  0  0  0  0  0  0  0  0  0
   10.4239   -1.7677   22.2230 N   0  0  0  0  0  0  0  0  0  0  0  0
    9.9468   -4.5953   20.1709 C   0  0  0  0  0  0  0  0  0  0  0  0
   10.0366   -3.0590   23.9864 N   0  0  0  0  0  0  0  0  0  0  0  0
    7.1191   -7.3636   15.7739 C   0  0  0  0  0  0  0  0  0  0  0  0
    5.9612   -8.3203   17.2732 N   0  0  0  0  0  0  0  0  0  0  0  0
    8.5296   -5.9814   17.1841 C   0  0  0  0  0  0  0  0  0  0  0  0
    9.1527   -5.2118   16.2116 C   0  0  0  0  0  0  0  0  0  0  0  0
   10.3364   -3.8368   22.9255 O   0  0  0  0  0  0  0  0  0  0  0  0
    9.6947   -4.8407   18.8534 C   0  0  0  0  0  0  0  0  0  0  0  0
    9.1596    1.7042   24.1381 C   0  0  0  0  0  0  0  0  0  0  0  0
   11.0456   -2.9774   18.2694 N   0  0  0  0  0  0  0  0  0  0  0  0
   10.4788   -3.0457   21.8593 C   0  0  0  0  0  0  0  0  0  0  0  0
    8.8693   -5.8099   18.4657 N   0  0  0  0  0  0  0  0  0  0  0  0
    8.9892   -0.7926   25.4573 C   0  0  0  0  0  0  0  0  0  0  0  0
   10.5677   -3.4462   20.5323 C   0  0  0  0  0  0  0  0  0  0  0  0
  1  8  1  0
  1 12  4  0
  1 14  4  0
  2  3  4  0
  2 18  4  0
  3 20  4  0
  3 22  4  0
  4 11  4  0
  4 21  4  0
  5  9  4  0
  5 16  4  0
  6 15  4  0
  6 16  4  0
  7 22  4  0
  7 26  4  0
  8 10  4  0
  8 25  4  0
  9 15  4  0
  9 17  1  0
 10 21  4  0
 11 25  4  0
 12 23  4  0
 13 20  4  0
 13 26  4  0
 14 19  4  0
 17 18  4  0
 17 24  4  0
 19 23  4  0
 20 24  4  0
 23 26  1  0
M  END
$$$$

 Created by Python create_sdf_string function

 26 30  0  0  0  0  0  0  0  0999 V2000
   10.0084   -1.8019   23.4945 C   0  0  0  0  0  0  0  0  0  0  0  0
   10.0005   -4.2520   16.5631 C   0  0  0  0  0  0  0  0  0  0  0  0
   10.2759   -4.0036   17.8845 C   0  0  0  0  0  0  0  0  0  0  0  0
    8.5652    1.5478   25.3778 N   0  0  0  0  0  0  0  0  0  0  0  0
    6.8048   -7.5457   17.8752 C   0  0  0  0  0  0  0  0  0  0  0  0
    6.1721   -8.2186   15.9886 N   0  0  0  0  0  0  0  0  0  0  0  0
   11.1764   -2.6600   19.5604 C   0  0  0  0  0  0  0  0  0  0  0  0
    9.5491   -0.6380   24.1912 C   0  0  0  0  0  0  0  0  0  0  0  0
    7.5337   -6.9256   16.9519 C   0  0  0  0  0  0  0  0  0  0  0  0
    9.6782    0.5671   23.5143 C   0  0  0  0  0  0  0  0  0  0  0  0
    8.4532    0.3482   26.0821 C   0  0  0  0  0  0  0  0  0  0  0  0
   10.4239   -1.7677   22.2230 N   0  0  0  0  0  0  0  0  0  0  0  0
    9.9468   -4.5953   20.1709 C   0  0  0  0  0  0  0  0  0  0  0  0
   10.0366   -3.0590   23.9864 N   0  0  0  0  0  0  0  0  0  0  0  0
    7.1191   -7.3636   15.7739 C   0  0  0  0  0  0  0  0  0  0  0  0
    5.9612   -8.3203   17.2732 N   0  0  0  0  0  0  0  0  0  0  0  0
    8.5296   -5.9814   17.1841 C   0  0  0  0  0  0  0  0  0  0  0  0
    9.1527   -5.2118   16.2116 C   0  0  0  0  0  0  0  0  0  0  0  0
   10.3364   -3.8368   22.9255 O   0  0  0  0  0  0  0  0  0  0  0  0
    9.6947   -4.8407   18.8534 C   0  0  0  0  0  0  0  0  0  0  0  0
    9.1596    1.7042   24.1381 C   0  0  0  0  0  0  0  0  0  0  0  0
   11.0456   -2.9774   18.2694 N   0  0  0  0  0  0  0  0  0  0  0  0
   10.4788   -3.0457   21.8593 C   0  0  0  0  0  0  0  0  0  0  0  0
    8.8693   -5.8099   18.4657 N   0  0  0  0  0  0  0  0  0  0  0  0
    8.9892   -0.7926   25.4573 C   0  0  0  0  0  0  0  0  0  0  0  0
   10.5677   -3.4462   20.5323 C   0  0  0  0  0  0  0  0  0  0  0  0
  1  8  1  0
  1 12  4  0
  1 14  4  0
  2  3  4  0
  2 18  4  0
  3 20  4  0
  3 22  4  0
  4 11  4  0
  4 21  4  0
  5  9  4  0
  5 16  4  0
  6 15  4  0
  6 16  4  0
  7 22  4  0
  7 26  4  0
  8 10  4  0
  8 25  4  0
  9 15  4  0
  9 17  1  0
 10 21  4  0
 11 25  4  0
 12 23  4  0
 13 20  4  0
 13 26  4  0
 14 19  4  0
 17 18  4  0
 17 24  4  0
 19 23  4  0
 20 24  4  0
 23 26  1  0
M  END
$$$$

 Created by Python create_sdf_string function

 26 30  0  0  0  0  0  0  0  0999 V2000
   10.0084   -1.8019   23.4945 C   0  0  0  0  0  0  0  0  0  0  0  0
   10.0005   -4.2520   16.5631 C   0  0  0  0  0  0  0  0  0  0  0  0
   10.2759   -4.0036   17.8845 C   0  0  0  0  0  0  0  0  0  0  0  0
    8.5652    1.5478   25.3778 N   0  0  0  0  0  0  0  0  0  0  0  0
    6.8048   -7.5457   17.8752 C   0  0  0  0  0  0  0  0  0  0  0  0
    6.1721   -8.2186   15.9886 N   0  0  0  0  0  0  0  0  0  0  0  0
   11.1764   -2.6600   19.5604 C   0  0  0  0  0  0  0  0  0  0  0  0
    9.5491   -0.6380   24.1912 C   0  0  0  0  0  0  0  0  0  0  0  0
    7.5337   -6.9256   16.9519 C   0  0  0  0  0  0  0  0  0  0  0  0
    9.6782    0.5671   23.5143 C   0  0  0  0  0  0  0  0  0  0  0  0
    8.4532    0.3482   26.0821 C   0  0  0  0  0  0  0  0  0  0  0  0
   10.4239   -1.7677   22.2230 N   0  0  0  0  0  0  0  0  0  0  0  0
    9.9468   -4.5953   20.1709 C   0  0  0  0  0  0  0  0  0  0  0  0
   10.0366   -3.0590   23.9864 N   0  0  0  0  0  0  0  0  0  0  0  0
    7.1191   -7.3636   15.7739 C   0  0  0  0  0  0  0  0  0  0  0  0
    5.9612   -8.3203   17.2732 N   0  0  0  0  0  0  0  0  0  0  0  0
    8.5296   -5.9814   17.1841 C   0  0  0  0  0  0  0  0  0  0  0  0
    9.1527   -5.2118   16.2116 C   0  0  0  0  0  0  0  0  0  0  0  0
   10.3364   -3.8368   22.9255 O   0  0  0  0  0  0  0  0  0  0  0  0
    9.6947   -4.8407   18.8534 C   0  0  0  0  0  0  0  0  0  0  0  0
    9.1596    1.7042   24.1381 C   0  0  0  0  0  0  0  0  0  0  0  0
   11.0456   -2.9774   18.2694 N   0  0  0  0  0  0  0  0  0  0  0  0
   10.4788   -3.0457   21.8593 C   0  0  0  0  0  0  0  0  0  0  0  0
    8.8693   -5.8099   18.4657 N   0  0  0  0  0  0  0  0  0  0  0  0
    8.9892   -0.7926   25.4573 C   0  0  0  0  0  0  0  0  0  0  0  0
   10.5677   -3.4462   20.5323 C   0  0  0  0  0  0  0  0  0  0  0  0
  1  8  1  0
  1 12  4  0
  1 14  4  0
  2  3  4  0
  2 18  4  0
  3 20  4  0
  3 22  4  0
  4 11  4  0
  4 21  4  0
  5  9  4  0
  5 16  4  0
  6 15  4  0
  6 16  4  0
  7 22  4  0
  7 26  4  0
  8 10  4  0
  8 25  4  0
  9 15  4  0
  9 17  1  0
 10 21  4  0
 11 25  4  0
 12 23  4  0
 13 20  4  0
 13 26  4  0
 14 19  4  0
 17 18  4  0
 17 24  4  0
 19 23  4  0
 20 24  4  0
 23 26  1  0
M  END
$$$$

 Created by Python create_sdf_string function

 26 30  0  0  0  0  0  0  0  0999 V2000
   10.0084   -1.8019   23.4945 C   0  0  0  0  0  0  0  0  0  0  0  0
   10.0005   -4.2520   16.5631 C   0  0  0  0  0  0  0  0  0  0  0  0
   10.2759   -4.0036   17.8845 C   0  0  0  0  0  0  0  0  0  0  0  0
    8.5652    1.5478   25.3778 N   0  0  0  0  0  0  0  0  0  0  0  0
    6.8048   -7.5457   17.8752 C   0  0  0  0  0  0  0  0  0  0  0  0
    6.1721   -8.2186   15.9886 N   0  0  0  0  0  0  0  0  0  0  0  0
   11.1764   -2.6600   19.5604 C   0  0  0  0  0  0  0  0  0  0  0  0
    9.5491   -0.6380   24.1912 C   0  0  0  0  0  0  0  0  0  0  0  0
    7.5337   -6.9256   16.9519 C   0  0  0  0  0  0  0  0  0  0  0  0
    9.6782    0.5671   23.5143 C   0  0  0  0  0  0  0  0  0  0  0  0
    8.4532    0.3482   26.0821 C   0  0  0  0  0  0  0  0  0  0  0  0
   10.4239   -1.7677   22.2230 N   0  0  0  0  0  0  0  0  0  0  0  0
    9.9468   -4.5953   20.1709 C   0  0  0  0  0  0  0  0  0  0  0  0
   10.0366   -3.0590   23.9864 N   0  0  0  0  0  0  0  0  0  0  0  0
    7.1191   -7.3636   15.7739 C   0  0  0  0  0  0  0  0  0  0  0  0
    5.9612   -8.3203   17.2732 N   0  0  0  0  0  0  0  0  0  0  0  0
    8.5296   -5.9814   17.1841 C   0  0  0  0  0  0  0  0  0  0  0  0
    9.1527   -5.2118   16.2116 C   0  0  0  0  0  0  0  0  0  0  0  0
   10.3364   -3.8368   22.9255 O   0  0  0  0  0  0  0  0  0  0  0  0
    9.6947   -4.8407   18.8534 C   0  0  0  0  0  0  0  0  0  0  0  0
    9.1596    1.7042   24.1381 C   0  0  0  0  0  0  0  0  0  0  0  0
   11.0456   -2.9774   18.2694 N   0  0  0  0  0  0  0  0  0  0  0  0
   10.4788   -3.0457   21.8593 C   0  0  0  0  0  0  0  0  0  0  0  0
    8.8693   -5.8099   18.4657 N   0  0  0  0  0  0  0  0  0  0  0  0
    8.9892   -0.7926   25.4573 C   0  0  0  0  0  0  0  0  0  0  0  0
   10.5677   -3.4462   20.5323 C   0  0  0  0  0  0  0  0  0  0  0  0
  1  8  1  0
  1 12  4  0
  1 14  4  0
  2  3  4  0
  2 18  4  0
  3 20  4  0
  3 22  4  0
  4 11  4  0
  4 21  4  0
  5  9  4  0
  5 16  4  0
  6 15  4  0
  6 16  4  0
  7 22  4  0
  7 26  4  0
  8 10  4  0
  8 25  4  0
  9 15  4  0
  9 17  1  0
 10 21  4  0
 11 25  4  0
 12 23  4  0
 13 20  4  0
 13 26  4  0
 14 19  4  0
 17 18  4  0
 17 24  4  0
 19 23  4  0
 20 24  4  0
 23 26  1  0
M  END
$$$$

 Created by Python create_sdf_string function

 26 30  0  0  0  0  0  0  0  0999 V2000
   10.0084   -1.8019   23.4945 C   0  0  0  0  0  0  0  0  0  0  0  0
   10.0005   -4.2520   16.5631 C   0  0  0  0  0  0  0  0  0  0  0  0
   10.2759   -4.0036   17.8845 C   0  0  0  0  0  0  0  0  0  0  0  0
    8.5652    1.5478   25.3778 N   0  0  0  0  0  0  0  0  0  0  0  0
    6.8048   -7.5457   17.8752 C   0  0  0  0  0  0  0  0  0  0  0  0
    6.1721   -8.2186   15.9886 N   0  0  0  0  0  0  0  0  0  0  0  0
   11.1764   -2.6600   19.5604 C   0  0  0  0  0  0  0  0  0  0  0  0
    9.5491   -0.6380   24.1912 C   0  0  0  0  0  0  0  0  0  0  0  0
    7.5337   -6.9256   16.9519 C   0  0  0  0  0  0  0  0  0  0  0  0
    9.6782    0.5671   23.5143 C   0  0  0  0  0  0  0  0  0  0  0  0
    8.4532    0.3482   26.0821 C   0  0  0  0  0  0  0  0  0  0  0  0
   10.4239   -1.7677   22.2230 N   0  0  0  0  0  0  0  0  0  0  0  0
    9.9468   -4.5953   20.1709 C   0  0  0  0  0  0  0  0  0  0  0  0
   10.0366   -3.0590   23.9864 N   0  0  0  0  0  0  0  0  0  0  0  0
    7.1191   -7.3636   15.7739 C   0  0  0  0  0  0  0  0  0  0  0  0
    5.9612   -8.3203   17.2732 N   0  0  0  0  0  0  0  0  0  0  0  0
    8.5296   -5.9814   17.1841 C   0  0  0  0  0  0  0  0  0  0  0  0
    9.1527   -5.2118   16.2116 C   0  0  0  0  0  0  0  0  0  0  0  0
   10.3364   -3.8368   22.9255 O   0  0  0  0  0  0  0  0  0  0  0  0
    9.6947   -4.8407   18.8534 C   0  0  0  0  0  0  0  0  0  0  0  0
    9.1596    1.7042   24.1381 C   0  0  0  0  0  0  0  0  0  0  0  0
   11.0456   -2.9774   18.2694 N   0  0  0  0  0  0  0  0  0  0  0  0
   10.4788   -3.0457   21.8593 C   0  0  0  0  0  0  0  0  0  0  0  0
    8.8693   -5.8099   18.4657 N   0  0  0  0  0  0  0  0  0  0  0  0
    8.9892   -0.7926   25.4573 C   0  0  0  0  0  0  0  0  0  0  0  0
   10.5677   -3.4462   20.5323 C   0  0  0  0  0  0  0  0  0  0  0  0
  1  8  1  0
  1 12  4  0
  1 14  4  0
  2  3  4  0
  2 18  4  0
  3 20  4  0
  3 22  4  0
  4 11  4  0
  4 21  4  0
  5  9  4  0
  5 16  4  0
  6 15  4  0
  6 16  4  0
  7 22  4  0
  7 26  4  0
  8 10  4  0
  8 25  4  0
  9 15  4  0
  9 17  1  0
 10 21  4  0
 11 25  4  0
 12 23  4  0
 13 20  4  0
 13 26  4  0
 14 19  4  0
 17 18  4  0
 17 24  4  0
 19 23  4  0
 20 24  4  0
 23 26  1  0
M  END
$$$$

 Created by Python create_sdf_string function

 26 30  0  0  0  0  0  0  0  0999 V2000
   10.0084   -1.8019   23.4945 C   0  0  0  0  0  0  0  0  0  0  0  0
   10.0005   -4.2520   16.5631 C   0  0  0  0  0  0  0  0  0  0  0  0
   10.2759   -4.0036   17.8845 C   0  0  0  0  0  0  0  0  0  0  0  0
    8.5652    1.5478   25.3778 N   0  0  0  0  0  0  0  0  0  0  0  0
    6.8048   -7.5457   17.8752 C   0  0  0  0  0  0  0  0  0  0  0  0
    6.1721   -8.2186   15.9886 N   0  0  0  0  0  0  0  0  0  0  0  0
   11.1764   -2.6600   19.5604 C   0  0  0  0  0  0  0  0  0  0  0  0
    9.5491   -0.6380   24.1912 C   0  0  0  0  0  0  0  0  0  0  0  0
    7.5337   -6.9256   16.9519 C   0  0  0  0  0  0  0  0  0  0  0  0
    9.6782    0.5671   23.5143 C   0  0  0  0  0  0  0  0  0  0  0  0
    8.4532    0.3482   26.0821 C   0  0  0  0  0  0  0  0  0  0  0  0
   10.4239   -1.7677   22.2230 N   0  0  0  0  0  0  0  0  0  0  0  0
    9.9468   -4.5953   20.1709 C   0  0  0  0  0  0  0  0  0  0  0  0
   10.0366   -3.0590   23.9864 N   0  0  0  0  0  0  0  0  0  0  0  0
    7.1191   -7.3636   15.7739 C   0  0  0  0  0  0  0  0  0  0  0  0
    5.9612   -8.3203   17.2732 N   0  0  0  0  0  0  0  0  0  0  0  0
    8.5296   -5.9814   17.1841 C   0  0  0  0  0  0  0  0  0  0  0  0
    9.1527   -5.2118   16.2116 C   0  0  0  0  0  0  0  0  0  0  0  0
   10.3364   -3.8368   22.9255 O   0  0  0  0  0  0  0  0  0  0  0  0
    9.6947   -4.8407   18.8534 C   0  0  0  0  0  0  0  0  0  0  0  0
    9.1596    1.7042   24.1381 C   0  0  0  0  0  0  0  0  0  0  0  0
   11.0456   -2.9774   18.2694 N   0  0  0  0  0  0  0  0  0  0  0  0
   10.4788   -3.0457   21.8593 C   0  0  0  0  0  0  0  0  0  0  0  0
    8.8693   -5.8099   18.4657 N   0  0  0  0  0  0  0  0  0  0  0  0
    8.9892   -0.7926   25.4573 C   0  0  0  0  0  0  0  0  0  0  0  0
   10.5677   -3.4462   20.5323 C   0  0  0  0  0  0  0  0  0  0  0  0
  1  8  1  0
  1 12  4  0
  1 14  4  0
  2  3  4  0
  2 18  4  0
  3 20  4  0
  3 22  4  0
  4 11  4  0
  4 21  4  0
  5  9  4  0
  5 16  4  0
  6 15  4  0
  6 16  4  0
  7 22  4  0
  7 26  4  0
  8 10  4  0
  8 25  4  0
  9 15  4  0
  9 17  1  0
 10 21  4  0
 11 25  4  0
 12 23  4  0
 13 20  4  0
 13 26  4  0
 14 19  4  0
 17 18  4  0
 17 24  4  0
 19 23  4  0
 20 24  4  0
 23 26  1  0
M  END
$$$$

 Created by Python create_sdf_string function

 26 30  0  0  0  0  0  0  0  0999 V2000
   10.0084   -1.8019   23.4945 C   0  0  0  0  0  0  0  0  0  0  0  0
   10.0005   -4.2520   16.5631 C   0  0  0  0  0  0  0  0  0  0  0  0
   10.2759   -4.0036   17.8845 C   0  0  0  0  0  0  0  0  0  0  0  0
    8.5652    1.5478   25.3778 N   0  0  0  0  0  0  0  0  0  0  0  0
    6.8048   -7.5457   17.8752 C   0  0  0  0  0  0  0  0  0  0  0  0
    6.1721   -8.2186   15.9886 N   0  0  0  0  0  0  0  0  0  0  0  0
   11.1764   -2.6600   19.5604 C   0  0  0  0  0  0  0  0  0  0  0  0
    9.5491   -0.6380   24.1912 C   0  0  0  0  0  0  0  0  0  0  0  0
    7.5337   -6.9256   16.9519 C   0  0  0  0  0  0  0  0  0  0  0  0
    9.6782    0.5671   23.5143 C   0  0  0  0  0  0  0  0  0  0  0  0
    8.4532    0.3482   26.0821 C   0  0  0  0  0  0  0  0  0  0  0  0
   10.4239   -1.7677   22.2230 N   0  0  0  0  0  0  0  0  0  0  0  0
    9.9468   -4.5953   20.1709 C   0  0  0  0  0  0  0  0  0  0  0  0
   10.0366   -3.0590   23.9864 N   0  0  0  0  0  0  0  0  0  0  0  0
    7.1191   -7.3636   15.7739 C   0  0  0  0  0  0  0  0  0  0  0  0
    5.9612   -8.3203   17.2732 N   0  0  0  0  0  0  0  0  0  0  0  0
    8.5296   -5.9814   17.1841 C   0  0  0  0  0  0  0  0  0  0  0  0
    9.1527   -5.2118   16.2116 C   0  0  0  0  0  0  0  0  0  0  0  0
   10.3364   -3.8368   22.9255 O   0  0  0  0  0  0  0  0  0  0  0  0
    9.6947   -4.8407   18.8534 C   0  0  0  0  0  0  0  0  0  0  0  0
    9.1596    1.7042   24.1381 C   0  0  0  0  0  0  0  0  0  0  0  0
   11.0456   -2.9774   18.2694 N   0  0  0  0  0  0  0  0  0  0  0  0
   10.4788   -3.0457   21.8593 C   0  0  0  0  0  0  0  0  0  0  0  0
    8.8693   -5.8099   18.4657 N   0  0  0  0  0  0  0  0  0  0  0  0
    8.9892   -0.7926   25.4573 C   0  0  0  0  0  0  0  0  0  0  0  0
   10.5677   -3.4462   20.5323 C   0  0  0  0  0  0  0  0  0  0  0  0
  1  8  1  0
  1 12  4  0
  1 14  4  0
  2  3  4  0
  2 18  4  0
  3 20  4  0
  3 22  4  0
  4 11  4  0
  4 21  4  0
  5  9  4  0
  5 16  4  0
  6 15  4  0
  6 16  4  0
  7 22  4  0
  7 26  4  0
  8 10  4  0
  8 25  4  0
  9 15  4  0
  9 17  1  0
 10 21  4  0
 11 25  4  0
 12 23  4  0
 13 20  4  0
 13 26  4  0
 14 19  4  0
 17 18  4  0
 17 24  4  0
 19 23  4  0
 20 24  4  0
 23 26  1  0
M  END
$$$$

 Created by Python create_sdf_string function

 26 30  0  0  0  0  0  0  0  0999 V2000
   10.0084   -1.8019   23.4945 C   0  0  0  0  0  0  0  0  0  0  0  0
   10.0005   -4.2520   16.5631 C   0  0  0  0  0  0  0  0  0  0  0  0
   10.2759   -4.0036   17.8845 C   0  0  0  0  0  0  0  0  0  0  0  0
    8.5652    1.5478   25.3778 N   0  0  0  0  0  0  0  0  0  0  0  0
    6.8048   -7.5457   17.8752 C   0  0  0  0  0  0  0  0  0  0  0  0
    6.1721   -8.2186   15.9886 N   0  0  0  0  0  0  0  0  0  0  0  0
   11.1764   -2.6600   19.5604 C   0  0  0  0  0  0  0  0  0  0  0  0
    9.5491   -0.6380   24.1912 C   0  0  0  0  0  0  0  0  0  0  0  0
    7.5337   -6.9256   16.9519 C   0  0  0  0  0  0  0  0  0  0  0  0
    9.6782    0.5671   23.5143 C   0  0  0  0  0  0  0  0  0  0  0  0
    8.4532    0.3482   26.0821 C   0  0  0  0  0  0  0  0  0  0  0  0
   10.4239   -1.7677   22.2230 N   0  0  0  0  0  0  0  0  0  0  0  0
    9.9468   -4.5953   20.1709 C   0  0  0  0  0  0  0  0  0  0  0  0
   10.0366   -3.0590   23.9864 N   0  0  0  0  0  0  0  0  0  0  0  0
    7.1191   -7.3636   15.7739 C   0  0  0  0  0  0  0  0  0  0  0  0
    5.9612   -8.3203   17.2732 N   0  0  0  0  0  0  0  0  0  0  0  0
    8.5296   -5.9814   17.1841 C   0  0  0  0  0  0  0  0  0  0  0  0
    9.1527   -5.2118   16.2116 C   0  0  0  0  0  0  0  0  0  0  0  0
   10.3364   -3.8368   22.9255 O   0  0  0  0  0  0  0  0  0  0  0  0
    9.6947   -4.8407   18.8534 C   0  0  0  0  0  0  0  0  0  0  0  0
    9.1596    1.7042   24.1381 C   0  0  0  0  0  0  0  0  0  0  0  0
   11.0456   -2.9774   18.2694 N   0  0  0  0  0  0  0  0  0  0  0  0
   10.4788   -3.0457   21.8593 C   0  0  0  0  0  0  0  0  0  0  0  0
    8.8693   -5.8099   18.4657 N   0  0  0  0  0  0  0  0  0  0  0  0
    8.9892   -0.7926   25.4573 C   0  0  0  0  0  0  0  0  0  0  0  0
   10.5677   -3.4462   20.5323 C   0  0  0  0  0  0  0  0  0  0  0  0
  1  8  1  0
  1 12  4  0
  1 14  4  0
  2  3  4  0
  2 18  4  0
  3 20  4  0
  3 22  4  0
  4 11  4  0
  4 21  4  0
  5  9  4  0
  5 16  4  0
  6 15  4  0
  6 16  4  0
  7 22  4  0
  7 26  4  0
  8 10  4  0
  8 25  4  0
  9 15  4  0
  9 17  1  0
 10 21  4  0
 11 25  4  0
 12 23  4  0
 13 20  4  0
 13 26  4  0
 14 19  4  0
 17 18  4  0
 17 24  4  0
 19 23  4  0
 20 24  4  0
 23 26  1  0
M  END
$$$$

 Created by Python create_sdf_string function

 26 30  0  0  0  0  0  0  0  0999 V2000
   10.0084   -1.8019   23.4945 C   0  0  0  0  0  0  0  0  0  0  0  0
   10.0005   -4.2520   16.5631 C   0  0  0  0  0  0  0  0  0  0  0  0
   10.2759   -4.0036   17.8845 C   0  0  0  0  0  0  0  0  0  0  0  0
    8.5652    1.5478   25.3778 N   0  0  0  0  0  0  0  0  0  0  0  0
    6.8048   -7.5457   17.8752 C   0  0  0  0  0  0  0  0  0  0  0  0
    6.1721   -8.2186   15.9886 N   0  0  0  0  0  0  0  0  0  0  0  0
   11.1764   -2.6600   19.5604 C   0  0  0  0  0  0  0  0  0  0  0  0
    9.5491   -0.6380   24.1912 C   0  0  0  0  0  0  0  0  0  0  0  0
    7.5337   -6.9256   16.9519 C   0  0  0  0  0  0  0  0  0  0  0  0
    9.6782    0.5671   23.5143 C   0  0  0  0  0  0  0  0  0  0  0  0
    8.4532    0.3482   26.0821 C   0  0  0  0  0  0  0  0  0  0  0  0
   10.4239   -1.7677   22.2230 N   0  0  0  0  0  0  0  0  0  0  0  0
    9.9468   -4.5953   20.1709 C   0  0  0  0  0  0  0  0  0  0  0  0
   10.0366   -3.0590   23.9864 N   0  0  0  0  0  0  0  0  0  0  0  0
    7.1191   -7.3636   15.7739 C   0  0  0  0  0  0  0  0  0  0  0  0
    5.9612   -8.3203   17.2732 N   0  0  0  0  0  0  0  0  0  0  0  0
    8.5296   -5.9814   17.1841 C   0  0  0  0  0  0  0  0  0  0  0  0
    9.1527   -5.2118   16.2116 C   0  0  0  0  0  0  0  0  0  0  0  0
   10.3364   -3.8368   22.9255 O   0  0  0  0  0  0  0  0  0  0  0  0
    9.6947   -4.8407   18.8534 C   0  0  0  0  0  0  0  0  0  0  0  0
    9.1596    1.7042   24.1381 C   0  0  0  0  0  0  0  0  0  0  0  0
   11.0456   -2.9774   18.2694 N   0  0  0  0  0  0  0  0  0  0  0  0
   10.4788   -3.0457   21.8593 C   0  0  0  0  0  0  0  0  0  0  0  0
    8.8693   -5.8099   18.4657 N   0  0  0  0  0  0  0  0  0  0  0  0
    8.9892   -0.7926   25.4573 C   0  0  0  0  0  0  0  0  0  0  0  0
   10.5677   -3.4462   20.5323 C   0  0  0  0  0  0  0  0  0  0  0  0
  1  8  1  0
  1 12  4  0
  1 14  4  0
  2  3  4  0
  2 18  4  0
  3 20  4  0
  3 22  4  0
  4 11  4  0
  4 21  4  0
  5  9  4  0
  5 16  4  0
  6 15  4  0
  6 16  4  0
  7 22  4  0
  7 26  4  0
  8 10  4  0
  8 25  4  0
  9 15  4  0
  9 17  1  0
 10 21  4  0
 11 25  4  0
 12 23  4  0
 13 20  4  0
 13 26  4  0
 14 19  4  0
 17 18  4  0
 17 24  4  0
 19 23  4  0
 20 24  4  0
 23 26  1  0
M  END
$$$$

 Created by Python create_sdf_string function

 26 30  0  0  0  0  0  0  0  0999 V2000
   10.0084   -1.8019   23.4945 C   0  0  0  0  0  0  0  0  0  0  0  0
   10.0005   -4.2520   16.5631 C   0  0  0  0  0  0  0  0  0  0  0  0
   10.2759   -4.0036   17.8845 C   0  0  0  0  0  0  0  0  0  0  0  0
    8.5652    1.5478   25.3778 N   0  0  0  0  0  0  0  0  0  0  0  0
    6.8048   -7.5457   17.8752 C   0  0  0  0  0  0  0  0  0  0  0  0
    6.1721   -8.2186   15.9886 N   0  0  0  0  0  0  0  0  0  0  0  0
   11.1764   -2.6600   19.5604 C   0  0  0  0  0  0  0  0  0  0  0  0
    9.5491   -0.6380   24.1912 C   0  0  0  0  0  0  0  0  0  0  0  0
    7.5337   -6.9256   16.9519 C   0  0  0  0  0  0  0  0  0  0  0  0
    9.6782    0.5671   23.5143 C   0  0  0  0  0  0  0  0  0  0  0  0
    8.4532    0.3482   26.0821 C   0  0  0  0  0  0  0  0  0  0  0  0
   10.4239   -1.7677   22.2230 N   0  0  0  0  0  0  0  0  0  0  0  0
    9.9468   -4.5953   20.1709 C   0  0  0  0  0  0  0  0  0  0  0  0
   10.0366   -3.0590   23.9864 N   0  0  0  0  0  0  0  0  0  0  0  0
    7.1191   -7.3636   15.7739 C   0  0  0  0  0  0  0  0  0  0  0  0
    5.9612   -8.3203   17.2732 N   0  0  0  0  0  0  0  0  0  0  0  0
    8.5296   -5.9814   17.1841 C   0  0  0  0  0  0  0  0  0  0  0  0
    9.1527   -5.2118   16.2116 C   0  0  0  0  0  0  0  0  0  0  0  0
   10.3364   -3.8368   22.9255 O   0  0  0  0  0  0  0  0  0  0  0  0
    9.6947   -4.8407   18.8534 C   0  0  0  0  0  0  0  0  0  0  0  0
    9.1596    1.7042   24.1381 C   0  0  0  0  0  0  0  0  0  0  0  0
   11.0456   -2.9774   18.2694 N   0  0  0  0  0  0  0  0  0  0  0  0
   10.4788   -3.0457   21.8593 C   0  0  0  0  0  0  0  0  0  0  0  0
    8.8693   -5.8099   18.4657 N   0  0  0  0  0  0  0  0  0  0  0  0
    8.9892   -0.7926   25.4573 C   0  0  0  0  0  0  0  0  0  0  0  0
   10.5677   -3.4462   20.5323 C   0  0  0  0  0  0  0  0  0  0  0  0
  1  8  1  0
  1 12  4  0
  1 14  4  0
  2  3  4  0
  2 18  4  0
  3 20  4  0
  3 22  4  0
  4 11  4  0
  4 21  4  0
  5  9  4  0
  5 16  4  0
  6 15  4  0
  6 16  4  0
  7 22  4  0
  7 26  4  0
  8 10  4  0
  8 25  4  0
  9 15  4  0
  9 17  1  0
 10 21  4  0
 11 25  4  0
 12 23  4  0
 13 20  4  0
 13 26  4  0
 14 19  4  0
 17 18  4  0
 17 24  4  0
 19 23  4  0
 20 24  4  0
 23 26  1  0
M  END
$$$$

 Created by Python create_sdf_string function

 26 30  0  0  0  0  0  0  0  0999 V2000
   10.0084   -1.8019   23.4945 C   0  0  0  0  0  0  0  0  0  0  0  0
   10.0005   -4.2520   16.5631 C   0  0  0  0  0  0  0  0  0  0  0  0
   10.2759   -4.0036   17.8845 C   0  0  0  0  0  0  0  0  0  0  0  0
    8.5652    1.5478   25.3778 N   0  0  0  0  0  0  0  0  0  0  0  0
    6.8048   -7.5457   17.8752 C   0  0  0  0  0  0  0  0  0  0  0  0
    6.1721   -8.2186   15.9886 N   0  0  0  0  0  0  0  0  0  0  0  0
   11.1764   -2.6600   19.5604 C   0  0  0  0  0  0  0  0  0  0  0  0
    9.5491   -0.6380   24.1912 C   0  0  0  0  0  0  0  0  0  0  0  0
    7.5337   -6.9256   16.9519 C   0  0  0  0  0  0  0  0  0  0  0  0
    9.6782    0.5671   23.5143 C   0  0  0  0  0  0  0  0  0  0  0  0
    8.4532    0.3482   26.0821 C   0  0  0  0  0  0  0  0  0  0  0  0
   10.4239   -1.7677   22.2230 N   0  0  0  0  0  0  0  0  0  0  0  0
    9.9468   -4.5953   20.1709 C   0  0  0  0  0  0  0  0  0  0  0  0
   10.0366   -3.0590   23.9864 N   0  0  0  0  0  0  0  0  0  0  0  0
    7.1191   -7.3636   15.7739 C   0  0  0  0  0  0  0  0  0  0  0  0
    5.9612   -8.3203   17.2732 N   0  0  0  0  0  0  0  0  0  0  0  0
    8.5296   -5.9814   17.1841 C   0  0  0  0  0  0  0  0  0  0  0  0
    9.1527   -5.2118   16.2116 C   0  0  0  0  0  0  0  0  0  0  0  0
   10.3364   -3.8368   22.9255 O   0  0  0  0  0  0  0  0  0  0  0  0
    9.6947   -4.8407   18.8534 C   0  0  0  0  0  0  0  0  0  0  0  0
    9.1596    1.7042   24.1381 C   0  0  0  0  0  0  0  0  0  0  0  0
   11.0456   -2.9774   18.2694 N   0  0  0  0  0  0  0  0  0  0  0  0
   10.4788   -3.0457   21.8593 C   0  0  0  0  0  0  0  0  0  0  0  0
    8.8693   -5.8099   18.4657 N   0  0  0  0  0  0  0  0  0  0  0  0
    8.9892   -0.7926   25.4573 C   0  0  0  0  0  0  0  0  0  0  0  0
   10.5677   -3.4462   20.5323 C   0  0  0  0  0  0  0  0  0  0  0  0
  1  8  1  0
  1 12  4  0
  1 14  4  0
  2  3  4  0
  2 18  4  0
  3 20  4  0
  3 22  4  0
  4 11  4  0
  4 21  4  0
  5  9  4  0
  5 16  4  0
  6 15  4  0
  6 16  4  0
  7 22  4  0
  7 26  4  0
  8 10  4  0
  8 25  4  0
  9 15  4  0
  9 17  1  0
 10 21  4  0
 11 25  4  0
 12 23  4  0
 13 20  4  0
 13 26  4  0
 14 19  4  0
 17 18  4  0
 17 24  4  0
 19 23  4  0
 20 24  4  0
 23 26  1  0
M  END
$$$$

 Created by Python create_sdf_string function

 26 30  0  0  0  0  0  0  0  0999 V2000
   10.0084   -1.8019   23.4945 C   0  0  0  0  0  0  0  0  0  0  0  0
   10.0005   -4.2520   16.5631 C   0  0  0  0  0  0  0  0  0  0  0  0
   10.2759   -4.0036   17.8845 C   0  0  0  0  0  0  0  0  0  0  0  0
    8.5652    1.5478   25.3778 N   0  0  0  0  0  0  0  0  0  0  0  0
    6.8048   -7.5457   17.8752 C   0  0  0  0  0  0  0  0  0  0  0  0
    6.1721   -8.2186   15.9886 N   0  0  0  0  0  0  0  0  0  0  0  0
   11.1764   -2.6600   19.5604 C   0  0  0  0  0  0  0  0  0  0  0  0
    9.5491   -0.6380   24.1912 C   0  0  0  0  0  0  0  0  0  0  0  0
    7.5337   -6.9256   16.9519 C   0  0  0  0  0  0  0  0  0  0  0  0
    9.6782    0.5671   23.5143 C   0  0  0  0  0  0  0  0  0  0  0  0
    8.4532    0.3482   26.0821 C   0  0  0  0  0  0  0  0  0  0  0  0
   10.4239   -1.7677   22.2230 N   0  0  0  0  0  0  0  0  0  0  0  0
    9.9468   -4.5953   20.1709 C   0  0  0  0  0  0  0  0  0  0  0  0
   10.0366   -3.0590   23.9864 N   0  0  0  0  0  0  0  0  0  0  0  0
    7.1191   -7.3636   15.7739 C   0  0  0  0  0  0  0  0  0  0  0  0
    5.9612   -8.3203   17.2732 N   0  0  0  0  0  0  0  0  0  0  0  0
    8.5296   -5.9814   17.1841 C   0  0  0  0  0  0  0  0  0  0  0  0
    9.1527   -5.2118   16.2116 C   0  0  0  0  0  0  0  0  0  0  0  0
   10.3364   -3.8368   22.9255 O   0  0  0  0  0  0  0  0  0  0  0  0
    9.6947   -4.8407   18.8534 C   0  0  0  0  0  0  0  0  0  0  0  0
    9.1596    1.7042   24.1381 C   0  0  0  0  0  0  0  0  0  0  0  0
   11.0456   -2.9774   18.2694 N   0  0  0  0  0  0  0  0  0  0  0  0
   10.4788   -3.0457   21.8593 C   0  0  0  0  0  0  0  0  0  0  0  0
    8.8693   -5.8099   18.4657 N   0  0  0  0  0  0  0  0  0  0  0  0
    8.9892   -0.7926   25.4573 C   0  0  0  0  0  0  0  0  0  0  0  0
   10.5677   -3.4462   20.5323 C   0  0  0  0  0  0  0  0  0  0  0  0
  1  8  1  0
  1 12  4  0
  1 14  4  0
  2  3  4  0
  2 18  4  0
  3 20  4  0
  3 22  4  0
  4 11  4  0
  4 21  4  0
  5  9  4  0
  5 16  4  0
  6 15  4  0
  6 16  4  0
  7 22  4  0
  7 26  4  0
  8 10  4  0
  8 25  4  0
  9 15  4  0
  9 17  1  0
 10 21  4  0
 11 25  4  0
 12 23  4  0
 13 20  4  0
 13 26  4  0
 14 19  4  0
 17 18  4  0
 17 24  4  0
 19 23  4  0
 20 24  4  0
 23 26  1  0
M  END
$$$$

 Created by Python create_sdf_string function

 26 30  0  0  0  0  0  0  0  0999 V2000
   10.0084   -1.8019   23.4945 C   0  0  0  0  0  0  0  0  0  0  0  0
   10.0005   -4.2520   16.5631 C   0  0  0  0  0  0  0  0  0  0  0  0
   10.2759   -4.0036   17.8845 C   0  0  0  0  0  0  0  0  0  0  0  0
    8.5652    1.5478   25.3778 N   0  0  0  0  0  0  0  0  0  0  0  0
    6.8048   -7.5457   17.8752 C   0  0  0  0  0  0  0  0  0  0  0  0
    6.1721   -8.2186   15.9886 N   0  0  0  0  0  0  0  0  0  0  0  0
   11.1764   -2.6600   19.5604 C   0  0  0  0  0  0  0  0  0  0  0  0
    9.5491   -0.6380   24.1912 C   0  0  0  0  0  0  0  0  0  0  0  0
    7.5337   -6.9256   16.9519 C   0  0  0  0  0  0  0  0  0  0  0  0
    9.6782    0.5671   23.5143 C   0  0  0  0  0  0  0  0  0  0  0  0
    8.4532    0.3482   26.0821 C   0  0  0  0  0  0  0  0  0  0  0  0
   10.4239   -1.7677   22.2230 N   0  0  0  0  0  0  0  0  0  0  0  0
    9.9468   -4.5953   20.1709 C   0  0  0  0  0  0  0  0  0  0  0  0
   10.0366   -3.0590   23.9864 N   0  0  0  0  0  0  0  0  0  0  0  0
    7.1191   -7.3636   15.7739 C   0  0  0  0  0  0  0  0  0  0  0  0
    5.9612   -8.3203   17.2732 N   0  0  0  0  0  0  0  0  0  0  0  0
    8.5296   -5.9814   17.1841 C   0  0  0  0  0  0  0  0  0  0  0  0
    9.1527   -5.2118   16.2116 C   0  0  0  0  0  0  0  0  0  0  0  0
   10.3364   -3.8368   22.9255 O   0  0  0  0  0  0  0  0  0  0  0  0
    9.6947   -4.8407   18.8534 C   0  0  0  0  0  0  0  0  0  0  0  0
    9.1596    1.7042   24.1381 C   0  0  0  0  0  0  0  0  0  0  0  0
   11.0456   -2.9774   18.2694 N   0  0  0  0  0  0  0  0  0  0  0  0
   10.4788   -3.0457   21.8593 C   0  0  0  0  0  0  0  0  0  0  0  0
    8.8693   -5.8099   18.4657 N   0  0  0  0  0  0  0  0  0  0  0  0
    8.9892   -0.7926   25.4573 C   0  0  0  0  0  0  0  0  0  0  0  0
   10.5677   -3.4462   20.5323 C   0  0  0  0  0  0  0  0  0  0  0  0
  1  8  1  0
  1 12  4  0
  1 14  4  0
  2  3  4  0
  2 18  4  0
  3 20  4  0
  3 22  4  0
  4 11  4  0
  4 21  4  0
  5  9  4  0
  5 16  4  0
  6 15  4  0
  6 16  4  0
  7 22  4  0
  7 26  4  0
  8 10  4  0
  8 25  4  0
  9 15  4  0
  9 17  1  0
 10 21  4  0
 11 25  4  0
 12 23  4  0
 13 20  4  0
 13 26  4  0
 14 19  4  0
 17 18  4  0
 17 24  4  0
 19 23  4  0
 20 24  4  0
 23 26  1  0
M  END
$$$$

 Created by Python create_sdf_string function

 26 30  0  0  0  0  0  0  0  0999 V2000
   10.0084   -1.8019   23.4945 C   0  0  0  0  0  0  0  0  0  0  0  0
   10.0005   -4.2520   16.5631 C   0  0  0  0  0  0  0  0  0  0  0  0
   10.2759   -4.0036   17.8845 C   0  0  0  0  0  0  0  0  0  0  0  0
    8.5652    1.5478   25.3778 N   0  0  0  0  0  0  0  0  0  0  0  0
    6.8048   -7.5457   17.8752 C   0  0  0  0  0  0  0  0  0  0  0  0
    6.1721   -8.2186   15.9886 N   0  0  0  0  0  0  0  0  0  0  0  0
   11.1764   -2.6600   19.5604 C   0  0  0  0  0  0  0  0  0  0  0  0
    9.5491   -0.6380   24.1912 C   0  0  0  0  0  0  0  0  0  0  0  0
    7.5337   -6.9256   16.9519 C   0  0  0  0  0  0  0  0  0  0  0  0
    9.6782    0.5671   23.5143 C   0  0  0  0  0  0  0  0  0  0  0  0
    8.4532    0.3482   26.0821 C   0  0  0  0  0  0  0  0  0  0  0  0
   10.4239   -1.7677   22.2230 N   0  0  0  0  0  0  0  0  0  0  0  0
    9.9468   -4.5953   20.1709 C   0  0  0  0  0  0  0  0  0  0  0  0
   10.0366   -3.0590   23.9864 N   0  0  0  0  0  0  0  0  0  0  0  0
    7.1191   -7.3636   15.7739 C   0  0  0  0  0  0  0  0  0  0  0  0
    5.9612   -8.3203   17.2732 N   0  0  0  0  0  0  0  0  0  0  0  0
    8.5296   -5.9814   17.1841 C   0  0  0  0  0  0  0  0  0  0  0  0
    9.1527   -5.2118   16.2116 C   0  0  0  0  0  0  0  0  0  0  0  0
   10.3364   -3.8368   22.9255 O   0  0  0  0  0  0  0  0  0  0  0  0
    9.6947   -4.8407   18.8534 C   0  0  0  0  0  0  0  0  0  0  0  0
    9.1596    1.7042   24.1381 C   0  0  0  0  0  0  0  0  0  0  0  0
   11.0456   -2.9774   18.2694 N   0  0  0  0  0  0  0  0  0  0  0  0
   10.4788   -3.0457   21.8593 C   0  0  0  0  0  0  0  0  0  0  0  0
    8.8693   -5.8099   18.4657 N   0  0  0  0  0  0  0  0  0  0  0  0
    8.9892   -0.7926   25.4573 C   0  0  0  0  0  0  0  0  0  0  0  0
   10.5677   -3.4462   20.5323 C   0  0  0  0  0  0  0  0  0  0  0  0
  1  8  1  0
  1 12  4  0
  1 14  4  0
  2  3  4  0
  2 18  4  0
  3 20  4  0
  3 22  4  0
  4 11  4  0
  4 21  4  0
  5  9  4  0
  5 16  4  0
  6 15  4  0
  6 16  4  0
  7 22  4  0
  7 26  4  0
  8 10  4  0
  8 25  4  0
  9 15  4  0
  9 17  1  0
 10 21  4  0
 11 25  4  0
 12 23  4  0
 13 20  4  0
 13 26  4  0
 14 19  4  0
 17 18  4  0
 17 24  4  0
 19 23  4  0
 20 24  4  0
 23 26  1  0
M  END
$$$$

 Created by Python create_sdf_string function

 26 30  0  0  0  0  0  0  0  0999 V2000
   10.0084   -1.8019   23.4945 C   0  0  0  0  0  0  0  0  0  0  0  0
   10.0005   -4.2520   16.5631 C   0  0  0  0  0  0  0  0  0  0  0  0
   10.2759   -4.0036   17.8845 C   0  0  0  0  0  0  0  0  0  0  0  0
    8.5652    1.5478   25.3778 N   0  0  0  0  0  0  0  0  0  0  0  0
    6.8048   -7.5457   17.8752 C   0  0  0  0  0  0  0  0  0  0  0  0
    6.1721   -8.2186   15.9886 N   0  0  0  0  0  0  0  0  0  0  0  0
   11.1764   -2.6600   19.5604 C   0  0  0  0  0  0  0  0  0  0  0  0
    9.5491   -0.6380   24.1912 C   0  0  0  0  0  0  0  0  0  0  0  0
    7.5337   -6.9256   16.9519 C   0  0  0  0  0  0  0  0  0  0  0  0
    9.6782    0.5671   23.5143 C   0  0  0  0  0  0  0  0  0  0  0  0
    8.4532    0.3482   26.0821 C   0  0  0  0  0  0  0  0  0  0  0  0
   10.4239   -1.7677   22.2230 N   0  0  0  0  0  0  0  0  0  0  0  0
    9.9468   -4.5953   20.1709 C   0  0  0  0  0  0  0  0  0  0  0  0
   10.0366   -3.0590   23.9864 N   0  0  0  0  0  0  0  0  0  0  0  0
    7.1191   -7.3636   15.7739 C   0  0  0  0  0  0  0  0  0  0  0  0
    5.9612   -8.3203   17.2732 N   0  0  0  0  0  0  0  0  0  0  0  0
    8.5296   -5.9814   17.1841 C   0  0  0  0  0  0  0  0  0  0  0  0
    9.1527   -5.2118   16.2116 C   0  0  0  0  0  0  0  0  0  0  0  0
   10.3364   -3.8368   22.9255 O   0  0  0  0  0  0  0  0  0  0  0  0
    9.6947   -4.8407   18.8534 C   0  0  0  0  0  0  0  0  0  0  0  0
    9.1596    1.7042   24.1381 C   0  0  0  0  0  0  0  0  0  0  0  0
   11.0456   -2.9774   18.2694 N   0  0  0  0  0  0  0  0  0  0  0  0
   10.4788   -3.0457   21.8593 C   0  0  0  0  0  0  0  0  0  0  0  0
    8.8693   -5.8099   18.4657 N   0  0  0  0  0  0  0  0  0  0  0  0
    8.9892   -0.7926   25.4573 C   0  0  0  0  0  0  0  0  0  0  0  0
   10.5677   -3.4462   20.5323 C   0  0  0  0  0  0  0  0  0  0  0  0
  1  8  1  0
  1 12  4  0
  1 14  4  0
  2  3  4  0
  2 18  4  0
  3 20  4  0
  3 22  4  0
  4 11  4  0
  4 21  4  0
  5  9  4  0
  5 16  4  0
  6 15  4  0
  6 16  4  0
  7 22  4  0
  7 26  4  0
  8 10  4  0
  8 25  4  0
  9 15  4  0
  9 17  1  0
 10 21  4  0
 11 25  4  0
 12 23  4  0
 13 20  4  0
 13 26  4  0
 14 19  4  0
 17 18  4  0
 17 24  4  0
 19 23  4  0
 20 24  4  0
 23 26  1  0
M  END
$$$$

 Created by Python create_sdf_string function

 26 30  0  0  0  0  0  0  0  0999 V2000
   10.0084   -1.8019   23.4945 C   0  0  0  0  0  0  0  0  0  0  0  0
   10.0005   -4.2520   16.5631 C   0  0  0  0  0  0  0  0  0  0  0  0
   10.2759   -4.0036   17.8845 C   0  0  0  0  0  0  0  0  0  0  0  0
    8.5652    1.5478   25.3778 N   0  0  0  0  0  0  0  0  0  0  0  0
    6.8048   -7.5457   17.8752 C   0  0  0  0  0  0  0  0  0  0  0  0
    6.1721   -8.2186   15.9886 N   0  0  0  0  0  0  0  0  0  0  0  0
   11.1764   -2.6600   19.5604 C   0  0  0  0  0  0  0  0  0  0  0  0
    9.5491   -0.6380   24.1912 C   0  0  0  0  0  0  0  0  0  0  0  0
    7.5337   -6.9256   16.9519 C   0  0  0  0  0  0  0  0  0  0  0  0
    9.6782    0.5671   23.5143 C   0  0  0  0  0  0  0  0  0  0  0  0
    8.4532    0.3482   26.0821 C   0  0  0  0  0  0  0  0  0  0  0  0
   10.4239   -1.7677   22.2230 N   0  0  0  0  0  0  0  0  0  0  0  0
    9.9468   -4.5953   20.1709 C   0  0  0  0  0  0  0  0  0  0  0  0
   10.0366   -3.0590   23.9864 N   0  0  0  0  0  0  0  0  0  0  0  0
    7.1191   -7.3636   15.7739 C   0  0  0  0  0  0  0  0  0  0  0  0
    5.9612   -8.3203   17.2732 N   0  0  0  0  0  0  0  0  0  0  0  0
    8.5296   -5.9814   17.1841 C   0  0  0  0  0  0  0  0  0  0  0  0
    9.1527   -5.2118   16.2116 C   0  0  0  0  0  0  0  0  0  0  0  0
   10.3364   -3.8368   22.9255 O   0  0  0  0  0  0  0  0  0  0  0  0
    9.6947   -4.8407   18.8534 C   0  0  0  0  0  0  0  0  0  0  0  0
    9.1596    1.7042   24.1381 C   0  0  0  0  0  0  0  0  0  0  0  0
   11.0456   -2.9774   18.2694 N   0  0  0  0  0  0  0  0  0  0  0  0
   10.4788   -3.0457   21.8593 C   0  0  0  0  0  0  0  0  0  0  0  0
    8.8693   -5.8099   18.4657 N   0  0  0  0  0  0  0  0  0  0  0  0
    8.9892   -0.7926   25.4573 C   0  0  0  0  0  0  0  0  0  0  0  0
   10.5677   -3.4462   20.5323 C   0  0  0  0  0  0  0  0  0  0  0  0
  1  8  1  0
  1 12  4  0
  1 14  4  0
  2  3  4  0
  2 18  4  0
  3 20  4  0
  3 22  4  0
  4 11  4  0
  4 21  4  0
  5  9  4  0
  5 16  4  0
  6 15  4  0
  6 16  4  0
  7 22  4  0
  7 26  4  0
  8 10  4  0
  8 25  4  0
  9 15  4  0
  9 17  1  0
 10 21  4  0
 11 25  4  0
 12 23  4  0
 13 20  4  0
 13 26  4  0
 14 19  4  0
 17 18  4  0
 17 24  4  0
 19 23  4  0
 20 24  4  0
 23 26  1  0
M  END
$$$$

 Created by Python create_sdf_string function

 26 30  0  0  0  0  0  0  0  0999 V2000
   10.0084   -1.8019   23.4945 C   0  0  0  0  0  0  0  0  0  0  0  0
   10.0005   -4.2520   16.5631 C   0  0  0  0  0  0  0  0  0  0  0  0
   10.2759   -4.0036   17.8845 C   0  0  0  0  0  0  0  0  0  0  0  0
    8.5652    1.5478   25.3778 N   0  0  0  0  0  0  0  0  0  0  0  0
    6.8048   -7.5457   17.8752 C   0  0  0  0  0  0  0  0  0  0  0  0
    6.1721   -8.2186   15.9886 N   0  0  0  0  0  0  0  0  0  0  0  0
   11.1764   -2.6600   19.5604 C   0  0  0  0  0  0  0  0  0  0  0  0
    9.5491   -0.6380   24.1912 C   0  0  0  0  0  0  0  0  0  0  0  0
    7.5337   -6.9256   16.9519 C   0  0  0  0  0  0  0  0  0  0  0  0
    9.6782    0.5671   23.5143 C   0  0  0  0  0  0  0  0  0  0  0  0
    8.4532    0.3482   26.0821 C   0  0  0  0  0  0  0  0  0  0  0  0
   10.4239   -1.7677   22.2230 N   0  0  0  0  0  0  0  0  0  0  0  0
    9.9468   -4.5953   20.1709 C   0  0  0  0  0  0  0  0  0  0  0  0
   10.0366   -3.0590   23.9864 N   0  0  0  0  0  0  0  0  0  0  0  0
    7.1191   -7.3636   15.7739 C   0  0  0  0  0  0  0  0  0  0  0  0
    5.9612   -8.3203   17.2732 N   0  0  0  0  0  0  0  0  0  0  0  0
    8.5296   -5.9814   17.1841 C   0  0  0  0  0  0  0  0  0  0  0  0
    9.1527   -5.2118   16.2116 C   0  0  0  0  0  0  0  0  0  0  0  0
   10.3364   -3.8368   22.9255 O   0  0  0  0  0  0  0  0  0  0  0  0
    9.6947   -4.8407   18.8534 C   0  0  0  0  0  0  0  0  0  0  0  0
    9.1596    1.7042   24.1381 C   0  0  0  0  0  0  0  0  0  0  0  0
   11.0456   -2.9774   18.2694 N   0  0  0  0  0  0  0  0  0  0  0  0
   10.4788   -3.0457   21.8593 C   0  0  0  0  0  0  0  0  0  0  0  0
    8.8693   -5.8099   18.4657 N   0  0  0  0  0  0  0  0  0  0  0  0
    8.9892   -0.7926   25.4573 C   0  0  0  0  0  0  0  0  0  0  0  0
   10.5677   -3.4462   20.5323 C   0  0  0  0  0  0  0  0  0  0  0  0
  1  8  1  0
  1 12  4  0
  1 14  4  0
  2  3  4  0
  2 18  4  0
  3 20  4  0
  3 22  4  0
  4 11  4  0
  4 21  4  0
  5  9  4  0
  5 16  4  0
  6 15  4  0
  6 16  4  0
  7 22  4  0
  7 26  4  0
  8 10  4  0
  8 25  4  0
  9 15  4  0
  9 17  1  0
 10 21  4  0
 11 25  4  0
 12 23  4  0
 13 20  4  0
 13 26  4  0
 14 19  4  0
 17 18  4  0
 17 24  4  0
 19 23  4  0
 20 24  4  0
 23 26  1  0
M  END
$$$$

 Created by Python create_sdf_string function

 26 30  0  0  0  0  0  0  0  0999 V2000
   10.0084   -1.8019   23.4945 C   0  0  0  0  0  0  0  0  0  0  0  0
   10.0005   -4.2520   16.5631 C   0  0  0  0  0  0  0  0  0  0  0  0
   10.2759   -4.0036   17.8845 C   0  0  0  0  0  0  0  0  0  0  0  0
    8.5652    1.5478   25.3778 N   0  0  0  0  0  0  0  0  0  0  0  0
    6.8048   -7.5457   17.8752 C   0  0  0  0  0  0  0  0  0  0  0  0
    6.1721   -8.2186   15.9886 N   0  0  0  0  0  0  0  0  0  0  0  0
   11.1764   -2.6600   19.5604 C   0  0  0  0  0  0  0  0  0  0  0  0
    9.5491   -0.6380   24.1912 C   0  0  0  0  0  0  0  0  0  0  0  0
    7.5337   -6.9256   16.9519 C   0  0  0  0  0  0  0  0  0  0  0  0
    9.6782    0.5671   23.5143 C   0  0  0  0  0  0  0  0  0  0  0  0
    8.4532    0.3482   26.0821 C   0  0  0  0  0  0  0  0  0  0  0  0
   10.4239   -1.7677   22.2230 N   0  0  0  0  0  0  0  0  0  0  0  0
    9.9468   -4.5953   20.1709 C   0  0  0  0  0  0  0  0  0  0  0  0
   10.0366   -3.0590   23.9864 N   0  0  0  0  0  0  0  0  0  0  0  0
    7.1191   -7.3636   15.7739 C   0  0  0  0  0  0  0  0  0  0  0  0
    5.9612   -8.3203   17.2732 N   0  0  0  0  0  0  0  0  0  0  0  0
    8.5296   -5.9814   17.1841 C   0  0  0  0  0  0  0  0  0  0  0  0
    9.1527   -5.2118   16.2116 C   0  0  0  0  0  0  0  0  0  0  0  0
   10.3364   -3.8368   22.9255 O   0  0  0  0  0  0  0  0  0  0  0  0
    9.6947   -4.8407   18.8534 C   0  0  0  0  0  0  0  0  0  0  0  0
    9.1596    1.7042   24.1381 C   0  0  0  0  0  0  0  0  0  0  0  0
   11.0456   -2.9774   18.2694 N   0  0  0  0  0  0  0  0  0  0  0  0
   10.4788   -3.0457   21.8593 C   0  0  0  0  0  0  0  0  0  0  0  0
    8.8693   -5.8099   18.4657 N   0  0  0  0  0  0  0  0  0  0  0  0
    8.9892   -0.7926   25.4573 C   0  0  0  0  0  0  0  0  0  0  0  0
   10.5677   -3.4462   20.5323 C   0  0  0  0  0  0  0  0  0  0  0  0
  1  8  1  0
  1 12  4  0
  1 14  4  0
  2  3  4  0
  2 18  4  0
  3 20  4  0
  3 22  4  0
  4 11  4  0
  4 21  4  0
  5  9  4  0
  5 16  4  0
  6 15  4  0
  6 16  4  0
  7 22  4  0
  7 26  4  0
  8 10  4  0
  8 25  4  0
  9 15  4  0
  9 17  1  0
 10 21  4  0
 11 25  4  0
 12 23  4  0
 13 20  4  0
 13 26  4  0
 14 19  4  0
 17 18  4  0
 17 24  4  0
 19 23  4  0
 20 24  4  0
 23 26  1  0
M  END
$$$$

 Created by Python create_sdf_string function

 26 30  0  0  0  0  0  0  0  0999 V2000
   10.0084   -1.8019   23.4945 C   0  0  0  0  0  0  0  0  0  0  0  0
   10.0005   -4.2520   16.5631 C   0  0  0  0  0  0  0  0  0  0  0  0
   10.2759   -4.0036   17.8845 C   0  0  0  0  0  0  0  0  0  0  0  0
    8.5652    1.5478   25.3778 N   0  0  0  0  0  0  0  0  0  0  0  0
    6.8048   -7.5457   17.8752 C   0  0  0  0  0  0  0  0  0  0  0  0
    6.1721   -8.2186   15.9886 N   0  0  0  0  0  0  0  0  0  0  0  0
   11.1764   -2.6600   19.5604 C   0  0  0  0  0  0  0  0  0  0  0  0
    9.5491   -0.6380   24.1912 C   0  0  0  0  0  0  0  0  0  0  0  0
    7.5337   -6.9256   16.9519 C   0  0  0  0  0  0  0  0  0  0  0  0
    9.6782    0.5671   23.5143 C   0  0  0  0  0  0  0  0  0  0  0  0
    8.4532    0.3482   26.0821 C   0  0  0  0  0  0  0  0  0  0  0  0
   10.4239   -1.7677   22.2230 N   0  0  0  0  0  0  0  0  0  0  0  0
    9.9468   -4.5953   20.1709 C   0  0  0  0  0  0  0  0  0  0  0  0
   10.0366   -3.0590   23.9864 N   0  0  0  0  0  0  0  0  0  0  0  0
    7.1191   -7.3636   15.7739 C   0  0  0  0  0  0  0  0  0  0  0  0
    5.9612   -8.3203   17.2732 N   0  0  0  0  0  0  0  0  0  0  0  0
    8.5296   -5.9814   17.1841 C   0  0  0  0  0  0  0  0  0  0  0  0
    9.1527   -5.2118   16.2116 C   0  0  0  0  0  0  0  0  0  0  0  0
   10.3364   -3.8368   22.9255 O   0  0  0  0  0  0  0  0  0  0  0  0
    9.6947   -4.8407   18.8534 C   0  0  0  0  0  0  0  0  0  0  0  0
    9.1596    1.7042   24.1381 C   0  0  0  0  0  0  0  0  0  0  0  0
   11.0456   -2.9774   18.2694 N   0  0  0  0  0  0  0  0  0  0  0  0
   10.4788   -3.0457   21.8593 C   0  0  0  0  0  0  0  0  0  0  0  0
    8.8693   -5.8099   18.4657 N   0  0  0  0  0  0  0  0  0  0  0  0
    8.9892   -0.7926   25.4573 C   0  0  0  0  0  0  0  0  0  0  0  0
   10.5677   -3.4462   20.5323 C   0  0  0  0  0  0  0  0  0  0  0  0
  1  8  1  0
  1 12  4  0
  1 14  4  0
  2  3  4  0
  2 18  4  0
  3 20  4  0
  3 22  4  0
  4 11  4  0
  4 21  4  0
  5  9  4  0
  5 16  4  0
  6 15  4  0
  6 16  4  0
  7 22  4  0
  7 26  4  0
  8 10  4  0
  8 25  4  0
  9 15  4  0
  9 17  1  0
 10 21  4  0
 11 25  4  0
 12 23  4  0
 13 20  4  0
 13 26  4  0
 14 19  4  0
 17 18  4  0
 17 24  4  0
 19 23  4  0
 20 24  4  0
 23 26  1  0
M  END
$$$$

 Created by Python create_sdf_string function

 26 30  0  0  0  0  0  0  0  0999 V2000
   10.0084   -1.8019   23.4945 C   0  0  0  0  0  0  0  0  0  0  0  0
   10.0005   -4.2520   16.5631 C   0  0  0  0  0  0  0  0  0  0  0  0
   10.2759   -4.0036   17.8845 C   0  0  0  0  0  0  0  0  0  0  0  0
    8.5652    1.5478   25.3778 N   0  0  0  0  0  0  0  0  0  0  0  0
    6.8048   -7.5457   17.8752 C   0  0  0  0  0  0  0  0  0  0  0  0
    6.1721   -8.2186   15.9886 N   0  0  0  0  0  0  0  0  0  0  0  0
   11.1764   -2.6600   19.5604 C   0  0  0  0  0  0  0  0  0  0  0  0
    9.5491   -0.6380   24.1912 C   0  0  0  0  0  0  0  0  0  0  0  0
    7.5337   -6.9256   16.9519 C   0  0  0  0  0  0  0  0  0  0  0  0
    9.6782    0.5671   23.5143 C   0  0  0  0  0  0  0  0  0  0  0  0
    8.4532    0.3482   26.0821 C   0  0  0  0  0  0  0  0  0  0  0  0
   10.4239   -1.7677   22.2230 N   0  0  0  0  0  0  0  0  0  0  0  0
    9.9468   -4.5953   20.1709 C   0  0  0  0  0  0  0  0  0  0  0  0
   10.0366   -3.0590   23.9864 N   0  0  0  0  0  0  0  0  0  0  0  0
    7.1191   -7.3636   15.7739 C   0  0  0  0  0  0  0  0  0  0  0  0
    5.9612   -8.3203   17.2732 N   0  0  0  0  0  0  0  0  0  0  0  0
    8.5296   -5.9814   17.1841 C   0  0  0  0  0  0  0  0  0  0  0  0
    9.1527   -5.2118   16.2116 C   0  0  0  0  0  0  0  0  0  0  0  0
   10.3364   -3.8368   22.9255 O   0  0  0  0  0  0  0  0  0  0  0  0
    9.6947   -4.8407   18.8534 C   0  0  0  0  0  0  0  0  0  0  0  0
    9.1596    1.7042   24.1381 C   0  0  0  0  0  0  0  0  0  0  0  0
   11.0456   -2.9774   18.2694 N   0  0  0  0  0  0  0  0  0  0  0  0
   10.4788   -3.0457   21.8593 C   0  0  0  0  0  0  0  0  0  0  0  0
    8.8693   -5.8099   18.4657 N   0  0  0  0  0  0  0  0  0  0  0  0
    8.9892   -0.7926   25.4573 C   0  0  0  0  0  0  0  0  0  0  0  0
   10.5677   -3.4462   20.5323 C   0  0  0  0  0  0  0  0  0  0  0  0
  1  8  1  0
  1 12  4  0
  1 14  4  0
  2  3  4  0
  2 18  4  0
  3 20  4  0
  3 22  4  0
  4 11  4  0
  4 21  4  0
  5  9  4  0
  5 16  4  0
  6 15  4  0
  6 16  4  0
  7 22  4  0
  7 26  4  0
  8 10  4  0
  8 25  4  0
  9 15  4  0
  9 17  1  0
 10 21  4  0
 11 25  4  0
 12 23  4  0
 13 20  4  0
 13 26  4  0
 14 19  4  0
 17 18  4  0
 17 24  4  0
 19 23  4  0
 20 24  4  0
 23 26  1  0
M  END
$$$$

 Created by Python create_sdf_string function

 26 30  0  0  0  0  0  0  0  0999 V2000
   10.0084   -1.8019   23.4945 C   0  0  0  0  0  0  0  0  0  0  0  0
   10.0005   -4.2520   16.5631 C   0  0  0  0  0  0  0  0  0  0  0  0
   10.2759   -4.0036   17.8845 C   0  0  0  0  0  0  0  0  0  0  0  0
    8.5652    1.5478   25.3778 N   0  0  0  0  0  0  0  0  0  0  0  0
    6.8048   -7.5457   17.8752 C   0  0  0  0  0  0  0  0  0  0  0  0
    6.1721   -8.2186   15.9886 N   0  0  0  0  0  0  0  0  0  0  0  0
   11.1764   -2.6600   19.5604 C   0  0  0  0  0  0  0  0  0  0  0  0
    9.5491   -0.6380   24.1912 C   0  0  0  0  0  0  0  0  0  0  0  0
    7.5337   -6.9256   16.9519 C   0  0  0  0  0  0  0  0  0  0  0  0
    9.6782    0.5671   23.5143 C   0  0  0  0  0  0  0  0  0  0  0  0
    8.4532    0.3482   26.0821 C   0  0  0  0  0  0  0  0  0  0  0  0
   10.4239   -1.7677   22.2230 N   0  0  0  0  0  0  0  0  0  0  0  0
    9.9468   -4.5953   20.1709 C   0  0  0  0  0  0  0  0  0  0  0  0
   10.0366   -3.0590   23.9864 N   0  0  0  0  0  0  0  0  0  0  0  0
    7.1191   -7.3636   15.7739 C   0  0  0  0  0  0  0  0  0  0  0  0
    5.9612   -8.3203   17.2732 N   0  0  0  0  0  0  0  0  0  0  0  0
    8.5296   -5.9814   17.1841 C   0  0  0  0  0  0  0  0  0  0  0  0
    9.1527   -5.2118   16.2116 C   0  0  0  0  0  0  0  0  0  0  0  0
   10.3364   -3.8368   22.9255 O   0  0  0  0  0  0  0  0  0  0  0  0
    9.6947   -4.8407   18.8534 C   0  0  0  0  0  0  0  0  0  0  0  0
    9.1596    1.7042   24.1381 C   0  0  0  0  0  0  0  0  0  0  0  0
   11.0456   -2.9774   18.2694 N   0  0  0  0  0  0  0  0  0  0  0  0
   10.4788   -3.0457   21.8593 C   0  0  0  0  0  0  0  0  0  0  0  0
    8.8693   -5.8099   18.4657 N   0  0  0  0  0  0  0  0  0  0  0  0
    8.9892   -0.7926   25.4573 C   0  0  0  0  0  0  0  0  0  0  0  0
   10.5677   -3.4462   20.5323 C   0  0  0  0  0  0  0  0  0  0  0  0
  1  8  1  0
  1 12  4  0
  1 14  4  0
  2  3  4  0
  2 18  4  0
  3 20  4  0
  3 22  4  0
  4 11  4  0
  4 21  4  0
  5  9  4  0
  5 16  4  0
  6 15  4  0
  6 16  4  0
  7 22  4  0
  7 26  4  0
  8 10  4  0
  8 25  4  0
  9 15  4  0
  9 17  1  0
 10 21  4  0
 11 25  4  0
 12 23  4  0
 13 20  4  0
 13 26  4  0
 14 19  4  0
 17 18  4  0
 17 24  4  0
 19 23  4  0
 20 24  4  0
 23 26  1  0
M  END
$$$$

 Created by Python create_sdf_string function

 26 30  0  0  0  0  0  0  0  0999 V2000
   10.0084   -1.8019   23.4945 C   0  0  0  0  0  0  0  0  0  0  0  0
   10.0005   -4.2520   16.5631 C   0  0  0  0  0  0  0  0  0  0  0  0
   10.2759   -4.0036   17.8845 C   0  0  0  0  0  0  0  0  0  0  0  0
    8.5652    1.5478   25.3778 N   0  0  0  0  0  0  0  0  0  0  0  0
    6.8048   -7.5457   17.8752 C   0  0  0  0  0  0  0  0  0  0  0  0
    6.1721   -8.2186   15.9886 N   0  0  0  0  0  0  0  0  0  0  0  0
   11.1764   -2.6600   19.5604 C   0  0  0  0  0  0  0  0  0  0  0  0
    9.5491   -0.6380   24.1912 C   0  0  0  0  0  0  0  0  0  0  0  0
    7.5337   -6.9256   16.9519 C   0  0  0  0  0  0  0  0  0  0  0  0
    9.6782    0.5671   23.5143 C   0  0  0  0  0  0  0  0  0  0  0  0
    8.4532    0.3482   26.0821 C   0  0  0  0  0  0  0  0  0  0  0  0
   10.4239   -1.7677   22.2230 N   0  0  0  0  0  0  0  0  0  0  0  0
    9.9468   -4.5953   20.1709 C   0  0  0  0  0  0  0  0  0  0  0  0
   10.0366   -3.0590   23.9864 N   0  0  0  0  0  0  0  0  0  0  0  0
    7.1191   -7.3636   15.7739 C   0  0  0  0  0  0  0  0  0  0  0  0
    5.9612   -8.3203   17.2732 N   0  0  0  0  0  0  0  0  0  0  0  0
    8.5296   -5.9814   17.1841 C   0  0  0  0  0  0  0  0  0  0  0  0
    9.1527   -5.2118   16.2116 C   0  0  0  0  0  0  0  0  0  0  0  0
   10.3364   -3.8368   22.9255 O   0  0  0  0  0  0  0  0  0  0  0  0
    9.6947   -4.8407   18.8534 C   0  0  0  0  0  0  0  0  0  0  0  0
    9.1596    1.7042   24.1381 C   0  0  0  0  0  0  0  0  0  0  0  0
   11.0456   -2.9774   18.2694 N   0  0  0  0  0  0  0  0  0  0  0  0
   10.4788   -3.0457   21.8593 C   0  0  0  0  0  0  0  0  0  0  0  0
    8.8693   -5.8099   18.4657 N   0  0  0  0  0  0  0  0  0  0  0  0
    8.9892   -0.7926   25.4573 C   0  0  0  0  0  0  0  0  0  0  0  0
   10.5677   -3.4462   20.5323 C   0  0  0  0  0  0  0  0  0  0  0  0
  1  8  1  0
  1 12  4  0
  1 14  4  0
  2  3  4  0
  2 18  4  0
  3 20  4  0
  3 22  4  0
  4 11  4  0
  4 21  4  0
  5  9  4  0
  5 16  4  0
  6 15  4  0
  6 16  4  0
  7 22  4  0
  7 26  4  0
  8 10  4  0
  8 25  4  0
  9 15  4  0
  9 17  1  0
 10 21  4  0
 11 25  4  0
 12 23  4  0
 13 20  4  0
 13 26  4  0
 14 19  4  0
 17 18  4  0
 17 24  4  0
 19 23  4  0
 20 24  4  0
 23 26  1  0
M  END
$$$$

 Created by Python create_sdf_string function

 26 30  0  0  0  0  0  0  0  0999 V2000
   10.0084   -1.8019   23.4945 C   0  0  0  0  0  0  0  0  0  0  0  0
   10.0005   -4.2520   16.5631 C   0  0  0  0  0  0  0  0  0  0  0  0
   10.2759   -4.0036   17.8845 C   0  0  0  0  0  0  0  0  0  0  0  0
    8.5652    1.5478   25.3778 N   0  0  0  0  0  0  0  0  0  0  0  0
    6.8048   -7.5457   17.8752 C   0  0  0  0  0  0  0  0  0  0  0  0
    6.1721   -8.2186   15.9886 N   0  0  0  0  0  0  0  0  0  0  0  0
   11.1764   -2.6600   19.5604 C   0  0  0  0  0  0  0  0  0  0  0  0
    9.5491   -0.6380   24.1912 C   0  0  0  0  0  0  0  0  0  0  0  0
    7.5337   -6.9256   16.9519 C   0  0  0  0  0  0  0  0  0  0  0  0
    9.6782    0.5671   23.5143 C   0  0  0  0  0  0  0  0  0  0  0  0
    8.4532    0.3482   26.0821 C   0  0  0  0  0  0  0  0  0  0  0  0
   10.4239   -1.7677   22.2230 N   0  0  0  0  0  0  0  0  0  0  0  0
    9.9468   -4.5953   20.1709 C   0  0  0  0  0  0  0  0  0  0  0  0
   10.0366   -3.0590   23.9864 N   0  0  0  0  0  0  0  0  0  0  0  0
    7.1191   -7.3636   15.7739 C   0  0  0  0  0  0  0  0  0  0  0  0
    5.9612   -8.3203   17.2732 N   0  0  0  0  0  0  0  0  0  0  0  0
    8.5296   -5.9814   17.1841 C   0  0  0  0  0  0  0  0  0  0  0  0
    9.1527   -5.2118   16.2116 C   0  0  0  0  0  0  0  0  0  0  0  0
   10.3364   -3.8368   22.9255 O   0  0  0  0  0  0  0  0  0  0  0  0
    9.6947   -4.8407   18.8534 C   0  0  0  0  0  0  0  0  0  0  0  0
    9.1596    1.7042   24.1381 C   0  0  0  0  0  0  0  0  0  0  0  0
   11.0456   -2.9774   18.2694 N   0  0  0  0  0  0  0  0  0  0  0  0
   10.4788   -3.0457   21.8593 C   0  0  0  0  0  0  0  0  0  0  0  0
    8.8693   -5.8099   18.4657 N   0  0  0  0  0  0  0  0  0  0  0  0
    8.9892   -0.7926   25.4573 C   0  0  0  0  0  0  0  0  0  0  0  0
   10.5677   -3.4462   20.5323 C   0  0  0  0  0  0  0  0  0  0  0  0
  1  8  1  0
  1 12  4  0
  1 14  4  0
  2  3  4  0
  2 18  4  0
  3 20  4  0
  3 22  4  0
  4 11  4  0
  4 21  4  0
  5  9  4  0
  5 16  4  0
  6 15  4  0
  6 16  4  0
  7 22  4  0
  7 26  4  0
  8 10  4  0
  8 25  4  0
  9 15  4  0
  9 17  1  0
 10 21  4  0
 11 25  4  0
 12 23  4  0
 13 20  4  0
 13 26  4  0
 14 19  4  0
 17 18  4  0
 17 24  4  0
 19 23  4  0
 20 24  4  0
 23 26  1  0
M  END
$$$$

 Created by Python create_sdf_string function

 26 30  0  0  0  0  0  0  0  0999 V2000
   10.0084   -1.8019   23.4945 C   0  0  0  0  0  0  0  0  0  0  0  0
   10.0005   -4.2520   16.5631 C   0  0  0  0  0  0  0  0  0  0  0  0
   10.2759   -4.0036   17.8845 C   0  0  0  0  0  0  0  0  0  0  0  0
    8.5652    1.5478   25.3778 N   0  0  0  0  0  0  0  0  0  0  0  0
    6.8048   -7.5457   17.8752 C   0  0  0  0  0  0  0  0  0  0  0  0
    6.1721   -8.2186   15.9886 N   0  0  0  0  0  0  0  0  0  0  0  0
   11.1764   -2.6600   19.5604 C   0  0  0  0  0  0  0  0  0  0  0  0
    9.5491   -0.6380   24.1912 C   0  0  0  0  0  0  0  0  0  0  0  0
    7.5337   -6.9256   16.9519 C   0  0  0  0  0  0  0  0  0  0  0  0
    9.6782    0.5671   23.5143 C   0  0  0  0  0  0  0  0  0  0  0  0
    8.4532    0.3482   26.0821 C   0  0  0  0  0  0  0  0  0  0  0  0
   10.4239   -1.7677   22.2230 N   0  0  0  0  0  0  0  0  0  0  0  0
    9.9468   -4.5953   20.1709 C   0  0  0  0  0  0  0  0  0  0  0  0
   10.0366   -3.0590   23.9864 N   0  0  0  0  0  0  0  0  0  0  0  0
    7.1191   -7.3636   15.7739 C   0  0  0  0  0  0  0  0  0  0  0  0
    5.9612   -8.3203   17.2732 N   0  0  0  0  0  0  0  0  0  0  0  0
    8.5296   -5.9814   17.1841 C   0  0  0  0  0  0  0  0  0  0  0  0
    9.1527   -5.2118   16.2116 C   0  0  0  0  0  0  0  0  0  0  0  0
   10.3364   -3.8368   22.9255 O   0  0  0  0  0  0  0  0  0  0  0  0
    9.6947   -4.8407   18.8534 C   0  0  0  0  0  0  0  0  0  0  0  0
    9.1596    1.7042   24.1381 C   0  0  0  0  0  0  0  0  0  0  0  0
   11.0456   -2.9774   18.2694 N   0  0  0  0  0  0  0  0  0  0  0  0
   10.4788   -3.0457   21.8593 C   0  0  0  0  0  0  0  0  0  0  0  0
    8.8693   -5.8099   18.4657 N   0  0  0  0  0  0  0  0  0  0  0  0
    8.9892   -0.7926   25.4573 C   0  0  0  0  0  0  0  0  0  0  0  0
   10.5677   -3.4462   20.5323 C   0  0  0  0  0  0  0  0  0  0  0  0
  1  8  1  0
  1 12  4  0
  1 14  4  0
  2  3  4  0
  2 18  4  0
  3 20  4  0
  3 22  4  0
  4 11  4  0
  4 21  4  0
  5  9  4  0
  5 16  4  0
  6 15  4  0
  6 16  4  0
  7 22  4  0
  7 26  4  0
  8 10  4  0
  8 25  4  0
  9 15  4  0
  9 17  1  0
 10 21  4  0
 11 25  4  0
 12 23  4  0
 13 20  4  0
 13 26  4  0
 14 19  4  0
 17 18  4  0
 17 24  4  0
 19 23  4  0
 20 24  4  0
 23 26  1  0
M  END
$$$$

 Created by Python create_sdf_string function

 26 30  0  0  0  0  0  0  0  0999 V2000
   10.0084   -1.8019   23.4945 C   0  0  0  0  0  0  0  0  0  0  0  0
   10.0005   -4.2520   16.5631 C   0  0  0  0  0  0  0  0  0  0  0  0
   10.2759   -4.0036   17.8845 C   0  0  0  0  0  0  0  0  0  0  0  0
    8.5652    1.5478   25.3778 N   0  0  0  0  0  0  0  0  0  0  0  0
    6.8048   -7.5457   17.8752 C   0  0  0  0  0  0  0  0  0  0  0  0
    6.1721   -8.2186   15.9886 N   0  0  0  0  0  0  0  0  0  0  0  0
   11.1764   -2.6600   19.5604 C   0  0  0  0  0  0  0  0  0  0  0  0
    9.5491   -0.6380   24.1912 C   0  0  0  0  0  0  0  0  0  0  0  0
    7.5337   -6.9256   16.9519 C   0  0  0  0  0  0  0  0  0  0  0  0
    9.6782    0.5671   23.5143 C   0  0  0  0  0  0  0  0  0  0  0  0
    8.4532    0.3482   26.0821 C   0  0  0  0  0  0  0  0  0  0  0  0
   10.4239   -1.7677   22.2230 N   0  0  0  0  0  0  0  0  0  0  0  0
    9.9468   -4.5953   20.1709 C   0  0  0  0  0  0  0  0  0  0  0  0
   10.0366   -3.0590   23.9864 N   0  0  0  0  0  0  0  0  0  0  0  0
    7.1191   -7.3636   15.7739 C   0  0  0  0  0  0  0  0  0  0  0  0
    5.9612   -8.3203   17.2732 N   0  0  0  0  0  0  0  0  0  0  0  0
    8.5296   -5.9814   17.1841 C   0  0  0  0  0  0  0  0  0  0  0  0
    9.1527   -5.2118   16.2116 C   0  0  0  0  0  0  0  0  0  0  0  0
   10.3364   -3.8368   22.9255 O   0  0  0  0  0  0  0  0  0  0  0  0
    9.6947   -4.8407   18.8534 C   0  0  0  0  0  0  0  0  0  0  0  0
    9.1596    1.7042   24.1381 C   0  0  0  0  0  0  0  0  0  0  0  0
   11.0456   -2.9774   18.2694 N   0  0  0  0  0  0  0  0  0  0  0  0
   10.4788   -3.0457   21.8593 C   0  0  0  0  0  0  0  0  0  0  0  0
    8.8693   -5.8099   18.4657 N   0  0  0  0  0  0  0  0  0  0  0  0
    8.9892   -0.7926   25.4573 C   0  0  0  0  0  0  0  0  0  0  0  0
   10.5677   -3.4462   20.5323 C   0  0  0  0  0  0  0  0  0  0  0  0
  1  8  1  0
  1 12  4  0
  1 14  4  0
  2  3  4  0
  2 18  4  0
  3 20  4  0
  3 22  4  0
  4 11  4  0
  4 21  4  0
  5  9  4  0
  5 16  4  0
  6 15  4  0
  6 16  4  0
  7 22  4  0
  7 26  4  0
  8 10  4  0
  8 25  4  0
  9 15  4  0
  9 17  1  0
 10 21  4  0
 11 25  4  0
 12 23  4  0
 13 20  4  0
 13 26  4  0
 14 19  4  0
 17 18  4  0
 17 24  4  0
 19 23  4  0
 20 24  4  0
 23 26  1  0
M  END
$$$$

 Created by Python create_sdf_string function

 26 30  0  0  0  0  0  0  0  0999 V2000
   10.0084   -1.8019   23.4945 C   0  0  0  0  0  0  0  0  0  0  0  0
   10.0005   -4.2520   16.5631 C   0  0  0  0  0  0  0  0  0  0  0  0
   10.2759   -4.0036   17.8845 C   0  0  0  0  0  0  0  0  0  0  0  0
    8.5652    1.5478   25.3778 N   0  0  0  0  0  0  0  0  0  0  0  0
    6.8048   -7.5457   17.8752 C   0  0  0  0  0  0  0  0  0  0  0  0
    6.1721   -8.2186   15.9886 N   0  0  0  0  0  0  0  0  0  0  0  0
   11.1764   -2.6600   19.5604 C   0  0  0  0  0  0  0  0  0  0  0  0
    9.5491   -0.6380   24.1912 C   0  0  0  0  0  0  0  0  0  0  0  0
    7.5337   -6.9256   16.9519 C   0  0  0  0  0  0  0  0  0  0  0  0
    9.6782    0.5671   23.5143 C   0  0  0  0  0  0  0  0  0  0  0  0
    8.4532    0.3482   26.0821 C   0  0  0  0  0  0  0  0  0  0  0  0
   10.4239   -1.7677   22.2230 N   0  0  0  0  0  0  0  0  0  0  0  0
    9.9468   -4.5953   20.1709 C   0  0  0  0  0  0  0  0  0  0  0  0
   10.0366   -3.0590   23.9864 N   0  0  0  0  0  0  0  0  0  0  0  0
    7.1191   -7.3636   15.7739 C   0  0  0  0  0  0  0  0  0  0  0  0
    5.9612   -8.3203   17.2732 N   0  0  0  0  0  0  0  0  0  0  0  0
    8.5296   -5.9814   17.1841 C   0  0  0  0  0  0  0  0  0  0  0  0
    9.1527   -5.2118   16.2116 C   0  0  0  0  0  0  0  0  0  0  0  0
   10.3364   -3.8368   22.9255 O   0  0  0  0  0  0  0  0  0  0  0  0
    9.6947   -4.8407   18.8534 C   0  0  0  0  0  0  0  0  0  0  0  0
    9.1596    1.7042   24.1381 C   0  0  0  0  0  0  0  0  0  0  0  0
   11.0456   -2.9774   18.2694 N   0  0  0  0  0  0  0  0  0  0  0  0
   10.4788   -3.0457   21.8593 C   0  0  0  0  0  0  0  0  0  0  0  0
    8.8693   -5.8099   18.4657 N   0  0  0  0  0  0  0  0  0  0  0  0
    8.9892   -0.7926   25.4573 C   0  0  0  0  0  0  0  0  0  0  0  0
   10.5677   -3.4462   20.5323 C   0  0  0  0  0  0  0  0  0  0  0  0
  1  8  1  0
  1 12  4  0
  1 14  4  0
  2  3  4  0
  2 18  4  0
  3 20  4  0
  3 22  4  0
  4 11  4  0
  4 21  4  0
  5  9  4  0
  5 16  4  0
  6 15  4  0
  6 16  4  0
  7 22  4  0
  7 26  4  0
  8 10  4  0
  8 25  4  0
  9 15  4  0
  9 17  1  0
 10 21  4  0
 11 25  4  0
 12 23  4  0
 13 20  4  0
 13 26  4  0
 14 19  4  0
 17 18  4  0
 17 24  4  0
 19 23  4  0
 20 24  4  0
 23 26  1  0
M  END
$$$$

 Created by Python create_sdf_string function

 26 30  0  0  0  0  0  0  0  0999 V2000
   10.0084   -1.8019   23.4945 C   0  0  0  0  0  0  0  0  0  0  0  0
   10.0005   -4.2520   16.5631 C   0  0  0  0  0  0  0  0  0  0  0  0
   10.2759   -4.0036   17.8845 C   0  0  0  0  0  0  0  0  0  0  0  0
    8.5652    1.5478   25.3778 N   0  0  0  0  0  0  0  0  0  0  0  0
    6.8048   -7.5457   17.8752 C   0  0  0  0  0  0  0  0  0  0  0  0
    6.1721   -8.2186   15.9886 N   0  0  0  0  0  0  0  0  0  0  0  0
   11.1764   -2.6600   19.5604 C   0  0  0  0  0  0  0  0  0  0  0  0
    9.5491   -0.6380   24.1912 C   0  0  0  0  0  0  0  0  0  0  0  0
    7.5337   -6.9256   16.9519 C   0  0  0  0  0  0  0  0  0  0  0  0
    9.6782    0.5671   23.5143 C   0  0  0  0  0  0  0  0  0  0  0  0
    8.4532    0.3482   26.0821 C   0  0  0  0  0  0  0  0  0  0  0  0
   10.4239   -1.7677   22.2230 N   0  0  0  0  0  0  0  0  0  0  0  0
    9.9468   -4.5953   20.1709 C   0  0  0  0  0  0  0  0  0  0  0  0
   10.0366   -3.0590   23.9864 N   0  0  0  0  0  0  0  0  0  0  0  0
    7.1191   -7.3636   15.7739 C   0  0  0  0  0  0  0  0  0  0  0  0
    5.9612   -8.3203   17.2732 N   0  0  0  0  0  0  0  0  0  0  0  0
    8.5296   -5.9814   17.1841 C   0  0  0  0  0  0  0  0  0  0  0  0
    9.1527   -5.2118   16.2116 C   0  0  0  0  0  0  0  0  0  0  0  0
   10.3364   -3.8368   22.9255 O   0  0  0  0  0  0  0  0  0  0  0  0
    9.6947   -4.8407   18.8534 C   0  0  0  0  0  0  0  0  0  0  0  0
    9.1596    1.7042   24.1381 C   0  0  0  0  0  0  0  0  0  0  0  0
   11.0456   -2.9774   18.2694 N   0  0  0  0  0  0  0  0  0  0  0  0
   10.4788   -3.0457   21.8593 C   0  0  0  0  0  0  0  0  0  0  0  0
    8.8693   -5.8099   18.4657 N   0  0  0  0  0  0  0  0  0  0  0  0
    8.9892   -0.7926   25.4573 C   0  0  0  0  0  0  0  0  0  0  0  0
   10.5677   -3.4462   20.5323 C   0  0  0  0  0  0  0  0  0  0  0  0
  1  8  1  0
  1 12  4  0
  1 14  4  0
  2  3  4  0
  2 18  4  0
  3 20  4  0
  3 22  4  0
  4 11  4  0
  4 21  4  0
  5  9  4  0
  5 16  4  0
  6 15  4  0
  6 16  4  0
  7 22  4  0
  7 26  4  0
  8 10  4  0
  8 25  4  0
  9 15  4  0
  9 17  1  0
 10 21  4  0
 11 25  4  0
 12 23  4  0
 13 20  4  0
 13 26  4  0
 14 19  4  0
 17 18  4  0
 17 24  4  0
 19 23  4  0
 20 24  4  0
 23 26  1  0
M  END
$$$$

 Created by Python create_sdf_string function

 26 30  0  0  0  0  0  0  0  0999 V2000
   10.0084   -1.8019   23.4945 C   0  0  0  0  0  0  0  0  0  0  0  0
   10.0005   -4.2520   16.5631 C   0  0  0  0  0  0  0  0  0  0  0  0
   10.2759   -4.0036   17.8845 C   0  0  0  0  0  0  0  0  0  0  0  0
    8.5652    1.5478   25.3778 N   0  0  0  0  0  0  0  0  0  0  0  0
    6.8048   -7.5457   17.8752 C   0  0  0  0  0  0  0  0  0  0  0  0
    6.1721   -8.2186   15.9886 N   0  0  0  0  0  0  0  0  0  0  0  0
   11.1764   -2.6600   19.5604 C   0  0  0  0  0  0  0  0  0  0  0  0
    9.5491   -0.6380   24.1912 C   0  0  0  0  0  0  0  0  0  0  0  0
    7.5337   -6.9256   16.9519 C   0  0  0  0  0  0  0  0  0  0  0  0
    9.6782    0.5671   23.5143 C   0  0  0  0  0  0  0  0  0  0  0  0
    8.4532    0.3482   26.0821 C   0  0  0  0  0  0  0  0  0  0  0  0
   10.4239   -1.7677   22.2230 N   0  0  0  0  0  0  0  0  0  0  0  0
    9.9468   -4.5953   20.1709 C   0  0  0  0  0  0  0  0  0  0  0  0
   10.0366   -3.0590   23.9864 N   0  0  0  0  0  0  0  0  0  0  0  0
    7.1191   -7.3636   15.7739 C   0  0  0  0  0  0  0  0  0  0  0  0
    5.9612   -8.3203   17.2732 N   0  0  0  0  0  0  0  0  0  0  0  0
    8.5296   -5.9814   17.1841 C   0  0  0  0  0  0  0  0  0  0  0  0
    9.1527   -5.2118   16.2116 C   0  0  0  0  0  0  0  0  0  0  0  0
   10.3364   -3.8368   22.9255 O   0  0  0  0  0  0  0  0  0  0  0  0
    9.6947   -4.8407   18.8534 C   0  0  0  0  0  0  0  0  0  0  0  0
    9.1596    1.7042   24.1381 C   0  0  0  0  0  0  0  0  0  0  0  0
   11.0456   -2.9774   18.2694 N   0  0  0  0  0  0  0  0  0  0  0  0
   10.4788   -3.0457   21.8593 C   0  0  0  0  0  0  0  0  0  0  0  0
    8.8693   -5.8099   18.4657 N   0  0  0  0  0  0  0  0  0  0  0  0
    8.9892   -0.7926   25.4573 C   0  0  0  0  0  0  0  0  0  0  0  0
   10.5677   -3.4462   20.5323 C   0  0  0  0  0  0  0  0  0  0  0  0
  1  8  1  0
  1 12  4  0
  1 14  4  0
  2  3  4  0
  2 18  4  0
  3 20  4  0
  3 22  4  0
  4 11  4  0
  4 21  4  0
  5  9  4  0
  5 16  4  0
  6 15  4  0
  6 16  4  0
  7 22  4  0
  7 26  4  0
  8 10  4  0
  8 25  4  0
  9 15  4  0
  9 17  1  0
 10 21  4  0
 11 25  4  0
 12 23  4  0
 13 20  4  0
 13 26  4  0
 14 19  4  0
 17 18  4  0
 17 24  4  0
 19 23  4  0
 20 24  4  0
 23 26  1  0
M  END
$$$$

 Created by Python create_sdf_string function

 26 30  0  0  0  0  0  0  0  0999 V2000
   10.0084   -1.8019   23.4945 C   0  0  0  0  0  0  0  0  0  0  0  0
   10.0005   -4.2520   16.5631 C   0  0  0  0  0  0  0  0  0  0  0  0
   10.2759   -4.0036   17.8845 C   0  0  0  0  0  0  0  0  0  0  0  0
    8.5652    1.5478   25.3778 N   0  0  0  0  0  0  0  0  0  0  0  0
    6.8048   -7.5457   17.8752 C   0  0  0  0  0  0  0  0  0  0  0  0
    6.1721   -8.2186   15.9886 N   0  0  0  0  0  0  0  0  0  0  0  0
   11.1764   -2.6600   19.5604 C   0  0  0  0  0  0  0  0  0  0  0  0
    9.5491   -0.6380   24.1912 C   0  0  0  0  0  0  0  0  0  0  0  0
    7.5337   -6.9256   16.9519 C   0  0  0  0  0  0  0  0  0  0  0  0
    9.6782    0.5671   23.5143 C   0  0  0  0  0  0  0  0  0  0  0  0
    8.4532    0.3482   26.0821 C   0  0  0  0  0  0  0  0  0  0  0  0
   10.4239   -1.7677   22.2230 N   0  0  0  0  0  0  0  0  0  0  0  0
    9.9468   -4.5953   20.1709 C   0  0  0  0  0  0  0  0  0  0  0  0
   10.0366   -3.0590   23.9864 N   0  0  0  0  0  0  0  0  0  0  0  0
    7.1191   -7.3636   15.7739 C   0  0  0  0  0  0  0  0  0  0  0  0
    5.9612   -8.3203   17.2732 N   0  0  0  0  0  0  0  0  0  0  0  0
    8.5296   -5.9814   17.1841 C   0  0  0  0  0  0  0  0  0  0  0  0
    9.1527   -5.2118   16.2116 C   0  0  0  0  0  0  0  0  0  0  0  0
   10.3364   -3.8368   22.9255 O   0  0  0  0  0  0  0  0  0  0  0  0
    9.6947   -4.8407   18.8534 C   0  0  0  0  0  0  0  0  0  0  0  0
    9.1596    1.7042   24.1381 C   0  0  0  0  0  0  0  0  0  0  0  0
   11.0456   -2.9774   18.2694 N   0  0  0  0  0  0  0  0  0  0  0  0
   10.4788   -3.0457   21.8593 C   0  0  0  0  0  0  0  0  0  0  0  0
    8.8693   -5.8099   18.4657 N   0  0  0  0  0  0  0  0  0  0  0  0
    8.9892   -0.7926   25.4573 C   0  0  0  0  0  0  0  0  0  0  0  0
   10.5677   -3.4462   20.5323 C   0  0  0  0  0  0  0  0  0  0  0  0
  1  8  1  0
  1 12  4  0
  1 14  4  0
  2  3  4  0
  2 18  4  0
  3 20  4  0
  3 22  4  0
  4 11  4  0
  4 21  4  0
  5  9  4  0
  5 16  4  0
  6 15  4  0
  6 16  4  0
  7 22  4  0
  7 26  4  0
  8 10  4  0
  8 25  4  0
  9 15  4  0
  9 17  1  0
 10 21  4  0
 11 25  4  0
 12 23  4  0
 13 20  4  0
 13 26  4  0
 14 19  4  0
 17 18  4  0
 17 24  4  0
 19 23  4  0
 20 24  4  0
 23 26  1  0
M  END
$$$$

 Created by Python create_sdf_string function

 26 30  0  0  0  0  0  0  0  0999 V2000
   10.0084   -1.8019   23.4945 C   0  0  0  0  0  0  0  0  0  0  0  0
   10.0005   -4.2520   16.5631 C   0  0  0  0  0  0  0  0  0  0  0  0
   10.2759   -4.0036   17.8845 C   0  0  0  0  0  0  0  0  0  0  0  0
    8.5652    1.5478   25.3778 N   0  0  0  0  0  0  0  0  0  0  0  0
    6.8048   -7.5457   17.8752 C   0  0  0  0  0  0  0  0  0  0  0  0
    6.1721   -8.2186   15.9886 N   0  0  0  0  0  0  0  0  0  0  0  0
   11.1764   -2.6600   19.5604 C   0  0  0  0  0  0  0  0  0  0  0  0
    9.5491   -0.6380   24.1912 C   0  0  0  0  0  0  0  0  0  0  0  0
    7.5337   -6.9256   16.9519 C   0  0  0  0  0  0  0  0  0  0  0  0
    9.6782    0.5671   23.5143 C   0  0  0  0  0  0  0  0  0  0  0  0
    8.4532    0.3482   26.0821 C   0  0  0  0  0  0  0  0  0  0  0  0
   10.4239   -1.7677   22.2230 N   0  0  0  0  0  0  0  0  0  0  0  0
    9.9468   -4.5953   20.1709 C   0  0  0  0  0  0  0  0  0  0  0  0
   10.0366   -3.0590   23.9864 N   0  0  0  0  0  0  0  0  0  0  0  0
    7.1191   -7.3636   15.7739 C   0  0  0  0  0  0  0  0  0  0  0  0
    5.9612   -8.3203   17.2732 N   0  0  0  0  0  0  0  0  0  0  0  0
    8.5296   -5.9814   17.1841 C   0  0  0  0  0  0  0  0  0  0  0  0
    9.1527   -5.2118   16.2116 C   0  0  0  0  0  0  0  0  0  0  0  0
   10.3364   -3.8368   22.9255 O   0  0  0  0  0  0  0  0  0  0  0  0
    9.6947   -4.8407   18.8534 C   0  0  0  0  0  0  0  0  0  0  0  0
    9.1596    1.7042   24.1381 C   0  0  0  0  0  0  0  0  0  0  0  0
   11.0456   -2.9774   18.2694 N   0  0  0  0  0  0  0  0  0  0  0  0
   10.4788   -3.0457   21.8593 C   0  0  0  0  0  0  0  0  0  0  0  0
    8.8693   -5.8099   18.4657 N   0  0  0  0  0  0  0  0  0  0  0  0
    8.9892   -0.7926   25.4573 C   0  0  0  0  0  0  0  0  0  0  0  0
   10.5677   -3.4462   20.5323 C   0  0  0  0  0  0  0  0  0  0  0  0
  1  8  1  0
  1 12  4  0
  1 14  4  0
  2  3  4  0
  2 18  4  0
  3 20  4  0
  3 22  4  0
  4 11  4  0
  4 21  4  0
  5  9  4  0
  5 16  4  0
  6 15  4  0
  6 16  4  0
  7 22  4  0
  7 26  4  0
  8 10  4  0
  8 25  4  0
  9 15  4  0
  9 17  1  0
 10 21  4  0
 11 25  4  0
 12 23  4  0
 13 20  4  0
 13 26  4  0
 14 19  4  0
 17 18  4  0
 17 24  4  0
 19 23  4  0
 20 24  4  0
 23 26  1  0
M  END
$$$$

 Created by Python create_sdf_string function

 26 30  0  0  0  0  0  0  0  0999 V2000
   10.0084   -1.8019   23.4945 C   0  0  0  0  0  0  0  0  0  0  0  0
   10.0005   -4.2520   16.5631 C   0  0  0  0  0  0  0  0  0  0  0  0
   10.2759   -4.0036   17.8845 C   0  0  0  0  0  0  0  0  0  0  0  0
    8.5652    1.5478   25.3778 N   0  0  0  0  0  0  0  0  0  0  0  0
    6.8048   -7.5457   17.8752 C   0  0  0  0  0  0  0  0  0  0  0  0
    6.1721   -8.2186   15.9886 N   0  0  0  0  0  0  0  0  0  0  0  0
   11.1764   -2.6600   19.5604 C   0  0  0  0  0  0  0  0  0  0  0  0
    9.5491   -0.6380   24.1912 C   0  0  0  0  0  0  0  0  0  0  0  0
    7.5337   -6.9256   16.9519 C   0  0  0  0  0  0  0  0  0  0  0  0
    9.6782    0.5671   23.5143 C   0  0  0  0  0  0  0  0  0  0  0  0
    8.4532    0.3482   26.0821 C   0  0  0  0  0  0  0  0  0  0  0  0
   10.4239   -1.7677   22.2230 N   0  0  0  0  0  0  0  0  0  0  0  0
    9.9468   -4.5953   20.1709 C   0  0  0  0  0  0  0  0  0  0  0  0
   10.0366   -3.0590   23.9864 N   0  0  0  0  0  0  0  0  0  0  0  0
    7.1191   -7.3636   15.7739 C   0  0  0  0  0  0  0  0  0  0  0  0
    5.9612   -8.3203   17.2732 N   0  0  0  0  0  0  0  0  0  0  0  0
    8.5296   -5.9814   17.1841 C   0  0  0  0  0  0  0  0  0  0  0  0
    9.1527   -5.2118   16.2116 C   0  0  0  0  0  0  0  0  0  0  0  0
   10.3364   -3.8368   22.9255 O   0  0  0  0  0  0  0  0  0  0  0  0
    9.6947   -4.8407   18.8534 C   0  0  0  0  0  0  0  0  0  0  0  0
    9.1596    1.7042   24.1381 C   0  0  0  0  0  0  0  0  0  0  0  0
   11.0456   -2.9774   18.2694 N   0  0  0  0  0  0  0  0  0  0  0  0
   10.4788   -3.0457   21.8593 C   0  0  0  0  0  0  0  0  0  0  0  0
    8.8693   -5.8099   18.4657 N   0  0  0  0  0  0  0  0  0  0  0  0
    8.9892   -0.7926   25.4573 C   0  0  0  0  0  0  0  0  0  0  0  0
   10.5677   -3.4462   20.5323 C   0  0  0  0  0  0  0  0  0  0  0  0
  1  8  1  0
  1 12  4  0
  1 14  4  0
  2  3  4  0
  2 18  4  0
  3 20  4  0
  3 22  4  0
  4 11  4  0
  4 21  4  0
  5  9  4  0
  5 16  4  0
  6 15  4  0
  6 16  4  0
  7 22  4  0
  7 26  4  0
  8 10  4  0
  8 25  4  0
  9 15  4  0
  9 17  1  0
 10 21  4  0
 11 25  4  0
 12 23  4  0
 13 20  4  0
 13 26  4  0
 14 19  4  0
 17 18  4  0
 17 24  4  0
 19 23  4  0
 20 24  4  0
 23 26  1  0
M  END
$$$$

 Created by Python create_sdf_string function

 26 30  0  0  0  0  0  0  0  0999 V2000
   10.0084   -1.8019   23.4945 C   0  0  0  0  0  0  0  0  0  0  0  0
   10.0005   -4.2520   16.5631 C   0  0  0  0  0  0  0  0  0  0  0  0
   10.2759   -4.0036   17.8845 C   0  0  0  0  0  0  0  0  0  0  0  0
    8.5652    1.5478   25.3778 N   0  0  0  0  0  0  0  0  0  0  0  0
    6.8048   -7.5457   17.8752 C   0  0  0  0  0  0  0  0  0  0  0  0
    6.1721   -8.2186   15.9886 N   0  0  0  0  0  0  0  0  0  0  0  0
   11.1764   -2.6600   19.5604 C   0  0  0  0  0  0  0  0  0  0  0  0
    9.5491   -0.6380   24.1912 C   0  0  0  0  0  0  0  0  0  0  0  0
    7.5337   -6.9256   16.9519 C   0  0  0  0  0  0  0  0  0  0  0  0
    9.6782    0.5671   23.5143 C   0  0  0  0  0  0  0  0  0  0  0  0
    8.4532    0.3482   26.0821 C   0  0  0  0  0  0  0  0  0  0  0  0
   10.4239   -1.7677   22.2230 N   0  0  0  0  0  0  0  0  0  0  0  0
    9.9468   -4.5953   20.1709 C   0  0  0  0  0  0  0  0  0  0  0  0
   10.0366   -3.0590   23.9864 N   0  0  0  0  0  0  0  0  0  0  0  0
    7.1191   -7.3636   15.7739 C   0  0  0  0  0  0  0  0  0  0  0  0
    5.9612   -8.3203   17.2732 N   0  0  0  0  0  0  0  0  0  0  0  0
    8.5296   -5.9814   17.1841 C   0  0  0  0  0  0  0  0  0  0  0  0
    9.1527   -5.2118   16.2116 C   0  0  0  0  0  0  0  0  0  0  0  0
   10.3364   -3.8368   22.9255 O   0  0  0  0  0  0  0  0  0  0  0  0
    9.6947   -4.8407   18.8534 C   0  0  0  0  0  0  0  0  0  0  0  0
    9.1596    1.7042   24.1381 C   0  0  0  0  0  0  0  0  0  0  0  0
   11.0456   -2.9774   18.2694 N   0  0  0  0  0  0  0  0  0  0  0  0
   10.4788   -3.0457   21.8593 C   0  0  0  0  0  0  0  0  0  0  0  0
    8.8693   -5.8099   18.4657 N   0  0  0  0  0  0  0  0  0  0  0  0
    8.9892   -0.7926   25.4573 C   0  0  0  0  0  0  0  0  0  0  0  0
   10.5677   -3.4462   20.5323 C   0  0  0  0  0  0  0  0  0  0  0  0
  1  8  1  0
  1 12  4  0
  1 14  4  0
  2  3  4  0
  2 18  4  0
  3 20  4  0
  3 22  4  0
  4 11  4  0
  4 21  4  0
  5  9  4  0
  5 16  4  0
  6 15  4  0
  6 16  4  0
  7 22  4  0
  7 26  4  0
  8 10  4  0
  8 25  4  0
  9 15  4  0
  9 17  1  0
 10 21  4  0
 11 25  4  0
 12 23  4  0
 13 20  4  0
 13 26  4  0
 14 19  4  0
 17 18  4  0
 17 24  4  0
 19 23  4  0
 20 24  4  0
 23 26  1  0
M  END
$$$$

 Created by Python create_sdf_string function

 26 30  0  0  0  0  0  0  0  0999 V2000
   10.0084   -1.8019   23.4945 C   0  0  0  0  0  0  0  0  0  0  0  0
   10.0005   -4.2520   16.5631 C   0  0  0  0  0  0  0  0  0  0  0  0
   10.2759   -4.0036   17.8845 C   0  0  0  0  0  0  0  0  0  0  0  0
    8.5652    1.5478   25.3778 N   0  0  0  0  0  0  0  0  0  0  0  0
    6.8048   -7.5457   17.8752 C   0  0  0  0  0  0  0  0  0  0  0  0
    6.1721   -8.2186   15.9886 N   0  0  0  0  0  0  0  0  0  0  0  0
   11.1764   -2.6600   19.5604 C   0  0  0  0  0  0  0  0  0  0  0  0
    9.5491   -0.6380   24.1912 C   0  0  0  0  0  0  0  0  0  0  0  0
    7.5337   -6.9256   16.9519 C   0  0  0  0  0  0  0  0  0  0  0  0
    9.6782    0.5671   23.5143 C   0  0  0  0  0  0  0  0  0  0  0  0
    8.4532    0.3482   26.0821 C   0  0  0  0  0  0  0  0  0  0  0  0
   10.4239   -1.7677   22.2230 N   0  0  0  0  0  0  0  0  0  0  0  0
    9.9468   -4.5953   20.1709 C   0  0  0  0  0  0  0  0  0  0  0  0
   10.0366   -3.0590   23.9864 N   0  0  0  0  0  0  0  0  0  0  0  0
    7.1191   -7.3636   15.7739 C   0  0  0  0  0  0  0  0  0  0  0  0
    5.9612   -8.3203   17.2732 N   0  0  0  0  0  0  0  0  0  0  0  0
    8.5296   -5.9814   17.1841 C   0  0  0  0  0  0  0  0  0  0  0  0
    9.1527   -5.2118   16.2116 C   0  0  0  0  0  0  0  0  0  0  0  0
   10.3364   -3.8368   22.9255 O   0  0  0  0  0  0  0  0  0  0  0  0
    9.6947   -4.8407   18.8534 C   0  0  0  0  0  0  0  0  0  0  0  0
    9.1596    1.7042   24.1381 C   0  0  0  0  0  0  0  0  0  0  0  0
   11.0456   -2.9774   18.2694 N   0  0  0  0  0  0  0  0  0  0  0  0
   10.4788   -3.0457   21.8593 C   0  0  0  0  0  0  0  0  0  0  0  0
    8.8693   -5.8099   18.4657 N   0  0  0  0  0  0  0  0  0  0  0  0
    8.9892   -0.7926   25.4573 C   0  0  0  0  0  0  0  0  0  0  0  0
   10.5677   -3.4462   20.5323 C   0  0  0  0  0  0  0  0  0  0  0  0
  1  8  1  0
  1 12  4  0
  1 14  4  0
  2  3  4  0
  2 18  4  0
  3 20  4  0
  3 22  4  0
  4 11  4  0
  4 21  4  0
  5  9  4  0
  5 16  4  0
  6 15  4  0
  6 16  4  0
  7 22  4  0
  7 26  4  0
  8 10  4  0
  8 25  4  0
  9 15  4  0
  9 17  1  0
 10 21  4  0
 11 25  4  0
 12 23  4  0
 13 20  4  0
 13 26  4  0
 14 19  4  0
 17 18  4  0
 17 24  4  0
 19 23  4  0
 20 24  4  0
 23 26  1  0
M  END
$$$$

 Created by Python create_sdf_string function

 26 30  0  0  0  0  0  0  0  0999 V2000
   10.0084   -1.8019   23.4945 C   0  0  0  0  0  0  0  0  0  0  0  0
   10.0005   -4.2520   16.5631 C   0  0  0  0  0  0  0  0  0  0  0  0
   10.2759   -4.0036   17.8845 C   0  0  0  0  0  0  0  0  0  0  0  0
    8.5652    1.5478   25.3778 N   0  0  0  0  0  0  0  0  0  0  0  0
    6.8048   -7.5457   17.8752 C   0  0  0  0  0  0  0  0  0  0  0  0
    6.1721   -8.2186   15.9886 N   0  0  0  0  0  0  0  0  0  0  0  0
   11.1764   -2.6600   19.5604 C   0  0  0  0  0  0  0  0  0  0  0  0
    9.5491   -0.6380   24.1912 C   0  0  0  0  0  0  0  0  0  0  0  0
    7.5337   -6.9256   16.9519 C   0  0  0  0  0  0  0  0  0  0  0  0
    9.6782    0.5671   23.5143 C   0  0  0  0  0  0  0  0  0  0  0  0
    8.4532    0.3482   26.0821 C   0  0  0  0  0  0  0  0  0  0  0  0
   10.4239   -1.7677   22.2230 N   0  0  0  0  0  0  0  0  0  0  0  0
    9.9468   -4.5953   20.1709 C   0  0  0  0  0  0  0  0  0  0  0  0
   10.0366   -3.0590   23.9864 N   0  0  0  0  0  0  0  0  0  0  0  0
    7.1191   -7.3636   15.7739 C   0  0  0  0  0  0  0  0  0  0  0  0
    5.9612   -8.3203   17.2732 N   0  0  0  0  0  0  0  0  0  0  0  0
    8.5296   -5.9814   17.1841 C   0  0  0  0  0  0  0  0  0  0  0  0
    9.1527   -5.2118   16.2116 C   0  0  0  0  0  0  0  0  0  0  0  0
   10.3364   -3.8368   22.9255 O   0  0  0  0  0  0  0  0  0  0  0  0
    9.6947   -4.8407   18.8534 C   0  0  0  0  0  0  0  0  0  0  0  0
    9.1596    1.7042   24.1381 C   0  0  0  0  0  0  0  0  0  0  0  0
   11.0456   -2.9774   18.2694 N   0  0  0  0  0  0  0  0  0  0  0  0
   10.4788   -3.0457   21.8593 C   0  0  0  0  0  0  0  0  0  0  0  0
    8.8693   -5.8099   18.4657 N   0  0  0  0  0  0  0  0  0  0  0  0
    8.9892   -0.7926   25.4573 C   0  0  0  0  0  0  0  0  0  0  0  0
   10.5677   -3.4462   20.5323 C   0  0  0  0  0  0  0  0  0  0  0  0
  1  8  1  0
  1 12  4  0
  1 14  4  0
  2  3  4  0
  2 18  4  0
  3 20  4  0
  3 22  4  0
  4 11  4  0
  4 21  4  0
  5  9  4  0
  5 16  4  0
  6 15  4  0
  6 16  4  0
  7 22  4  0
  7 26  4  0
  8 10  4  0
  8 25  4  0
  9 15  4  0
  9 17  1  0
 10 21  4  0
 11 25  4  0
 12 23  4  0
 13 20  4  0
 13 26  4  0
 14 19  4  0
 17 18  4  0
 17 24  4  0
 19 23  4  0
 20 24  4  0
 23 26  1  0
M  END
$$$$

 Created by Python create_sdf_string function

 26 30  0  0  0  0  0  0  0  0999 V2000
   10.0084   -1.8019   23.4945 C   0  0  0  0  0  0  0  0  0  0  0  0
   10.0005   -4.2520   16.5631 C   0  0  0  0  0  0  0  0  0  0  0  0
   10.2759   -4.0036   17.8845 C   0  0  0  0  0  0  0  0  0  0  0  0
    8.5652    1.5478   25.3778 N   0  0  0  0  0  0  0  0  0  0  0  0
    6.8048   -7.5457   17.8752 C   0  0  0  0  0  0  0  0  0  0  0  0
    6.1721   -8.2186   15.9886 N   0  0  0  0  0  0  0  0  0  0  0  0
   11.1764   -2.6600   19.5604 C   0  0  0  0  0  0  0  0  0  0  0  0
    9.5491   -0.6380   24.1912 C   0  0  0  0  0  0  0  0  0  0  0  0
    7.5337   -6.9256   16.9519 C   0  0  0  0  0  0  0  0  0  0  0  0
    9.6782    0.5671   23.5143 C   0  0  0  0  0  0  0  0  0  0  0  0
    8.4532    0.3482   26.0821 C   0  0  0  0  0  0  0  0  0  0  0  0
   10.4239   -1.7677   22.2230 N   0  0  0  0  0  0  0  0  0  0  0  0
    9.9468   -4.5953   20.1709 C   0  0  0  0  0  0  0  0  0  0  0  0
   10.0366   -3.0590   23.9864 N   0  0  0  0  0  0  0  0  0  0  0  0
    7.1191   -7.3636   15.7739 C   0  0  0  0  0  0  0  0  0  0  0  0
    5.9612   -8.3203   17.2732 N   0  0  0  0  0  0  0  0  0  0  0  0
    8.5296   -5.9814   17.1841 C   0  0  0  0  0  0  0  0  0  0  0  0
    9.1527   -5.2118   16.2116 C   0  0  0  0  0  0  0  0  0  0  0  0
   10.3364   -3.8368   22.9255 O   0  0  0  0  0  0  0  0  0  0  0  0
    9.6947   -4.8407   18.8534 C   0  0  0  0  0  0  0  0  0  0  0  0
    9.1596    1.7042   24.1381 C   0  0  0  0  0  0  0  0  0  0  0  0
   11.0456   -2.9774   18.2694 N   0  0  0  0  0  0  0  0  0  0  0  0
   10.4788   -3.0457   21.8593 C   0  0  0  0  0  0  0  0  0  0  0  0
    8.8693   -5.8099   18.4657 N   0  0  0  0  0  0  0  0  0  0  0  0
    8.9892   -0.7926   25.4573 C   0  0  0  0  0  0  0  0  0  0  0  0
   10.5677   -3.4462   20.5323 C   0  0  0  0  0  0  0  0  0  0  0  0
  1  8  1  0
  1 12  4  0
  1 14  4  0
  2  3  4  0
  2 18  4  0
  3 20  4  0
  3 22  4  0
  4 11  4  0
  4 21  4  0
  5  9  4  0
  5 16  4  0
  6 15  4  0
  6 16  4  0
  7 22  4  0
  7 26  4  0
  8 10  4  0
  8 25  4  0
  9 15  4  0
  9 17  1  0
 10 21  4  0
 11 25  4  0
 12 23  4  0
 13 20  4  0
 13 26  4  0
 14 19  4  0
 17 18  4  0
 17 24  4  0
 19 23  4  0
 20 24  4  0
 23 26  1  0
M  END
$$$$

 Created by Python create_sdf_string function

 26 30  0  0  0  0  0  0  0  0999 V2000
   10.0084   -1.8019   23.4945 C   0  0  0  0  0  0  0  0  0  0  0  0
   10.0005   -4.2520   16.5631 C   0  0  0  0  0  0  0  0  0  0  0  0
   10.2759   -4.0036   17.8845 C   0  0  0  0  0  0  0  0  0  0  0  0
    8.5652    1.5478   25.3778 N   0  0  0  0  0  0  0  0  0  0  0  0
    6.8048   -7.5457   17.8752 C   0  0  0  0  0  0  0  0  0  0  0  0
    6.1721   -8.2186   15.9886 N   0  0  0  0  0  0  0  0  0  0  0  0
   11.1764   -2.6600   19.5604 C   0  0  0  0  0  0  0  0  0  0  0  0
    9.5491   -0.6380   24.1912 C   0  0  0  0  0  0  0  0  0  0  0  0
    7.5337   -6.9256   16.9519 C   0  0  0  0  0  0  0  0  0  0  0  0
    9.6782    0.5671   23.5143 C   0  0  0  0  0  0  0  0  0  0  0  0
    8.4532    0.3482   26.0821 C   0  0  0  0  0  0  0  0  0  0  0  0
   10.4239   -1.7677   22.2230 N   0  0  0  0  0  0  0  0  0  0  0  0
    9.9468   -4.5953   20.1709 C   0  0  0  0  0  0  0  0  0  0  0  0
   10.0366   -3.0590   23.9864 N   0  0  0  0  0  0  0  0  0  0  0  0
    7.1191   -7.3636   15.7739 C   0  0  0  0  0  0  0  0  0  0  0  0
    5.9612   -8.3203   17.2732 N   0  0  0  0  0  0  0  0  0  0  0  0
    8.5296   -5.9814   17.1841 C   0  0  0  0  0  0  0  0  0  0  0  0
    9.1527   -5.2118   16.2116 C   0  0  0  0  0  0  0  0  0  0  0  0
   10.3364   -3.8368   22.9255 O   0  0  0  0  0  0  0  0  0  0  0  0
    9.6947   -4.8407   18.8534 C   0  0  0  0  0  0  0  0  0  0  0  0
    9.1596    1.7042   24.1381 C   0  0  0  0  0  0  0  0  0  0  0  0
   11.0456   -2.9774   18.2694 N   0  0  0  0  0  0  0  0  0  0  0  0
   10.4788   -3.0457   21.8593 C   0  0  0  0  0  0  0  0  0  0  0  0
    8.8693   -5.8099   18.4657 N   0  0  0  0  0  0  0  0  0  0  0  0
    8.9892   -0.7926   25.4573 C   0  0  0  0  0  0  0  0  0  0  0  0
   10.5677   -3.4462   20.5323 C   0  0  0  0  0  0  0  0  0  0  0  0
  1  8  1  0
  1 12  4  0
  1 14  4  0
  2  3  4  0
  2 18  4  0
  3 20  4  0
  3 22  4  0
  4 11  4  0
  4 21  4  0
  5  9  4  0
  5 16  4  0
  6 15  4  0
  6 16  4  0
  7 22  4  0
  7 26  4  0
  8 10  4  0
  8 25  4  0
  9 15  4  0
  9 17  1  0
 10 21  4  0
 11 25  4  0
 12 23  4  0
 13 20  4  0
 13 26  4  0
 14 19  4  0
 17 18  4  0
 17 24  4  0
 19 23  4  0
 20 24  4  0
 23 26  1  0
M  END
$$$$

 Created by Python create_sdf_string function

 26 30  0  0  0  0  0  0  0  0999 V2000
   10.0084   -1.8019   23.4945 C   0  0  0  0  0  0  0  0  0  0  0  0
   10.0005   -4.2520   16.5631 C   0  0  0  0  0  0  0  0  0  0  0  0
   10.2759   -4.0036   17.8845 C   0  0  0  0  0  0  0  0  0  0  0  0
    8.5652    1.5478   25.3778 N   0  0  0  0  0  0  0  0  0  0  0  0
    6.8048   -7.5457   17.8752 C   0  0  0  0  0  0  0  0  0  0  0  0
    6.1721   -8.2186   15.9886 N   0  0  0  0  0  0  0  0  0  0  0  0
   11.1764   -2.6600   19.5604 C   0  0  0  0  0  0  0  0  0  0  0  0
    9.5491   -0.6380   24.1912 C   0  0  0  0  0  0  0  0  0  0  0  0
    7.5337   -6.9256   16.9519 C   0  0  0  0  0  0  0  0  0  0  0  0
    9.6782    0.5671   23.5143 C   0  0  0  0  0  0  0  0  0  0  0  0
    8.4532    0.3482   26.0821 C   0  0  0  0  0  0  0  0  0  0  0  0
   10.4239   -1.7677   22.2230 N   0  0  0  0  0  0  0  0  0  0  0  0
    9.9468   -4.5953   20.1709 C   0  0  0  0  0  0  0  0  0  0  0  0
   10.0366   -3.0590   23.9864 N   0  0  0  0  0  0  0  0  0  0  0  0
    7.1191   -7.3636   15.7739 C   0  0  0  0  0  0  0  0  0  0  0  0
    5.9612   -8.3203   17.2732 N   0  0  0  0  0  0  0  0  0  0  0  0
    8.5296   -5.9814   17.1841 C   0  0  0  0  0  0  0  0  0  0  0  0
    9.1527   -5.2118   16.2116 C   0  0  0  0  0  0  0  0  0  0  0  0
   10.3364   -3.8368   22.9255 O   0  0  0  0  0  0  0  0  0  0  0  0
    9.6947   -4.8407   18.8534 C   0  0  0  0  0  0  0  0  0  0  0  0
    9.1596    1.7042   24.1381 C   0  0  0  0  0  0  0  0  0  0  0  0
   11.0456   -2.9774   18.2694 N   0  0  0  0  0  0  0  0  0  0  0  0
   10.4788   -3.0457   21.8593 C   0  0  0  0  0  0  0  0  0  0  0  0
    8.8693   -5.8099   18.4657 N   0  0  0  0  0  0  0  0  0  0  0  0
    8.9892   -0.7926   25.4573 C   0  0  0  0  0  0  0  0  0  0  0  0
   10.5677   -3.4462   20.5323 C   0  0  0  0  0  0  0  0  0  0  0  0
  1  8  1  0
  1 12  4  0
  1 14  4  0
  2  3  4  0
  2 18  4  0
  3 20  4  0
  3 22  4  0
  4 11  4  0
  4 21  4  0
  5  9  4  0
  5 16  4  0
  6 15  4  0
  6 16  4  0
  7 22  4  0
  7 26  4  0
  8 10  4  0
  8 25  4  0
  9 15  4  0
  9 17  1  0
 10 21  4  0
 11 25  4  0
 12 23  4  0
 13 20  4  0
 13 26  4  0
 14 19  4  0
 17 18  4  0
 17 24  4  0
 19 23  4  0
 20 24  4  0
 23 26  1  0
M  END
$$$$

 Created by Python create_sdf_string function

 26 30  0  0  0  0  0  0  0  0999 V2000
   10.0084   -1.8019   23.4945 C   0  0  0  0  0  0  0  0  0  0  0  0
   10.0005   -4.2520   16.5631 C   0  0  0  0  0  0  0  0  0  0  0  0
   10.2759   -4.0036   17.8845 C   0  0  0  0  0  0  0  0  0  0  0  0
    8.5652    1.5478   25.3778 N   0  0  0  0  0  0  0  0  0  0  0  0
    6.8048   -7.5457   17.8752 C   0  0  0  0  0  0  0  0  0  0  0  0
    6.1721   -8.2186   15.9886 N   0  0  0  0  0  0  0  0  0  0  0  0
   11.1764   -2.6600   19.5604 C   0  0  0  0  0  0  0  0  0  0  0  0
    9.5491   -0.6380   24.1912 C   0  0  0  0  0  0  0  0  0  0  0  0
    7.5337   -6.9256   16.9519 C   0  0  0  0  0  0  0  0  0  0  0  0
    9.6782    0.5671   23.5143 C   0  0  0  0  0  0  0  0  0  0  0  0
    8.4532    0.3482   26.0821 C   0  0  0  0  0  0  0  0  0  0  0  0
   10.4239   -1.7677   22.2230 N   0  0  0  0  0  0  0  0  0  0  0  0
    9.9468   -4.5953   20.1709 C   0  0  0  0  0  0  0  0  0  0  0  0
   10.0366   -3.0590   23.9864 N   0  0  0  0  0  0  0  0  0  0  0  0
    7.1191   -7.3636   15.7739 C   0  0  0  0  0  0  0  0  0  0  0  0
    5.9612   -8.3203   17.2732 N   0  0  0  0  0  0  0  0  0  0  0  0
    8.5296   -5.9814   17.1841 C   0  0  0  0  0  0  0  0  0  0  0  0
    9.1527   -5.2118   16.2116 C   0  0  0  0  0  0  0  0  0  0  0  0
   10.3364   -3.8368   22.9255 O   0  0  0  0  0  0  0  0  0  0  0  0
    9.6947   -4.8407   18.8534 C   0  0  0  0  0  0  0  0  0  0  0  0
    9.1596    1.7042   24.1381 C   0  0  0  0  0  0  0  0  0  0  0  0
   11.0456   -2.9774   18.2694 N   0  0  0  0  0  0  0  0  0  0  0  0
   10.4788   -3.0457   21.8593 C   0  0  0  0  0  0  0  0  0  0  0  0
    8.8693   -5.8099   18.4657 N   0  0  0  0  0  0  0  0  0  0  0  0
    8.9892   -0.7926   25.4573 C   0  0  0  0  0  0  0  0  0  0  0  0
   10.5677   -3.4462   20.5323 C   0  0  0  0  0  0  0  0  0  0  0  0
  1  8  1  0
  1 12  4  0
  1 14  4  0
  2  3  4  0
  2 18  4  0
  3 20  4  0
  3 22  4  0
  4 11  4  0
  4 21  4  0
  5  9  4  0
  5 16  4  0
  6 15  4  0
  6 16  4  0
  7 22  4  0
  7 26  4  0
  8 10  4  0
  8 25  4  0
  9 15  4  0
  9 17  1  0
 10 21  4  0
 11 25  4  0
 12 23  4  0
 13 20  4  0
 13 26  4  0
 14 19  4  0
 17 18  4  0
 17 24  4  0
 19 23  4  0
 20 24  4  0
 23 26  1  0
M  END
$$$$

 Created by Python create_sdf_string function

 26 30  0  0  0  0  0  0  0  0999 V2000
   10.0084   -1.8019   23.4945 C   0  0  0  0  0  0  0  0  0  0  0  0
   10.0005   -4.2520   16.5631 C   0  0  0  0  0  0  0  0  0  0  0  0
   10.2759   -4.0036   17.8845 C   0  0  0  0  0  0  0  0  0  0  0  0
    8.5652    1.5478   25.3778 N   0  0  0  0  0  0  0  0  0  0  0  0
    6.8048   -7.5457   17.8752 C   0  0  0  0  0  0  0  0  0  0  0  0
    6.1721   -8.2186   15.9886 N   0  0  0  0  0  0  0  0  0  0  0  0
   11.1764   -2.6600   19.5604 C   0  0  0  0  0  0  0  0  0  0  0  0
    9.5491   -0.6380   24.1912 C   0  0  0  0  0  0  0  0  0  0  0  0
    7.5337   -6.9256   16.9519 C   0  0  0  0  0  0  0  0  0  0  0  0
    9.6782    0.5671   23.5143 C   0  0  0  0  0  0  0  0  0  0  0  0
    8.4532    0.3482   26.0821 C   0  0  0  0  0  0  0  0  0  0  0  0
   10.4239   -1.7677   22.2230 N   0  0  0  0  0  0  0  0  0  0  0  0
    9.9468   -4.5953   20.1709 C   0  0  0  0  0  0  0  0  0  0  0  0
   10.0366   -3.0590   23.9864 N   0  0  0  0  0  0  0  0  0  0  0  0
    7.1191   -7.3636   15.7739 C   0  0  0  0  0  0  0  0  0  0  0  0
    5.9612   -8.3203   17.2732 N   0  0  0  0  0  0  0  0  0  0  0  0
    8.5296   -5.9814   17.1841 C   0  0  0  0  0  0  0  0  0  0  0  0
    9.1527   -5.2118   16.2116 C   0  0  0  0  0  0  0  0  0  0  0  0
   10.3364   -3.8368   22.9255 O   0  0  0  0  0  0  0  0  0  0  0  0
    9.6947   -4.8407   18.8534 C   0  0  0  0  0  0  0  0  0  0  0  0
    9.1596    1.7042   24.1381 C   0  0  0  0  0  0  0  0  0  0  0  0
   11.0456   -2.9774   18.2694 N   0  0  0  0  0  0  0  0  0  0  0  0
   10.4788   -3.0457   21.8593 C   0  0  0  0  0  0  0  0  0  0  0  0
    8.8693   -5.8099   18.4657 N   0  0  0  0  0  0  0  0  0  0  0  0
    8.9892   -0.7926   25.4573 C   0  0  0  0  0  0  0  0  0  0  0  0
   10.5677   -3.4462   20.5323 C   0  0  0  0  0  0  0  0  0  0  0  0
  1  8  1  0
  1 12  4  0
  1 14  4  0
  2  3  4  0
  2 18  4  0
  3 20  4  0
  3 22  4  0
  4 11  4  0
  4 21  4  0
  5  9  4  0
  5 16  4  0
  6 15  4  0
  6 16  4  0
  7 22  4  0
  7 26  4  0
  8 10  4  0
  8 25  4  0
  9 15  4  0
  9 17  1  0
 10 21  4  0
 11 25  4  0
 12 23  4  0
 13 20  4  0
 13 26  4  0
 14 19  4  0
 17 18  4  0
 17 24  4  0
 19 23  4  0
 20 24  4  0
 23 26  1  0
M  END
$$$$

 Created by Python create_sdf_string function

 26 30  0  0  0  0  0  0  0  0999 V2000
   10.0084   -1.8019   23.4945 C   0  0  0  0  0  0  0  0  0  0  0  0
   10.0005   -4.2520   16.5631 C   0  0  0  0  0  0  0  0  0  0  0  0
   10.2759   -4.0036   17.8845 C   0  0  0  0  0  0  0  0  0  0  0  0
    8.5652    1.5478   25.3778 N   0  0  0  0  0  0  0  0  0  0  0  0
    6.8048   -7.5457   17.8752 C   0  0  0  0  0  0  0  0  0  0  0  0
    6.1721   -8.2186   15.9886 N   0  0  0  0  0  0  0  0  0  0  0  0
   11.1764   -2.6600   19.5604 C   0  0  0  0  0  0  0  0  0  0  0  0
    9.5491   -0.6380   24.1912 C   0  0  0  0  0  0  0  0  0  0  0  0
    7.5337   -6.9256   16.9519 C   0  0  0  0  0  0  0  0  0  0  0  0
    9.6782    0.5671   23.5143 C   0  0  0  0  0  0  0  0  0  0  0  0
    8.4532    0.3482   26.0821 C   0  0  0  0  0  0  0  0  0  0  0  0
   10.4239   -1.7677   22.2230 N   0  0  0  0  0  0  0  0  0  0  0  0
    9.9468   -4.5953   20.1709 C   0  0  0  0  0  0  0  0  0  0  0  0
   10.0366   -3.0590   23.9864 N   0  0  0  0  0  0  0  0  0  0  0  0
    7.1191   -7.3636   15.7739 C   0  0  0  0  0  0  0  0  0  0  0  0
    5.9612   -8.3203   17.2732 N   0  0  0  0  0  0  0  0  0  0  0  0
    8.5296   -5.9814   17.1841 C   0  0  0  0  0  0  0  0  0  0  0  0
    9.1527   -5.2118   16.2116 C   0  0  0  0  0  0  0  0  0  0  0  0
   10.3364   -3.8368   22.9255 O   0  0  0  0  0  0  0  0  0  0  0  0
    9.6947   -4.8407   18.8534 C   0  0  0  0  0  0  0  0  0  0  0  0
    9.1596    1.7042   24.1381 C   0  0  0  0  0  0  0  0  0  0  0  0
   11.0456   -2.9774   18.2694 N   0  0  0  0  0  0  0  0  0  0  0  0
   10.4788   -3.0457   21.8593 C   0  0  0  0  0  0  0  0  0  0  0  0
    8.8693   -5.8099   18.4657 N   0  0  0  0  0  0  0  0  0  0  0  0
    8.9892   -0.7926   25.4573 C   0  0  0  0  0  0  0  0  0  0  0  0
   10.5677   -3.4462   20.5323 C   0  0  0  0  0  0  0  0  0  0  0  0
  1  8  1  0
  1 12  4  0
  1 14  4  0
  2  3  4  0
  2 18  4  0
  3 20  4  0
  3 22  4  0
  4 11  4  0
  4 21  4  0
  5  9  4  0
  5 16  4  0
  6 15  4  0
  6 16  4  0
  7 22  4  0
  7 26  4  0
  8 10  4  0
  8 25  4  0
  9 15  4  0
  9 17  1  0
 10 21  4  0
 11 25  4  0
 12 23  4  0
 13 20  4  0
 13 26  4  0
 14 19  4  0
 17 18  4  0
 17 24  4  0
 19 23  4  0
 20 24  4  0
 23 26  1  0
M  END
$$$$

 Created by Python create_sdf_string function

 26 30  0  0  0  0  0  0  0  0999 V2000
   10.0084   -1.8019   23.4945 C   0  0  0  0  0  0  0  0  0  0  0  0
   10.0005   -4.2520   16.5631 C   0  0  0  0  0  0  0  0  0  0  0  0
   10.2759   -4.0036   17.8845 C   0  0  0  0  0  0  0  0  0  0  0  0
    8.5652    1.5478   25.3778 N   0  0  0  0  0  0  0  0  0  0  0  0
    6.8048   -7.5457   17.8752 C   0  0  0  0  0  0  0  0  0  0  0  0
    6.1721   -8.2186   15.9886 N   0  0  0  0  0  0  0  0  0  0  0  0
   11.1764   -2.6600   19.5604 C   0  0  0  0  0  0  0  0  0  0  0  0
    9.5491   -0.6380   24.1912 C   0  0  0  0  0  0  0  0  0  0  0  0
    7.5337   -6.9256   16.9519 C   0  0  0  0  0  0  0  0  0  0  0  0
    9.6782    0.5671   23.5143 C   0  0  0  0  0  0  0  0  0  0  0  0
    8.4532    0.3482   26.0821 C   0  0  0  0  0  0  0  0  0  0  0  0
   10.4239   -1.7677   22.2230 N   0  0  0  0  0  0  0  0  0  0  0  0
    9.9468   -4.5953   20.1709 C   0  0  0  0  0  0  0  0  0  0  0  0
   10.0366   -3.0590   23.9864 N   0  0  0  0  0  0  0  0  0  0  0  0
    7.1191   -7.3636   15.7739 C   0  0  0  0  0  0  0  0  0  0  0  0
    5.9612   -8.3203   17.2732 N   0  0  0  0  0  0  0  0  0  0  0  0
    8.5296   -5.9814   17.1841 C   0  0  0  0  0  0  0  0  0  0  0  0
    9.1527   -5.2118   16.2116 C   0  0  0  0  0  0  0  0  0  0  0  0
   10.3364   -3.8368   22.9255 O   0  0  0  0  0  0  0  0  0  0  0  0
    9.6947   -4.8407   18.8534 C   0  0  0  0  0  0  0  0  0  0  0  0
    9.1596    1.7042   24.1381 C   0  0  0  0  0  0  0  0  0  0  0  0
   11.0456   -2.9774   18.2694 N   0  0  0  0  0  0  0  0  0  0  0  0
   10.4788   -3.0457   21.8593 C   0  0  0  0  0  0  0  0  0  0  0  0
    8.8693   -5.8099   18.4657 N   0  0  0  0  0  0  0  0  0  0  0  0
    8.9892   -0.7926   25.4573 C   0  0  0  0  0  0  0  0  0  0  0  0
   10.5677   -3.4462   20.5323 C   0  0  0  0  0  0  0  0  0  0  0  0
  1  8  1  0
  1 12  4  0
  1 14  4  0
  2  3  4  0
  2 18  4  0
  3 20  4  0
  3 22  4  0
  4 11  4  0
  4 21  4  0
  5  9  4  0
  5 16  4  0
  6 15  4  0
  6 16  4  0
  7 22  4  0
  7 26  4  0
  8 10  4  0
  8 25  4  0
  9 15  4  0
  9 17  1  0
 10 21  4  0
 11 25  4  0
 12 23  4  0
 13 20  4  0
 13 26  4  0
 14 19  4  0
 17 18  4  0
 17 24  4  0
 19 23  4  0
 20 24  4  0
 23 26  1  0
M  END
$$$$

 Created by Python create_sdf_string function

 26 30  0  0  0  0  0  0  0  0999 V2000
   10.0084   -1.8019   23.4945 C   0  0  0  0  0  0  0  0  0  0  0  0
   10.0005   -4.2520   16.5631 C   0  0  0  0  0  0  0  0  0  0  0  0
   10.2759   -4.0036   17.8845 C   0  0  0  0  0  0  0  0  0  0  0  0
    8.5652    1.5478   25.3778 N   0  0  0  0  0  0  0  0  0  0  0  0
    6.8048   -7.5457   17.8752 C   0  0  0  0  0  0  0  0  0  0  0  0
    6.1721   -8.2186   15.9886 N   0  0  0  0  0  0  0  0  0  0  0  0
   11.1764   -2.6600   19.5604 C   0  0  0  0  0  0  0  0  0  0  0  0
    9.5491   -0.6380   24.1912 C   0  0  0  0  0  0  0  0  0  0  0  0
    7.5337   -6.9256   16.9519 C   0  0  0  0  0  0  0  0  0  0  0  0
    9.6782    0.5671   23.5143 C   0  0  0  0  0  0  0  0  0  0  0  0
    8.4532    0.3482   26.0821 C   0  0  0  0  0  0  0  0  0  0  0  0
   10.4239   -1.7677   22.2230 N   0  0  0  0  0  0  0  0  0  0  0  0
    9.9468   -4.5953   20.1709 C   0  0  0  0  0  0  0  0  0  0  0  0
   10.0366   -3.0590   23.9864 N   0  0  0  0  0  0  0  0  0  0  0  0
    7.1191   -7.3636   15.7739 C   0  0  0  0  0  0  0  0  0  0  0  0
    5.9612   -8.3203   17.2732 N   0  0  0  0  0  0  0  0  0  0  0  0
    8.5296   -5.9814   17.1841 C   0  0  0  0  0  0  0  0  0  0  0  0
    9.1527   -5.2118   16.2116 C   0  0  0  0  0  0  0  0  0  0  0  0
   10.3364   -3.8368   22.9255 O   0  0  0  0  0  0  0  0  0  0  0  0
    9.6947   -4.8407   18.8534 C   0  0  0  0  0  0  0  0  0  0  0  0
    9.1596    1.7042   24.1381 C   0  0  0  0  0  0  0  0  0  0  0  0
   11.0456   -2.9774   18.2694 N   0  0  0  0  0  0  0  0  0  0  0  0
   10.4788   -3.0457   21.8593 C   0  0  0  0  0  0  0  0  0  0  0  0
    8.8693   -5.8099   18.4657 N   0  0  0  0  0  0  0  0  0  0  0  0
    8.9892   -0.7926   25.4573 C   0  0  0  0  0  0  0  0  0  0  0  0
   10.5677   -3.4462   20.5323 C   0  0  0  0  0  0  0  0  0  0  0  0
  1  8  1  0
  1 12  4  0
  1 14  4  0
  2  3  4  0
  2 18  4  0
  3 20  4  0
  3 22  4  0
  4 11  4  0
  4 21  4  0
  5  9  4  0
  5 16  4  0
  6 15  4  0
  6 16  4  0
  7 22  4  0
  7 26  4  0
  8 10  4  0
  8 25  4  0
  9 15  4  0
  9 17  1  0
 10 21  4  0
 11 25  4  0
 12 23  4  0
 13 20  4  0
 13 26  4  0
 14 19  4  0
 17 18  4  0
 17 24  4  0
 19 23  4  0
 20 24  4  0
 23 26  1  0
M  END
$$$$

 Created by Python create_sdf_string function

 26 30  0  0  0  0  0  0  0  0999 V2000
   10.0084   -1.8019   23.4945 C   0  0  0  0  0  0  0  0  0  0  0  0
   10.0005   -4.2520   16.5631 C   0  0  0  0  0  0  0  0  0  0  0  0
   10.2759   -4.0036   17.8845 C   0  0  0  0  0  0  0  0  0  0  0  0
    8.5652    1.5478   25.3778 N   0  0  0  0  0  0  0  0  0  0  0  0
    6.8048   -7.5457   17.8752 C   0  0  0  0  0  0  0  0  0  0  0  0
    6.1721   -8.2186   15.9886 N   0  0  0  0  0  0  0  0  0  0  0  0
   11.1764   -2.6600   19.5604 C   0  0  0  0  0  0  0  0  0  0  0  0
    9.5491   -0.6380   24.1912 C   0  0  0  0  0  0  0  0  0  0  0  0
    7.5337   -6.9256   16.9519 C   0  0  0  0  0  0  0  0  0  0  0  0
    9.6782    0.5671   23.5143 C   0  0  0  0  0  0  0  0  0  0  0  0
    8.4532    0.3482   26.0821 C   0  0  0  0  0  0  0  0  0  0  0  0
   10.4239   -1.7677   22.2230 N   0  0  0  0  0  0  0  0  0  0  0  0
    9.9468   -4.5953   20.1709 C   0  0  0  0  0  0  0  0  0  0  0  0
   10.0366   -3.0590   23.9864 N   0  0  0  0  0  0  0  0  0  0  0  0
    7.1191   -7.3636   15.7739 C   0  0  0  0  0  0  0  0  0  0  0  0
    5.9612   -8.3203   17.2732 N   0  0  0  0  0  0  0  0  0  0  0  0
    8.5296   -5.9814   17.1841 C   0  0  0  0  0  0  0  0  0  0  0  0
    9.1527   -5.2118   16.2116 C   0  0  0  0  0  0  0  0  0  0  0  0
   10.3364   -3.8368   22.9255 O   0  0  0  0  0  0  0  0  0  0  0  0
    9.6947   -4.8407   18.8534 C   0  0  0  0  0  0  0  0  0  0  0  0
    9.1596    1.7042   24.1381 C   0  0  0  0  0  0  0  0  0  0  0  0
   11.0456   -2.9774   18.2694 N   0  0  0  0  0  0  0  0  0  0  0  0
   10.4788   -3.0457   21.8593 C   0  0  0  0  0  0  0  0  0  0  0  0
    8.8693   -5.8099   18.4657 N   0  0  0  0  0  0  0  0  0  0  0  0
    8.9892   -0.7926   25.4573 C   0  0  0  0  0  0  0  0  0  0  0  0
   10.5677   -3.4462   20.5323 C   0  0  0  0  0  0  0  0  0  0  0  0
  1  8  1  0
  1 12  4  0
  1 14  4  0
  2  3  4  0
  2 18  4  0
  3 20  4  0
  3 22  4  0
  4 11  4  0
  4 21  4  0
  5  9  4  0
  5 16  4  0
  6 15  4  0
  6 16  4  0
  7 22  4  0
  7 26  4  0
  8 10  4  0
  8 25  4  0
  9 15  4  0
  9 17  1  0
 10 21  4  0
 11 25  4  0
 12 23  4  0
 13 20  4  0
 13 26  4  0
 14 19  4  0
 17 18  4  0
 17 24  4  0
 19 23  4  0
 20 24  4  0
 23 26  1  0
M  END
$$$$

 Created by Python create_sdf_string function

 26 30  0  0  0  0  0  0  0  0999 V2000
   10.0084   -1.8019   23.4945 C   0  0  0  0  0  0  0  0  0  0  0  0
   10.0005   -4.2520   16.5631 C   0  0  0  0  0  0  0  0  0  0  0  0
   10.2759   -4.0036   17.8845 C   0  0  0  0  0  0  0  0  0  0  0  0
    8.5652    1.5478   25.3778 N   0  0  0  0  0  0  0  0  0  0  0  0
    6.8048   -7.5457   17.8752 C   0  0  0  0  0  0  0  0  0  0  0  0
    6.1721   -8.2186   15.9886 N   0  0  0  0  0  0  0  0  0  0  0  0
   11.1764   -2.6600   19.5604 C   0  0  0  0  0  0  0  0  0  0  0  0
    9.5491   -0.6380   24.1912 C   0  0  0  0  0  0  0  0  0  0  0  0
    7.5337   -6.9256   16.9519 C   0  0  0  0  0  0  0  0  0  0  0  0
    9.6782    0.5671   23.5143 C   0  0  0  0  0  0  0  0  0  0  0  0
    8.4532    0.3482   26.0821 C   0  0  0  0  0  0  0  0  0  0  0  0
   10.4239   -1.7677   22.2230 N   0  0  0  0  0  0  0  0  0  0  0  0
    9.9468   -4.5953   20.1709 C   0  0  0  0  0  0  0  0  0  0  0  0
   10.0366   -3.0590   23.9864 N   0  0  0  0  0  0  0  0  0  0  0  0
    7.1191   -7.3636   15.7739 C   0  0  0  0  0  0  0  0  0  0  0  0
    5.9612   -8.3203   17.2732 N   0  0  0  0  0  0  0  0  0  0  0  0
    8.5296   -5.9814   17.1841 C   0  0  0  0  0  0  0  0  0  0  0  0
    9.1527   -5.2118   16.2116 C   0  0  0  0  0  0  0  0  0  0  0  0
   10.3364   -3.8368   22.9255 O   0  0  0  0  0  0  0  0  0  0  0  0
    9.6947   -4.8407   18.8534 C   0  0  0  0  0  0  0  0  0  0  0  0
    9.1596    1.7042   24.1381 C   0  0  0  0  0  0  0  0  0  0  0  0
   11.0456   -2.9774   18.2694 N   0  0  0  0  0  0  0  0  0  0  0  0
   10.4788   -3.0457   21.8593 C   0  0  0  0  0  0  0  0  0  0  0  0
    8.8693   -5.8099   18.4657 N   0  0  0  0  0  0  0  0  0  0  0  0
    8.9892   -0.7926   25.4573 C   0  0  0  0  0  0  0  0  0  0  0  0
   10.5677   -3.4462   20.5323 C   0  0  0  0  0  0  0  0  0  0  0  0
  1  8  1  0
  1 12  4  0
  1 14  4  0
  2  3  4  0
  2 18  4  0
  3 20  4  0
  3 22  4  0
  4 11  4  0
  4 21  4  0
  5  9  4  0
  5 16  4  0
  6 15  4  0
  6 16  4  0
  7 22  4  0
  7 26  4  0
  8 10  4  0
  8 25  4  0
  9 15  4  0
  9 17  1  0
 10 21  4  0
 11 25  4  0
 12 23  4  0
 13 20  4  0
 13 26  4  0
 14 19  4  0
 17 18  4  0
 17 24  4  0
 19 23  4  0
 20 24  4  0
 23 26  1  0
M  END
$$$$

 Created by Python create_sdf_string function

 26 30  0  0  0  0  0  0  0  0999 V2000
   10.0084   -1.8019   23.4945 C   0  0  0  0  0  0  0  0  0  0  0  0
   10.0005   -4.2520   16.5631 C   0  0  0  0  0  0  0  0  0  0  0  0
   10.2759   -4.0036   17.8845 C   0  0  0  0  0  0  0  0  0  0  0  0
    8.5652    1.5478   25.3778 N   0  0  0  0  0  0  0  0  0  0  0  0
    6.8048   -7.5457   17.8752 C   0  0  0  0  0  0  0  0  0  0  0  0
    6.1721   -8.2186   15.9886 N   0  0  0  0  0  0  0  0  0  0  0  0
   11.1764   -2.6600   19.5604 C   0  0  0  0  0  0  0  0  0  0  0  0
    9.5491   -0.6380   24.1912 C   0  0  0  0  0  0  0  0  0  0  0  0
    7.5337   -6.9256   16.9519 C   0  0  0  0  0  0  0  0  0  0  0  0
    9.6782    0.5671   23.5143 C   0  0  0  0  0  0  0  0  0  0  0  0
    8.4532    0.3482   26.0821 C   0  0  0  0  0  0  0  0  0  0  0  0
   10.4239   -1.7677   22.2230 N   0  0  0  0  0  0  0  0  0  0  0  0
    9.9468   -4.5953   20.1709 C   0  0  0  0  0  0  0  0  0  0  0  0
   10.0366   -3.0590   23.9864 N   0  0  0  0  0  0  0  0  0  0  0  0
    7.1191   -7.3636   15.7739 C   0  0  0  0  0  0  0  0  0  0  0  0
    5.9612   -8.3203   17.2732 N   0  0  0  0  0  0  0  0  0  0  0  0
    8.5296   -5.9814   17.1841 C   0  0  0  0  0  0  0  0  0  0  0  0
    9.1527   -5.2118   16.2116 C   0  0  0  0  0  0  0  0  0  0  0  0
   10.3364   -3.8368   22.9255 O   0  0  0  0  0  0  0  0  0  0  0  0
    9.6947   -4.8407   18.8534 C   0  0  0  0  0  0  0  0  0  0  0  0
    9.1596    1.7042   24.1381 C   0  0  0  0  0  0  0  0  0  0  0  0
   11.0456   -2.9774   18.2694 N   0  0  0  0  0  0  0  0  0  0  0  0
   10.4788   -3.0457   21.8593 C   0  0  0  0  0  0  0  0  0  0  0  0
    8.8693   -5.8099   18.4657 N   0  0  0  0  0  0  0  0  0  0  0  0
    8.9892   -0.7926   25.4573 C   0  0  0  0  0  0  0  0  0  0  0  0
   10.5677   -3.4462   20.5323 C   0  0  0  0  0  0  0  0  0  0  0  0
  1  8  1  0
  1 12  4  0
  1 14  4  0
  2  3  4  0
  2 18  4  0
  3 20  4  0
  3 22  4  0
  4 11  4  0
  4 21  4  0
  5  9  4  0
  5 16  4  0
  6 15  4  0
  6 16  4  0
  7 22  4  0
  7 26  4  0
  8 10  4  0
  8 25  4  0
  9 15  4  0
  9 17  1  0
 10 21  4  0
 11 25  4  0
 12 23  4  0
 13 20  4  0
 13 26  4  0
 14 19  4  0
 17 18  4  0
 17 24  4  0
 19 23  4  0
 20 24  4  0
 23 26  1  0
M  END
$$$$

 Created by Python create_sdf_string function

 26 30  0  0  0  0  0  0  0  0999 V2000
   10.0084   -1.8019   23.4945 C   0  0  0  0  0  0  0  0  0  0  0  0
   10.0005   -4.2520   16.5631 C   0  0  0  0  0  0  0  0  0  0  0  0
   10.2759   -4.0036   17.8845 C   0  0  0  0  0  0  0  0  0  0  0  0
    8.5652    1.5478   25.3778 N   0  0  0  0  0  0  0  0  0  0  0  0
    6.8048   -7.5457   17.8752 C   0  0  0  0  0  0  0  0  0  0  0  0
    6.1721   -8.2186   15.9886 N   0  0  0  0  0  0  0  0  0  0  0  0
   11.1764   -2.6600   19.5604 C   0  0  0  0  0  0  0  0  0  0  0  0
    9.5491   -0.6380   24.1912 C   0  0  0  0  0  0  0  0  0  0  0  0
    7.5337   -6.9256   16.9519 C   0  0  0  0  0  0  0  0  0  0  0  0
    9.6782    0.5671   23.5143 C   0  0  0  0  0  0  0  0  0  0  0  0
    8.4532    0.3482   26.0821 C   0  0  0  0  0  0  0  0  0  0  0  0
   10.4239   -1.7677   22.2230 N   0  0  0  0  0  0  0  0  0  0  0  0
    9.9468   -4.5953   20.1709 C   0  0  0  0  0  0  0  0  0  0  0  0
   10.0366   -3.0590   23.9864 N   0  0  0  0  0  0  0  0  0  0  0  0
    7.1191   -7.3636   15.7739 C   0  0  0  0  0  0  0  0  0  0  0  0
    5.9612   -8.3203   17.2732 N   0  0  0  0  0  0  0  0  0  0  0  0
    8.5296   -5.9814   17.1841 C   0  0  0  0  0  0  0  0  0  0  0  0
    9.1527   -5.2118   16.2116 C   0  0  0  0  0  0  0  0  0  0  0  0
   10.3364   -3.8368   22.9255 O   0  0  0  0  0  0  0  0  0  0  0  0
    9.6947   -4.8407   18.8534 C   0  0  0  0  0  0  0  0  0  0  0  0
    9.1596    1.7042   24.1381 C   0  0  0  0  0  0  0  0  0  0  0  0
   11.0456   -2.9774   18.2694 N   0  0  0  0  0  0  0  0  0  0  0  0
   10.4788   -3.0457   21.8593 C   0  0  0  0  0  0  0  0  0  0  0  0
    8.8693   -5.8099   18.4657 N   0  0  0  0  0  0  0  0  0  0  0  0
    8.9892   -0.7926   25.4573 C   0  0  0  0  0  0  0  0  0  0  0  0
   10.5677   -3.4462   20.5323 C   0  0  0  0  0  0  0  0  0  0  0  0
  1  8  1  0
  1 12  4  0
  1 14  4  0
  2  3  4  0
  2 18  4  0
  3 20  4  0
  3 22  4  0
  4 11  4  0
  4 21  4  0
  5  9  4  0
  5 16  4  0
  6 15  4  0
  6 16  4  0
  7 22  4  0
  7 26  4  0
  8 10  4  0
  8 25  4  0
  9 15  4  0
  9 17  1  0
 10 21  4  0
 11 25  4  0
 12 23  4  0
 13 20  4  0
 13 26  4  0
 14 19  4  0
 17 18  4  0
 17 24  4  0
 19 23  4  0
 20 24  4  0
 23 26  1  0
M  END
$$$$

 Created by Python create_sdf_string function

 26 30  0  0  0  0  0  0  0  0999 V2000
   10.0084   -1.8019   23.4945 C   0  0  0  0  0  0  0  0  0  0  0  0
   10.0005   -4.2520   16.5631 C   0  0  0  0  0  0  0  0  0  0  0  0
   10.2759   -4.0036   17.8845 C   0  0  0  0  0  0  0  0  0  0  0  0
    8.5652    1.5478   25.3778 N   0  0  0  0  0  0  0  0  0  0  0  0
    6.8048   -7.5457   17.8752 C   0  0  0  0  0  0  0  0  0  0  0  0
    6.1721   -8.2186   15.9886 N   0  0  0  0  0  0  0  0  0  0  0  0
   11.1764   -2.6600   19.5604 C   0  0  0  0  0  0  0  0  0  0  0  0
    9.5491   -0.6380   24.1912 C   0  0  0  0  0  0  0  0  0  0  0  0
    7.5337   -6.9256   16.9519 C   0  0  0  0  0  0  0  0  0  0  0  0
    9.6782    0.5671   23.5143 C   0  0  0  0  0  0  0  0  0  0  0  0
    8.4532    0.3482   26.0821 C   0  0  0  0  0  0  0  0  0  0  0  0
   10.4239   -1.7677   22.2230 N   0  0  0  0  0  0  0  0  0  0  0  0
    9.9468   -4.5953   20.1709 C   0  0  0  0  0  0  0  0  0  0  0  0
   10.0366   -3.0590   23.9864 N   0  0  0  0  0  0  0  0  0  0  0  0
    7.1191   -7.3636   15.7739 C   0  0  0  0  0  0  0  0  0  0  0  0
    5.9612   -8.3203   17.2732 N   0  0  0  0  0  0  0  0  0  0  0  0
    8.5296   -5.9814   17.1841 C   0  0  0  0  0  0  0  0  0  0  0  0
    9.1527   -5.2118   16.2116 C   0  0  0  0  0  0  0  0  0  0  0  0
   10.3364   -3.8368   22.9255 O   0  0  0  0  0  0  0  0  0  0  0  0
    9.6947   -4.8407   18.8534 C   0  0  0  0  0  0  0  0  0  0  0  0
    9.1596    1.7042   24.1381 C   0  0  0  0  0  0  0  0  0  0  0  0
   11.0456   -2.9774   18.2694 N   0  0  0  0  0  0  0  0  0  0  0  0
   10.4788   -3.0457   21.8593 C   0  0  0  0  0  0  0  0  0  0  0  0
    8.8693   -5.8099   18.4657 N   0  0  0  0  0  0  0  0  0  0  0  0
    8.9892   -0.7926   25.4573 C   0  0  0  0  0  0  0  0  0  0  0  0
   10.5677   -3.4462   20.5323 C   0  0  0  0  0  0  0  0  0  0  0  0
  1  8  1  0
  1 12  4  0
  1 14  4  0
  2  3  4  0
  2 18  4  0
  3 20  4  0
  3 22  4  0
  4 11  4  0
  4 21  4  0
  5  9  4  0
  5 16  4  0
  6 15  4  0
  6 16  4  0
  7 22  4  0
  7 26  4  0
  8 10  4  0
  8 25  4  0
  9 15  4  0
  9 17  1  0
 10 21  4  0
 11 25  4  0
 12 23  4  0
 13 20  4  0
 13 26  4  0
 14 19  4  0
 17 18  4  0
 17 24  4  0
 19 23  4  0
 20 24  4  0
 23 26  1  0
M  END
$$$$

 Created by Python create_sdf_string function

 26 30  0  0  0  0  0  0  0  0999 V2000
   10.0084   -1.8019   23.4945 C   0  0  0  0  0  0  0  0  0  0  0  0
   10.0005   -4.2520   16.5631 C   0  0  0  0  0  0  0  0  0  0  0  0
   10.2759   -4.0036   17.8845 C   0  0  0  0  0  0  0  0  0  0  0  0
    8.5652    1.5478   25.3778 N   0  0  0  0  0  0  0  0  0  0  0  0
    6.8048   -7.5457   17.8752 C   0  0  0  0  0  0  0  0  0  0  0  0
    6.1721   -8.2186   15.9886 N   0  0  0  0  0  0  0  0  0  0  0  0
   11.1764   -2.6600   19.5604 C   0  0  0  0  0  0  0  0  0  0  0  0
    9.5491   -0.6380   24.1912 C   0  0  0  0  0  0  0  0  0  0  0  0
    7.5337   -6.9256   16.9519 C   0  0  0  0  0  0  0  0  0  0  0  0
    9.6782    0.5671   23.5143 C   0  0  0  0  0  0  0  0  0  0  0  0
    8.4532    0.3482   26.0821 C   0  0  0  0  0  0  0  0  0  0  0  0
   10.4239   -1.7677   22.2230 N   0  0  0  0  0  0  0  0  0  0  0  0
    9.9468   -4.5953   20.1709 C   0  0  0  0  0  0  0  0  0  0  0  0
   10.0366   -3.0590   23.9864 N   0  0  0  0  0  0  0  0  0  0  0  0
    7.1191   -7.3636   15.7739 C   0  0  0  0  0  0  0  0  0  0  0  0
    5.9612   -8.3203   17.2732 N   0  0  0  0  0  0  0  0  0  0  0  0
    8.5296   -5.9814   17.1841 C   0  0  0  0  0  0  0  0  0  0  0  0
    9.1527   -5.2118   16.2116 C   0  0  0  0  0  0  0  0  0  0  0  0
   10.3364   -3.8368   22.9255 O   0  0  0  0  0  0  0  0  0  0  0  0
    9.6947   -4.8407   18.8534 C   0  0  0  0  0  0  0  0  0  0  0  0
    9.1596    1.7042   24.1381 C   0  0  0  0  0  0  0  0  0  0  0  0
   11.0456   -2.9774   18.2694 N   0  0  0  0  0  0  0  0  0  0  0  0
   10.4788   -3.0457   21.8593 C   0  0  0  0  0  0  0  0  0  0  0  0
    8.8693   -5.8099   18.4657 N   0  0  0  0  0  0  0  0  0  0  0  0
    8.9892   -0.7926   25.4573 C   0  0  0  0  0  0  0  0  0  0  0  0
   10.5677   -3.4462   20.5323 C   0  0  0  0  0  0  0  0  0  0  0  0
  1  8  1  0
  1 12  4  0
  1 14  4  0
  2  3  4  0
  2 18  4  0
  3 20  4  0
  3 22  4  0
  4 11  4  0
  4 21  4  0
  5  9  4  0
  5 16  4  0
  6 15  4  0
  6 16  4  0
  7 22  4  0
  7 26  4  0
  8 10  4  0
  8 25  4  0
  9 15  4  0
  9 17  1  0
 10 21  4  0
 11 25  4  0
 12 23  4  0
 13 20  4  0
 13 26  4  0
 14 19  4  0
 17 18  4  0
 17 24  4  0
 19 23  4  0
 20 24  4  0
 23 26  1  0
M  END
$$$$

 Created by Python create_sdf_string function

 26 30  0  0  0  0  0  0  0  0999 V2000
   10.0084   -1.8019   23.4945 C   0  0  0  0  0  0  0  0  0  0  0  0
   10.0005   -4.2520   16.5631 C   0  0  0  0  0  0  0  0  0  0  0  0
   10.2759   -4.0036   17.8845 C   0  0  0  0  0  0  0  0  0  0  0  0
    8.5652    1.5478   25.3778 N   0  0  0  0  0  0  0  0  0  0  0  0
    6.8048   -7.5457   17.8752 C   0  0  0  0  0  0  0  0  0  0  0  0
    6.1721   -8.2186   15.9886 N   0  0  0  0  0  0  0  0  0  0  0  0
   11.1764   -2.6600   19.5604 C   0  0  0  0  0  0  0  0  0  0  0  0
    9.5491   -0.6380   24.1912 C   0  0  0  0  0  0  0  0  0  0  0  0
    7.5337   -6.9256   16.9519 C   0  0  0  0  0  0  0  0  0  0  0  0
    9.6782    0.5671   23.5143 C   0  0  0  0  0  0  0  0  0  0  0  0
    8.4532    0.3482   26.0821 C   0  0  0  0  0  0  0  0  0  0  0  0
   10.4239   -1.7677   22.2230 N   0  0  0  0  0  0  0  0  0  0  0  0
    9.9468   -4.5953   20.1709 C   0  0  0  0  0  0  0  0  0  0  0  0
   10.0366   -3.0590   23.9864 N   0  0  0  0  0  0  0  0  0  0  0  0
    7.1191   -7.3636   15.7739 C   0  0  0  0  0  0  0  0  0  0  0  0
    5.9612   -8.3203   17.2732 N   0  0  0  0  0  0  0  0  0  0  0  0
    8.5296   -5.9814   17.1841 C   0  0  0  0  0  0  0  0  0  0  0  0
    9.1527   -5.2118   16.2116 C   0  0  0  0  0  0  0  0  0  0  0  0
   10.3364   -3.8368   22.9255 O   0  0  0  0  0  0  0  0  0  0  0  0
    9.6947   -4.8407   18.8534 C   0  0  0  0  0  0  0  0  0  0  0  0
    9.1596    1.7042   24.1381 C   0  0  0  0  0  0  0  0  0  0  0  0
   11.0456   -2.9774   18.2694 N   0  0  0  0  0  0  0  0  0  0  0  0
   10.4788   -3.0457   21.8593 C   0  0  0  0  0  0  0  0  0  0  0  0
    8.8693   -5.8099   18.4657 N   0  0  0  0  0  0  0  0  0  0  0  0
    8.9892   -0.7926   25.4573 C   0  0  0  0  0  0  0  0  0  0  0  0
   10.5677   -3.4462   20.5323 C   0  0  0  0  0  0  0  0  0  0  0  0
  1  8  1  0
  1 12  4  0
  1 14  4  0
  2  3  4  0
  2 18  4  0
  3 20  4  0
  3 22  4  0
  4 11  4  0
  4 21  4  0
  5  9  4  0
  5 16  4  0
  6 15  4  0
  6 16  4  0
  7 22  4  0
  7 26  4  0
  8 10  4  0
  8 25  4  0
  9 15  4  0
  9 17  1  0
 10 21  4  0
 11 25  4  0
 12 23  4  0
 13 20  4  0
 13 26  4  0
 14 19  4  0
 17 18  4  0
 17 24  4  0
 19 23  4  0
 20 24  4  0
 23 26  1  0
M  END
$$$$

 Created by Python create_sdf_string function

 26 30  0  0  0  0  0  0  0  0999 V2000
   10.0084   -1.8019   23.4945 C   0  0  0  0  0  0  0  0  0  0  0  0
   10.0005   -4.2520   16.5631 C   0  0  0  0  0  0  0  0  0  0  0  0
   10.2759   -4.0036   17.8845 C   0  0  0  0  0  0  0  0  0  0  0  0
    8.5652    1.5478   25.3778 N   0  0  0  0  0  0  0  0  0  0  0  0
    6.8048   -7.5457   17.8752 C   0  0  0  0  0  0  0  0  0  0  0  0
    6.1721   -8.2186   15.9886 N   0  0  0  0  0  0  0  0  0  0  0  0
   11.1764   -2.6600   19.5604 C   0  0  0  0  0  0  0  0  0  0  0  0
    9.5491   -0.6380   24.1912 C   0  0  0  0  0  0  0  0  0  0  0  0
    7.5337   -6.9256   16.9519 C   0  0  0  0  0  0  0  0  0  0  0  0
    9.6782    0.5671   23.5143 C   0  0  0  0  0  0  0  0  0  0  0  0
    8.4532    0.3482   26.0821 C   0  0  0  0  0  0  0  0  0  0  0  0
   10.4239   -1.7677   22.2230 N   0  0  0  0  0  0  0  0  0  0  0  0
    9.9468   -4.5953   20.1709 C   0  0  0  0  0  0  0  0  0  0  0  0
   10.0366   -3.0590   23.9864 N   0  0  0  0  0  0  0  0  0  0  0  0
    7.1191   -7.3636   15.7739 C   0  0  0  0  0  0  0  0  0  0  0  0
    5.9612   -8.3203   17.2732 N   0  0  0  0  0  0  0  0  0  0  0  0
    8.5296   -5.9814   17.1841 C   0  0  0  0  0  0  0  0  0  0  0  0
    9.1527   -5.2118   16.2116 C   0  0  0  0  0  0  0  0  0  0  0  0
   10.3364   -3.8368   22.9255 O   0  0  0  0  0  0  0  0  0  0  0  0
    9.6947   -4.8407   18.8534 C   0  0  0  0  0  0  0  0  0  0  0  0
    9.1596    1.7042   24.1381 C   0  0  0  0  0  0  0  0  0  0  0  0
   11.0456   -2.9774   18.2694 N   0  0  0  0  0  0  0  0  0  0  0  0
   10.4788   -3.0457   21.8593 C   0  0  0  0  0  0  0  0  0  0  0  0
    8.8693   -5.8099   18.4657 N   0  0  0  0  0  0  0  0  0  0  0  0
    8.9892   -0.7926   25.4573 C   0  0  0  0  0  0  0  0  0  0  0  0
   10.5677   -3.4462   20.5323 C   0  0  0  0  0  0  0  0  0  0  0  0
  1  8  1  0
  1 12  4  0
  1 14  4  0
  2  3  4  0
  2 18  4  0
  3 20  4  0
  3 22  4  0
  4 11  4  0
  4 21  4  0
  5  9  4  0
  5 16  4  0
  6 15  4  0
  6 16  4  0
  7 22  4  0
  7 26  4  0
  8 10  4  0
  8 25  4  0
  9 15  4  0
  9 17  1  0
 10 21  4  0
 11 25  4  0
 12 23  4  0
 13 20  4  0
 13 26  4  0
 14 19  4  0
 17 18  4  0
 17 24  4  0
 19 23  4  0
 20 24  4  0
 23 26  1  0
M  END
$$$$

 Created by Python create_sdf_string function

 26 30  0  0  0  0  0  0  0  0999 V2000
   10.0084   -1.8019   23.4945 C   0  0  0  0  0  0  0  0  0  0  0  0
   10.0005   -4.2520   16.5631 C   0  0  0  0  0  0  0  0  0  0  0  0
   10.2759   -4.0036   17.8845 C   0  0  0  0  0  0  0  0  0  0  0  0
    8.5652    1.5478   25.3778 N   0  0  0  0  0  0  0  0  0  0  0  0
    6.8048   -7.5457   17.8752 C   0  0  0  0  0  0  0  0  0  0  0  0
    6.1721   -8.2186   15.9886 N   0  0  0  0  0  0  0  0  0  0  0  0
   11.1764   -2.6600   19.5604 C   0  0  0  0  0  0  0  0  0  0  0  0
    9.5491   -0.6380   24.1912 C   0  0  0  0  0  0  0  0  0  0  0  0
    7.5337   -6.9256   16.9519 C   0  0  0  0  0  0  0  0  0  0  0  0
    9.6782    0.5671   23.5143 C   0  0  0  0  0  0  0  0  0  0  0  0
    8.4532    0.3482   26.0821 C   0  0  0  0  0  0  0  0  0  0  0  0
   10.4239   -1.7677   22.2230 N   0  0  0  0  0  0  0  0  0  0  0  0
    9.9468   -4.5953   20.1709 C   0  0  0  0  0  0  0  0  0  0  0  0
   10.0366   -3.0590   23.9864 N   0  0  0  0  0  0  0  0  0  0  0  0
    7.1191   -7.3636   15.7739 C   0  0  0  0  0  0  0  0  0  0  0  0
    5.9612   -8.3203   17.2732 N   0  0  0  0  0  0  0  0  0  0  0  0
    8.5296   -5.9814   17.1841 C   0  0  0  0  0  0  0  0  0  0  0  0
    9.1527   -5.2118   16.2116 C   0  0  0  0  0  0  0  0  0  0  0  0
   10.3364   -3.8368   22.9255 O   0  0  0  0  0  0  0  0  0  0  0  0
    9.6947   -4.8407   18.8534 C   0  0  0  0  0  0  0  0  0  0  0  0
    9.1596    1.7042   24.1381 C   0  0  0  0  0  0  0  0  0  0  0  0
   11.0456   -2.9774   18.2694 N   0  0  0  0  0  0  0  0  0  0  0  0
   10.4788   -3.0457   21.8593 C   0  0  0  0  0  0  0  0  0  0  0  0
    8.8693   -5.8099   18.4657 N   0  0  0  0  0  0  0  0  0  0  0  0
    8.9892   -0.7926   25.4573 C   0  0  0  0  0  0  0  0  0  0  0  0
   10.5677   -3.4462   20.5323 C   0  0  0  0  0  0  0  0  0  0  0  0
  1  8  1  0
  1 12  4  0
  1 14  4  0
  2  3  4  0
  2 18  4  0
  3 20  4  0
  3 22  4  0
  4 11  4  0
  4 21  4  0
  5  9  4  0
  5 16  4  0
  6 15  4  0
  6 16  4  0
  7 22  4  0
  7 26  4  0
  8 10  4  0
  8 25  4  0
  9 15  4  0
  9 17  1  0
 10 21  4  0
 11 25  4  0
 12 23  4  0
 13 20  4  0
 13 26  4  0
 14 19  4  0
 17 18  4  0
 17 24  4  0
 19 23  4  0
 20 24  4  0
 23 26  1  0
M  END
$$$$

 Created by Python create_sdf_string function

 26 30  0  0  0  0  0  0  0  0999 V2000
   10.0084   -1.8019   23.4945 C   0  0  0  0  0  0  0  0  0  0  0  0
   10.0005   -4.2520   16.5631 C   0  0  0  0  0  0  0  0  0  0  0  0
   10.2759   -4.0036   17.8845 C   0  0  0  0  0  0  0  0  0  0  0  0
    8.5652    1.5478   25.3778 N   0  0  0  0  0  0  0  0  0  0  0  0
    6.8048   -7.5457   17.8752 C   0  0  0  0  0  0  0  0  0  0  0  0
    6.1721   -8.2186   15.9886 N   0  0  0  0  0  0  0  0  0  0  0  0
   11.1764   -2.6600   19.5604 C   0  0  0  0  0  0  0  0  0  0  0  0
    9.5491   -0.6380   24.1912 C   0  0  0  0  0  0  0  0  0  0  0  0
    7.5337   -6.9256   16.9519 C   0  0  0  0  0  0  0  0  0  0  0  0
    9.6782    0.5671   23.5143 C   0  0  0  0  0  0  0  0  0  0  0  0
    8.4532    0.3482   26.0821 C   0  0  0  0  0  0  0  0  0  0  0  0
   10.4239   -1.7677   22.2230 N   0  0  0  0  0  0  0  0  0  0  0  0
    9.9468   -4.5953   20.1709 C   0  0  0  0  0  0  0  0  0  0  0  0
   10.0366   -3.0590   23.9864 N   0  0  0  0  0  0  0  0  0  0  0  0
    7.1191   -7.3636   15.7739 C   0  0  0  0  0  0  0  0  0  0  0  0
    5.9612   -8.3203   17.2732 N   0  0  0  0  0  0  0  0  0  0  0  0
    8.5296   -5.9814   17.1841 C   0  0  0  0  0  0  0  0  0  0  0  0
    9.1527   -5.2118   16.2116 C   0  0  0  0  0  0  0  0  0  0  0  0
   10.3364   -3.8368   22.9255 O   0  0  0  0  0  0  0  0  0  0  0  0
    9.6947   -4.8407   18.8534 C   0  0  0  0  0  0  0  0  0  0  0  0
    9.1596    1.7042   24.1381 C   0  0  0  0  0  0  0  0  0  0  0  0
   11.0456   -2.9774   18.2694 N   0  0  0  0  0  0  0  0  0  0  0  0
   10.4788   -3.0457   21.8593 C   0  0  0  0  0  0  0  0  0  0  0  0
    8.8693   -5.8099   18.4657 N   0  0  0  0  0  0  0  0  0  0  0  0
    8.9892   -0.7926   25.4573 C   0  0  0  0  0  0  0  0  0  0  0  0
   10.5677   -3.4462   20.5323 C   0  0  0  0  0  0  0  0  0  0  0  0
  1  8  1  0
  1 12  4  0
  1 14  4  0
  2  3  4  0
  2 18  4  0
  3 20  4  0
  3 22  4  0
  4 11  4  0
  4 21  4  0
  5  9  4  0
  5 16  4  0
  6 15  4  0
  6 16  4  0
  7 22  4  0
  7 26  4  0
  8 10  4  0
  8 25  4  0
  9 15  4  0
  9 17  1  0
 10 21  4  0
 11 25  4  0
 12 23  4  0
 13 20  4  0
 13 26  4  0
 14 19  4  0
 17 18  4  0
 17 24  4  0
 19 23  4  0
 20 24  4  0
 23 26  1  0
M  END
$$$$

 Created by Python create_sdf_string function

 26 30  0  0  0  0  0  0  0  0999 V2000
   10.0084   -1.8019   23.4945 C   0  0  0  0  0  0  0  0  0  0  0  0
   10.0005   -4.2520   16.5631 C   0  0  0  0  0  0  0  0  0  0  0  0
   10.2759   -4.0036   17.8845 C   0  0  0  0  0  0  0  0  0  0  0  0
    8.5652    1.5478   25.3778 N   0  0  0  0  0  0  0  0  0  0  0  0
    6.8048   -7.5457   17.8752 C   0  0  0  0  0  0  0  0  0  0  0  0
    6.1721   -8.2186   15.9886 N   0  0  0  0  0  0  0  0  0  0  0  0
   11.1764   -2.6600   19.5604 C   0  0  0  0  0  0  0  0  0  0  0  0
    9.5491   -0.6380   24.1912 C   0  0  0  0  0  0  0  0  0  0  0  0
    7.5337   -6.9256   16.9519 C   0  0  0  0  0  0  0  0  0  0  0  0
    9.6782    0.5671   23.5143 C   0  0  0  0  0  0  0  0  0  0  0  0
    8.4532    0.3482   26.0821 C   0  0  0  0  0  0  0  0  0  0  0  0
   10.4239   -1.7677   22.2230 N   0  0  0  0  0  0  0  0  0  0  0  0
    9.9468   -4.5953   20.1709 C   0  0  0  0  0  0  0  0  0  0  0  0
   10.0366   -3.0590   23.9864 N   0  0  0  0  0  0  0  0  0  0  0  0
    7.1191   -7.3636   15.7739 C   0  0  0  0  0  0  0  0  0  0  0  0
    5.9612   -8.3203   17.2732 N   0  0  0  0  0  0  0  0  0  0  0  0
    8.5296   -5.9814   17.1841 C   0  0  0  0  0  0  0  0  0  0  0  0
    9.1527   -5.2118   16.2116 C   0  0  0  0  0  0  0  0  0  0  0  0
   10.3364   -3.8368   22.9255 O   0  0  0  0  0  0  0  0  0  0  0  0
    9.6947   -4.8407   18.8534 C   0  0  0  0  0  0  0  0  0  0  0  0
    9.1596    1.7042   24.1381 C   0  0  0  0  0  0  0  0  0  0  0  0
   11.0456   -2.9774   18.2694 N   0  0  0  0  0  0  0  0  0  0  0  0
   10.4788   -3.0457   21.8593 C   0  0  0  0  0  0  0  0  0  0  0  0
    8.8693   -5.8099   18.4657 N   0  0  0  0  0  0  0  0  0  0  0  0
    8.9892   -0.7926   25.4573 C   0  0  0  0  0  0  0  0  0  0  0  0
   10.5677   -3.4462   20.5323 C   0  0  0  0  0  0  0  0  0  0  0  0
  1  8  1  0
  1 12  4  0
  1 14  4  0
  2  3  4  0
  2 18  4  0
  3 20  4  0
  3 22  4  0
  4 11  4  0
  4 21  4  0
  5  9  4  0
  5 16  4  0
  6 15  4  0
  6 16  4  0
  7 22  4  0
  7 26  4  0
  8 10  4  0
  8 25  4  0
  9 15  4  0
  9 17  1  0
 10 21  4  0
 11 25  4  0
 12 23  4  0
 13 20  4  0
 13 26  4  0
 14 19  4  0
 17 18  4  0
 17 24  4  0
 19 23  4  0
 20 24  4  0
 23 26  1  0
M  END
$$$$

 Created by Python create_sdf_string function

 26 30  0  0  0  0  0  0  0  0999 V2000
   10.0084   -1.8019   23.4945 C   0  0  0  0  0  0  0  0  0  0  0  0
   10.0005   -4.2520   16.5631 C   0  0  0  0  0  0  0  0  0  0  0  0
   10.2759   -4.0036   17.8845 C   0  0  0  0  0  0  0  0  0  0  0  0
    8.5652    1.5478   25.3778 N   0  0  0  0  0  0  0  0  0  0  0  0
    6.8048   -7.5457   17.8752 C   0  0  0  0  0  0  0  0  0  0  0  0
    6.1721   -8.2186   15.9886 N   0  0  0  0  0  0  0  0  0  0  0  0
   11.1764   -2.6600   19.5604 C   0  0  0  0  0  0  0  0  0  0  0  0
    9.5491   -0.6380   24.1912 C   0  0  0  0  0  0  0  0  0  0  0  0
    7.5337   -6.9256   16.9519 C   0  0  0  0  0  0  0  0  0  0  0  0
    9.6782    0.5671   23.5143 C   0  0  0  0  0  0  0  0  0  0  0  0
    8.4532    0.3482   26.0821 C   0  0  0  0  0  0  0  0  0  0  0  0
   10.4239   -1.7677   22.2230 N   0  0  0  0  0  0  0  0  0  0  0  0
    9.9468   -4.5953   20.1709 C   0  0  0  0  0  0  0  0  0  0  0  0
   10.0366   -3.0590   23.9864 N   0  0  0  0  0  0  0  0  0  0  0  0
    7.1191   -7.3636   15.7739 C   0  0  0  0  0  0  0  0  0  0  0  0
    5.9612   -8.3203   17.2732 N   0  0  0  0  0  0  0  0  0  0  0  0
    8.5296   -5.9814   17.1841 C   0  0  0  0  0  0  0  0  0  0  0  0
    9.1527   -5.2118   16.2116 C   0  0  0  0  0  0  0  0  0  0  0  0
   10.3364   -3.8368   22.9255 O   0  0  0  0  0  0  0  0  0  0  0  0
    9.6947   -4.8407   18.8534 C   0  0  0  0  0  0  0  0  0  0  0  0
    9.1596    1.7042   24.1381 C   0  0  0  0  0  0  0  0  0  0  0  0
   11.0456   -2.9774   18.2694 N   0  0  0  0  0  0  0  0  0  0  0  0
   10.4788   -3.0457   21.8593 C   0  0  0  0  0  0  0  0  0  0  0  0
    8.8693   -5.8099   18.4657 N   0  0  0  0  0  0  0  0  0  0  0  0
    8.9892   -0.7926   25.4573 C   0  0  0  0  0  0  0  0  0  0  0  0
   10.5677   -3.4462   20.5323 C   0  0  0  0  0  0  0  0  0  0  0  0
  1  8  1  0
  1 12  4  0
  1 14  4  0
  2  3  4  0
  2 18  4  0
  3 20  4  0
  3 22  4  0
  4 11  4  0
  4 21  4  0
  5  9  4  0
  5 16  4  0
  6 15  4  0
  6 16  4  0
  7 22  4  0
  7 26  4  0
  8 10  4  0
  8 25  4  0
  9 15  4  0
  9 17  1  0
 10 21  4  0
 11 25  4  0
 12 23  4  0
 13 20  4  0
 13 26  4  0
 14 19  4  0
 17 18  4  0
 17 24  4  0
 19 23  4  0
 20 24  4  0
 23 26  1  0
M  END
$$$$

 Created by Python create_sdf_string function

 26 30  0  0  0  0  0  0  0  0999 V2000
   10.0084   -1.8019   23.4945 C   0  0  0  0  0  0  0  0  0  0  0  0
   10.0005   -4.2520   16.5631 C   0  0  0  0  0  0  0  0  0  0  0  0
   10.2759   -4.0036   17.8845 C   0  0  0  0  0  0  0  0  0  0  0  0
    8.5652    1.5478   25.3778 N   0  0  0  0  0  0  0  0  0  0  0  0
    6.8048   -7.5457   17.8752 C   0  0  0  0  0  0  0  0  0  0  0  0
    6.1721   -8.2186   15.9886 N   0  0  0  0  0  0  0  0  0  0  0  0
   11.1764   -2.6600   19.5604 C   0  0  0  0  0  0  0  0  0  0  0  0
    9.5491   -0.6380   24.1912 C   0  0  0  0  0  0  0  0  0  0  0  0
    7.5337   -6.9256   16.9519 C   0  0  0  0  0  0  0  0  0  0  0  0
    9.6782    0.5671   23.5143 C   0  0  0  0  0  0  0  0  0  0  0  0
    8.4532    0.3482   26.0821 C   0  0  0  0  0  0  0  0  0  0  0  0
   10.4239   -1.7677   22.2230 N   0  0  0  0  0  0  0  0  0  0  0  0
    9.9468   -4.5953   20.1709 C   0  0  0  0  0  0  0  0  0  0  0  0
   10.0366   -3.0590   23.9864 N   0  0  0  0  0  0  0  0  0  0  0  0
    7.1191   -7.3636   15.7739 C   0  0  0  0  0  0  0  0  0  0  0  0
    5.9612   -8.3203   17.2732 N   0  0  0  0  0  0  0  0  0  0  0  0
    8.5296   -5.9814   17.1841 C   0  0  0  0  0  0  0  0  0  0  0  0
    9.1527   -5.2118   16.2116 C   0  0  0  0  0  0  0  0  0  0  0  0
   10.3364   -3.8368   22.9255 O   0  0  0  0  0  0  0  0  0  0  0  0
    9.6947   -4.8407   18.8534 C   0  0  0  0  0  0  0  0  0  0  0  0
    9.1596    1.7042   24.1381 C   0  0  0  0  0  0  0  0  0  0  0  0
   11.0456   -2.9774   18.2694 N   0  0  0  0  0  0  0  0  0  0  0  0
   10.4788   -3.0457   21.8593 C   0  0  0  0  0  0  0  0  0  0  0  0
    8.8693   -5.8099   18.4657 N   0  0  0  0  0  0  0  0  0  0  0  0
    8.9892   -0.7926   25.4573 C   0  0  0  0  0  0  0  0  0  0  0  0
   10.5677   -3.4462   20.5323 C   0  0  0  0  0  0  0  0  0  0  0  0
  1  8  1  0
  1 12  4  0
  1 14  4  0
  2  3  4  0
  2 18  4  0
  3 20  4  0
  3 22  4  0
  4 11  4  0
  4 21  4  0
  5  9  4  0
  5 16  4  0
  6 15  4  0
  6 16  4  0
  7 22  4  0
  7 26  4  0
  8 10  4  0
  8 25  4  0
  9 15  4  0
  9 17  1  0
 10 21  4  0
 11 25  4  0
 12 23  4  0
 13 20  4  0
 13 26  4  0
 14 19  4  0
 17 18  4  0
 17 24  4  0
 19 23  4  0
 20 24  4  0
 23 26  1  0
M  END
$$$$

 Created by Python create_sdf_string function

 26 30  0  0  0  0  0  0  0  0999 V2000
   10.0084   -1.8019   23.4945 C   0  0  0  0  0  0  0  0  0  0  0  0
   10.0005   -4.2520   16.5631 C   0  0  0  0  0  0  0  0  0  0  0  0
   10.2759   -4.0036   17.8845 C   0  0  0  0  0  0  0  0  0  0  0  0
    8.5652    1.5478   25.3778 N   0  0  0  0  0  0  0  0  0  0  0  0
    6.8048   -7.5457   17.8752 C   0  0  0  0  0  0  0  0  0  0  0  0
    6.1721   -8.2186   15.9886 N   0  0  0  0  0  0  0  0  0  0  0  0
   11.1764   -2.6600   19.5604 C   0  0  0  0  0  0  0  0  0  0  0  0
    9.5491   -0.6380   24.1912 C   0  0  0  0  0  0  0  0  0  0  0  0
    7.5337   -6.9256   16.9519 C   0  0  0  0  0  0  0  0  0  0  0  0
    9.6782    0.5671   23.5143 C   0  0  0  0  0  0  0  0  0  0  0  0
    8.4532    0.3482   26.0821 C   0  0  0  0  0  0  0  0  0  0  0  0
   10.4239   -1.7677   22.2230 N   0  0  0  0  0  0  0  0  0  0  0  0
    9.9468   -4.5953   20.1709 C   0  0  0  0  0  0  0  0  0  0  0  0
   10.0366   -3.0590   23.9864 N   0  0  0  0  0  0  0  0  0  0  0  0
    7.1191   -7.3636   15.7739 C   0  0  0  0  0  0  0  0  0  0  0  0
    5.9612   -8.3203   17.2732 N   0  0  0  0  0  0  0  0  0  0  0  0
    8.5296   -5.9814   17.1841 C   0  0  0  0  0  0  0  0  0  0  0  0
    9.1527   -5.2118   16.2116 C   0  0  0  0  0  0  0  0  0  0  0  0
   10.3364   -3.8368   22.9255 O   0  0  0  0  0  0  0  0  0  0  0  0
    9.6947   -4.8407   18.8534 C   0  0  0  0  0  0  0  0  0  0  0  0
    9.1596    1.7042   24.1381 C   0  0  0  0  0  0  0  0  0  0  0  0
   11.0456   -2.9774   18.2694 N   0  0  0  0  0  0  0  0  0  0  0  0
   10.4788   -3.0457   21.8593 C   0  0  0  0  0  0  0  0  0  0  0  0
    8.8693   -5.8099   18.4657 N   0  0  0  0  0  0  0  0  0  0  0  0
    8.9892   -0.7926   25.4573 C   0  0  0  0  0  0  0  0  0  0  0  0
   10.5677   -3.4462   20.5323 C   0  0  0  0  0  0  0  0  0  0  0  0
  1  8  1  0
  1 12  4  0
  1 14  4  0
  2  3  4  0
  2 18  4  0
  3 20  4  0
  3 22  4  0
  4 11  4  0
  4 21  4  0
  5  9  4  0
  5 16  4  0
  6 15  4  0
  6 16  4  0
  7 22  4  0
  7 26  4  0
  8 10  4  0
  8 25  4  0
  9 15  4  0
  9 17  1  0
 10 21  4  0
 11 25  4  0
 12 23  4  0
 13 20  4  0
 13 26  4  0
 14 19  4  0
 17 18  4  0
 17 24  4  0
 19 23  4  0
 20 24  4  0
 23 26  1  0
M  END
$$$$

 Created by Python create_sdf_string function

 26 30  0  0  0  0  0  0  0  0999 V2000
   10.0084   -1.8019   23.4945 C   0  0  0  0  0  0  0  0  0  0  0  0
   10.0005   -4.2520   16.5631 C   0  0  0  0  0  0  0  0  0  0  0  0
   10.2759   -4.0036   17.8845 C   0  0  0  0  0  0  0  0  0  0  0  0
    8.5652    1.5478   25.3778 N   0  0  0  0  0  0  0  0  0  0  0  0
    6.8048   -7.5457   17.8752 C   0  0  0  0  0  0  0  0  0  0  0  0
    6.1721   -8.2186   15.9886 N   0  0  0  0  0  0  0  0  0  0  0  0
   11.1764   -2.6600   19.5604 C   0  0  0  0  0  0  0  0  0  0  0  0
    9.5491   -0.6380   24.1912 C   0  0  0  0  0  0  0  0  0  0  0  0
    7.5337   -6.9256   16.9519 C   0  0  0  0  0  0  0  0  0  0  0  0
    9.6782    0.5671   23.5143 C   0  0  0  0  0  0  0  0  0  0  0  0
    8.4532    0.3482   26.0821 C   0  0  0  0  0  0  0  0  0  0  0  0
   10.4239   -1.7677   22.2230 N   0  0  0  0  0  0  0  0  0  0  0  0
    9.9468   -4.5953   20.1709 C   0  0  0  0  0  0  0  0  0  0  0  0
   10.0366   -3.0590   23.9864 N   0  0  0  0  0  0  0  0  0  0  0  0
    7.1191   -7.3636   15.7739 C   0  0  0  0  0  0  0  0  0  0  0  0
    5.9612   -8.3203   17.2732 N   0  0  0  0  0  0  0  0  0  0  0  0
    8.5296   -5.9814   17.1841 C   0  0  0  0  0  0  0  0  0  0  0  0
    9.1527   -5.2118   16.2116 C   0  0  0  0  0  0  0  0  0  0  0  0
   10.3364   -3.8368   22.9255 O   0  0  0  0  0  0  0  0  0  0  0  0
    9.6947   -4.8407   18.8534 C   0  0  0  0  0  0  0  0  0  0  0  0
    9.1596    1.7042   24.1381 C   0  0  0  0  0  0  0  0  0  0  0  0
   11.0456   -2.9774   18.2694 N   0  0  0  0  0  0  0  0  0  0  0  0
   10.4788   -3.0457   21.8593 C   0  0  0  0  0  0  0  0  0  0  0  0
    8.8693   -5.8099   18.4657 N   0  0  0  0  0  0  0  0  0  0  0  0
    8.9892   -0.7926   25.4573 C   0  0  0  0  0  0  0  0  0  0  0  0
   10.5677   -3.4462   20.5323 C   0  0  0  0  0  0  0  0  0  0  0  0
  1  8  1  0
  1 12  4  0
  1 14  4  0
  2  3  4  0
  2 18  4  0
  3 20  4  0
  3 22  4  0
  4 11  4  0
  4 21  4  0
  5  9  4  0
  5 16  4  0
  6 15  4  0
  6 16  4  0
  7 22  4  0
  7 26  4  0
  8 10  4  0
  8 25  4  0
  9 15  4  0
  9 17  1  0
 10 21  4  0
 11 25  4  0
 12 23  4  0
 13 20  4  0
 13 26  4  0
 14 19  4  0
 17 18  4  0
 17 24  4  0
 19 23  4  0
 20 24  4  0
 23 26  1  0
M  END
$$$$

 Created by Python create_sdf_string function

 26 30  0  0  0  0  0  0  0  0999 V2000
   10.0084   -1.8019   23.4945 C   0  0  0  0  0  0  0  0  0  0  0  0
   10.0005   -4.2520   16.5631 C   0  0  0  0  0  0  0  0  0  0  0  0
   10.2759   -4.0036   17.8845 C   0  0  0  0  0  0  0  0  0  0  0  0
    8.5652    1.5478   25.3778 N   0  0  0  0  0  0  0  0  0  0  0  0
    6.8048   -7.5457   17.8752 C   0  0  0  0  0  0  0  0  0  0  0  0
    6.1721   -8.2186   15.9886 N   0  0  0  0  0  0  0  0  0  0  0  0
   11.1764   -2.6600   19.5604 C   0  0  0  0  0  0  0  0  0  0  0  0
    9.5491   -0.6380   24.1912 C   0  0  0  0  0  0  0  0  0  0  0  0
    7.5337   -6.9256   16.9519 C   0  0  0  0  0  0  0  0  0  0  0  0
    9.6782    0.5671   23.5143 C   0  0  0  0  0  0  0  0  0  0  0  0
    8.4532    0.3482   26.0821 C   0  0  0  0  0  0  0  0  0  0  0  0
   10.4239   -1.7677   22.2230 N   0  0  0  0  0  0  0  0  0  0  0  0
    9.9468   -4.5953   20.1709 C   0  0  0  0  0  0  0  0  0  0  0  0
   10.0366   -3.0590   23.9864 N   0  0  0  0  0  0  0  0  0  0  0  0
    7.1191   -7.3636   15.7739 C   0  0  0  0  0  0  0  0  0  0  0  0
    5.9612   -8.3203   17.2732 N   0  0  0  0  0  0  0  0  0  0  0  0
    8.5296   -5.9814   17.1841 C   0  0  0  0  0  0  0  0  0  0  0  0
    9.1527   -5.2118   16.2116 C   0  0  0  0  0  0  0  0  0  0  0  0
   10.3364   -3.8368   22.9255 O   0  0  0  0  0  0  0  0  0  0  0  0
    9.6947   -4.8407   18.8534 C   0  0  0  0  0  0  0  0  0  0  0  0
    9.1596    1.7042   24.1381 C   0  0  0  0  0  0  0  0  0  0  0  0
   11.0456   -2.9774   18.2694 N   0  0  0  0  0  0  0  0  0  0  0  0
   10.4788   -3.0457   21.8593 C   0  0  0  0  0  0  0  0  0  0  0  0
    8.8693   -5.8099   18.4657 N   0  0  0  0  0  0  0  0  0  0  0  0
    8.9892   -0.7926   25.4573 C   0  0  0  0  0  0  0  0  0  0  0  0
   10.5677   -3.4462   20.5323 C   0  0  0  0  0  0  0  0  0  0  0  0
  1  8  1  0
  1 12  4  0
  1 14  4  0
  2  3  4  0
  2 18  4  0
  3 20  4  0
  3 22  4  0
  4 11  4  0
  4 21  4  0
  5  9  4  0
  5 16  4  0
  6 15  4  0
  6 16  4  0
  7 22  4  0
  7 26  4  0
  8 10  4  0
  8 25  4  0
  9 15  4  0
  9 17  1  0
 10 21  4  0
 11 25  4  0
 12 23  4  0
 13 20  4  0
 13 26  4  0
 14 19  4  0
 17 18  4  0
 17 24  4  0
 19 23  4  0
 20 24  4  0
 23 26  1  0
M  END
$$$$

 Created by Python create_sdf_string function

 26 30  0  0  0  0  0  0  0  0999 V2000
   10.0084   -1.8019   23.4945 C   0  0  0  0  0  0  0  0  0  0  0  0
   10.0005   -4.2520   16.5631 C   0  0  0  0  0  0  0  0  0  0  0  0
   10.2759   -4.0036   17.8845 C   0  0  0  0  0  0  0  0  0  0  0  0
    8.5652    1.5478   25.3778 N   0  0  0  0  0  0  0  0  0  0  0  0
    6.8048   -7.5457   17.8752 C   0  0  0  0  0  0  0  0  0  0  0  0
    6.1721   -8.2186   15.9886 N   0  0  0  0  0  0  0  0  0  0  0  0
   11.1764   -2.6600   19.5604 C   0  0  0  0  0  0  0  0  0  0  0  0
    9.5491   -0.6380   24.1912 C   0  0  0  0  0  0  0  0  0  0  0  0
    7.5337   -6.9256   16.9519 C   0  0  0  0  0  0  0  0  0  0  0  0
    9.6782    0.5671   23.5143 C   0  0  0  0  0  0  0  0  0  0  0  0
    8.4532    0.3482   26.0821 C   0  0  0  0  0  0  0  0  0  0  0  0
   10.4239   -1.7677   22.2230 N   0  0  0  0  0  0  0  0  0  0  0  0
    9.9468   -4.5953   20.1709 C   0  0  0  0  0  0  0  0  0  0  0  0
   10.0366   -3.0590   23.9864 N   0  0  0  0  0  0  0  0  0  0  0  0
    7.1191   -7.3636   15.7739 C   0  0  0  0  0  0  0  0  0  0  0  0
    5.9612   -8.3203   17.2732 N   0  0  0  0  0  0  0  0  0  0  0  0
    8.5296   -5.9814   17.1841 C   0  0  0  0  0  0  0  0  0  0  0  0
    9.1527   -5.2118   16.2116 C   0  0  0  0  0  0  0  0  0  0  0  0
   10.3364   -3.8368   22.9255 O   0  0  0  0  0  0  0  0  0  0  0  0
    9.6947   -4.8407   18.8534 C   0  0  0  0  0  0  0  0  0  0  0  0
    9.1596    1.7042   24.1381 C   0  0  0  0  0  0  0  0  0  0  0  0
   11.0456   -2.9774   18.2694 N   0  0  0  0  0  0  0  0  0  0  0  0
   10.4788   -3.0457   21.8593 C   0  0  0  0  0  0  0  0  0  0  0  0
    8.8693   -5.8099   18.4657 N   0  0  0  0  0  0  0  0  0  0  0  0
    8.9892   -0.7926   25.4573 C   0  0  0  0  0  0  0  0  0  0  0  0
   10.5677   -3.4462   20.5323 C   0  0  0  0  0  0  0  0  0  0  0  0
  1  8  1  0
  1 12  4  0
  1 14  4  0
  2  3  4  0
  2 18  4  0
  3 20  4  0
  3 22  4  0
  4 11  4  0
  4 21  4  0
  5  9  4  0
  5 16  4  0
  6 15  4  0
  6 16  4  0
  7 22  4  0
  7 26  4  0
  8 10  4  0
  8 25  4  0
  9 15  4  0
  9 17  1  0
 10 21  4  0
 11 25  4  0
 12 23  4  0
 13 20  4  0
 13 26  4  0
 14 19  4  0
 17 18  4  0
 17 24  4  0
 19 23  4  0
 20 24  4  0
 23 26  1  0
M  END
$$$$

 Created by Python create_sdf_string function

 26 30  0  0  0  0  0  0  0  0999 V2000
   10.0084   -1.8019   23.4945 C   0  0  0  0  0  0  0  0  0  0  0  0
   10.0005   -4.2520   16.5631 C   0  0  0  0  0  0  0  0  0  0  0  0
   10.2759   -4.0036   17.8845 C   0  0  0  0  0  0  0  0  0  0  0  0
    8.5652    1.5478   25.3778 N   0  0  0  0  0  0  0  0  0  0  0  0
    6.8048   -7.5457   17.8752 C   0  0  0  0  0  0  0  0  0  0  0  0
    6.1721   -8.2186   15.9886 N   0  0  0  0  0  0  0  0  0  0  0  0
   11.1764   -2.6600   19.5604 C   0  0  0  0  0  0  0  0  0  0  0  0
    9.5491   -0.6380   24.1912 C   0  0  0  0  0  0  0  0  0  0  0  0
    7.5337   -6.9256   16.9519 C   0  0  0  0  0  0  0  0  0  0  0  0
    9.6782    0.5671   23.5143 C   0  0  0  0  0  0  0  0  0  0  0  0
    8.4532    0.3482   26.0821 C   0  0  0  0  0  0  0  0  0  0  0  0
   10.4239   -1.7677   22.2230 N   0  0  0  0  0  0  0  0  0  0  0  0
    9.9468   -4.5953   20.1709 C   0  0  0  0  0  0  0  0  0  0  0  0
   10.0366   -3.0590   23.9864 N   0  0  0  0  0  0  0  0  0  0  0  0
    7.1191   -7.3636   15.7739 C   0  0  0  0  0  0  0  0  0  0  0  0
    5.9612   -8.3203   17.2732 N   0  0  0  0  0  0  0  0  0  0  0  0
    8.5296   -5.9814   17.1841 C   0  0  0  0  0  0  0  0  0  0  0  0
    9.1527   -5.2118   16.2116 C   0  0  0  0  0  0  0  0  0  0  0  0
   10.3364   -3.8368   22.9255 O   0  0  0  0  0  0  0  0  0  0  0  0
    9.6947   -4.8407   18.8534 C   0  0  0  0  0  0  0  0  0  0  0  0
    9.1596    1.7042   24.1381 C   0  0  0  0  0  0  0  0  0  0  0  0
   11.0456   -2.9774   18.2694 N   0  0  0  0  0  0  0  0  0  0  0  0
   10.4788   -3.0457   21.8593 C   0  0  0  0  0  0  0  0  0  0  0  0
    8.8693   -5.8099   18.4657 N   0  0  0  0  0  0  0  0  0  0  0  0
    8.9892   -0.7926   25.4573 C   0  0  0  0  0  0  0  0  0  0  0  0
   10.5677   -3.4462   20.5323 C   0  0  0  0  0  0  0  0  0  0  0  0
  1  8  1  0
  1 12  4  0
  1 14  4  0
  2  3  4  0
  2 18  4  0
  3 20  4  0
  3 22  4  0
  4 11  4  0
  4 21  4  0
  5  9  4  0
  5 16  4  0
  6 15  4  0
  6 16  4  0
  7 22  4  0
  7 26  4  0
  8 10  4  0
  8 25  4  0
  9 15  4  0
  9 17  1  0
 10 21  4  0
 11 25  4  0
 12 23  4  0
 13 20  4  0
 13 26  4  0
 14 19  4  0
 17 18  4  0
 17 24  4  0
 19 23  4  0
 20 24  4  0
 23 26  1  0
M  END
$$$$

 Created by Python create_sdf_string function

 26 30  0  0  0  0  0  0  0  0999 V2000
   10.0084   -1.8019   23.4945 C   0  0  0  0  0  0  0  0  0  0  0  0
   10.0005   -4.2520   16.5631 C   0  0  0  0  0  0  0  0  0  0  0  0
   10.2759   -4.0036   17.8845 C   0  0  0  0  0  0  0  0  0  0  0  0
    8.5652    1.5478   25.3778 N   0  0  0  0  0  0  0  0  0  0  0  0
    6.8048   -7.5457   17.8752 C   0  0  0  0  0  0  0  0  0  0  0  0
    6.1721   -8.2186   15.9886 N   0  0  0  0  0  0  0  0  0  0  0  0
   11.1764   -2.6600   19.5604 C   0  0  0  0  0  0  0  0  0  0  0  0
    9.5491   -0.6380   24.1912 C   0  0  0  0  0  0  0  0  0  0  0  0
    7.5337   -6.9256   16.9519 C   0  0  0  0  0  0  0  0  0  0  0  0
    9.6782    0.5671   23.5143 C   0  0  0  0  0  0  0  0  0  0  0  0
    8.4532    0.3482   26.0821 C   0  0  0  0  0  0  0  0  0  0  0  0
   10.4239   -1.7677   22.2230 N   0  0  0  0  0  0  0  0  0  0  0  0
    9.9468   -4.5953   20.1709 C   0  0  0  0  0  0  0  0  0  0  0  0
   10.0366   -3.0590   23.9864 N   0  0  0  0  0  0  0  0  0  0  0  0
    7.1191   -7.3636   15.7739 C   0  0  0  0  0  0  0  0  0  0  0  0
    5.9612   -8.3203   17.2732 N   0  0  0  0  0  0  0  0  0  0  0  0
    8.5296   -5.9814   17.1841 C   0  0  0  0  0  0  0  0  0  0  0  0
    9.1527   -5.2118   16.2116 C   0  0  0  0  0  0  0  0  0  0  0  0
   10.3364   -3.8368   22.9255 O   0  0  0  0  0  0  0  0  0  0  0  0
    9.6947   -4.8407   18.8534 C   0  0  0  0  0  0  0  0  0  0  0  0
    9.1596    1.7042   24.1381 C   0  0  0  0  0  0  0  0  0  0  0  0
   11.0456   -2.9774   18.2694 N   0  0  0  0  0  0  0  0  0  0  0  0
   10.4788   -3.0457   21.8593 C   0  0  0  0  0  0  0  0  0  0  0  0
    8.8693   -5.8099   18.4657 N   0  0  0  0  0  0  0  0  0  0  0  0
    8.9892   -0.7926   25.4573 C   0  0  0  0  0  0  0  0  0  0  0  0
   10.5677   -3.4462   20.5323 C   0  0  0  0  0  0  0  0  0  0  0  0
  1  8  1  0
  1 12  4  0
  1 14  4  0
  2  3  4  0
  2 18  4  0
  3 20  4  0
  3 22  4  0
  4 11  4  0
  4 21  4  0
  5  9  4  0
  5 16  4  0
  6 15  4  0
  6 16  4  0
  7 22  4  0
  7 26  4  0
  8 10  4  0
  8 25  4  0
  9 15  4  0
  9 17  1  0
 10 21  4  0
 11 25  4  0
 12 23  4  0
 13 20  4  0
 13 26  4  0
 14 19  4  0
 17 18  4  0
 17 24  4  0
 19 23  4  0
 20 24  4  0
 23 26  1  0
M  END
$$$$

 Created by Python create_sdf_string function

 26 30  0  0  0  0  0  0  0  0999 V2000
   10.0084   -1.8019   23.4945 C   0  0  0  0  0  0  0  0  0  0  0  0
   10.0005   -4.2520   16.5631 C   0  0  0  0  0  0  0  0  0  0  0  0
   10.2759   -4.0036   17.8845 C   0  0  0  0  0  0  0  0  0  0  0  0
    8.5652    1.5478   25.3778 N   0  0  0  0  0  0  0  0  0  0  0  0
    6.8048   -7.5457   17.8752 C   0  0  0  0  0  0  0  0  0  0  0  0
    6.1721   -8.2186   15.9886 N   0  0  0  0  0  0  0  0  0  0  0  0
   11.1764   -2.6600   19.5604 C   0  0  0  0  0  0  0  0  0  0  0  0
    9.5491   -0.6380   24.1912 C   0  0  0  0  0  0  0  0  0  0  0  0
    7.5337   -6.9256   16.9519 C   0  0  0  0  0  0  0  0  0  0  0  0
    9.6782    0.5671   23.5143 C   0  0  0  0  0  0  0  0  0  0  0  0
    8.4532    0.3482   26.0821 C   0  0  0  0  0  0  0  0  0  0  0  0
   10.4239   -1.7677   22.2230 N   0  0  0  0  0  0  0  0  0  0  0  0
    9.9468   -4.5953   20.1709 C   0  0  0  0  0  0  0  0  0  0  0  0
   10.0366   -3.0590   23.9864 N   0  0  0  0  0  0  0  0  0  0  0  0
    7.1191   -7.3636   15.7739 C   0  0  0  0  0  0  0  0  0  0  0  0
    5.9612   -8.3203   17.2732 N   0  0  0  0  0  0  0  0  0  0  0  0
    8.5296   -5.9814   17.1841 C   0  0  0  0  0  0  0  0  0  0  0  0
    9.1527   -5.2118   16.2116 C   0  0  0  0  0  0  0  0  0  0  0  0
   10.3364   -3.8368   22.9255 O   0  0  0  0  0  0  0  0  0  0  0  0
    9.6947   -4.8407   18.8534 C   0  0  0  0  0  0  0  0  0  0  0  0
    9.1596    1.7042   24.1381 C   0  0  0  0  0  0  0  0  0  0  0  0
   11.0456   -2.9774   18.2694 N   0  0  0  0  0  0  0  0  0  0  0  0
   10.4788   -3.0457   21.8593 C   0  0  0  0  0  0  0  0  0  0  0  0
    8.8693   -5.8099   18.4657 N   0  0  0  0  0  0  0  0  0  0  0  0
    8.9892   -0.7926   25.4573 C   0  0  0  0  0  0  0  0  0  0  0  0
   10.5677   -3.4462   20.5323 C   0  0  0  0  0  0  0  0  0  0  0  0
  1  8  1  0
  1 12  4  0
  1 14  4  0
  2  3  4  0
  2 18  4  0
  3 20  4  0
  3 22  4  0
  4 11  4  0
  4 21  4  0
  5  9  4  0
  5 16  4  0
  6 15  4  0
  6 16  4  0
  7 22  4  0
  7 26  4  0
  8 10  4  0
  8 25  4  0
  9 15  4  0
  9 17  1  0
 10 21  4  0
 11 25  4  0
 12 23  4  0
 13 20  4  0
 13 26  4  0
 14 19  4  0
 17 18  4  0
 17 24  4  0
 19 23  4  0
 20 24  4  0
 23 26  1  0
M  END
$$$$

 Created by Python create_sdf_string function

 26 30  0  0  0  0  0  0  0  0999 V2000
   10.0084   -1.8019   23.4945 C   0  0  0  0  0  0  0  0  0  0  0  0
   10.0005   -4.2520   16.5631 C   0  0  0  0  0  0  0  0  0  0  0  0
   10.2759   -4.0036   17.8845 C   0  0  0  0  0  0  0  0  0  0  0  0
    8.5652    1.5478   25.3778 N   0  0  0  0  0  0  0  0  0  0  0  0
    6.8048   -7.5457   17.8752 C   0  0  0  0  0  0  0  0  0  0  0  0
    6.1721   -8.2186   15.9886 N   0  0  0  0  0  0  0  0  0  0  0  0
   11.1764   -2.6600   19.5604 C   0  0  0  0  0  0  0  0  0  0  0  0
    9.5491   -0.6380   24.1912 C   0  0  0  0  0  0  0  0  0  0  0  0
    7.5337   -6.9256   16.9519 C   0  0  0  0  0  0  0  0  0  0  0  0
    9.6782    0.5671   23.5143 C   0  0  0  0  0  0  0  0  0  0  0  0
    8.4532    0.3482   26.0821 C   0  0  0  0  0  0  0  0  0  0  0  0
   10.4239   -1.7677   22.2230 N   0  0  0  0  0  0  0  0  0  0  0  0
    9.9468   -4.5953   20.1709 C   0  0  0  0  0  0  0  0  0  0  0  0
   10.0366   -3.0590   23.9864 N   0  0  0  0  0  0  0  0  0  0  0  0
    7.1191   -7.3636   15.7739 C   0  0  0  0  0  0  0  0  0  0  0  0
    5.9612   -8.3203   17.2732 N   0  0  0  0  0  0  0  0  0  0  0  0
    8.5296   -5.9814   17.1841 C   0  0  0  0  0  0  0  0  0  0  0  0
    9.1527   -5.2118   16.2116 C   0  0  0  0  0  0  0  0  0  0  0  0
   10.3364   -3.8368   22.9255 O   0  0  0  0  0  0  0  0  0  0  0  0
    9.6947   -4.8407   18.8534 C   0  0  0  0  0  0  0  0  0  0  0  0
    9.1596    1.7042   24.1381 C   0  0  0  0  0  0  0  0  0  0  0  0
   11.0456   -2.9774   18.2694 N   0  0  0  0  0  0  0  0  0  0  0  0
   10.4788   -3.0457   21.8593 C   0  0  0  0  0  0  0  0  0  0  0  0
    8.8693   -5.8099   18.4657 N   0  0  0  0  0  0  0  0  0  0  0  0
    8.9892   -0.7926   25.4573 C   0  0  0  0  0  0  0  0  0  0  0  0
   10.5677   -3.4462   20.5323 C   0  0  0  0  0  0  0  0  0  0  0  0
  1  8  1  0
  1 12  4  0
  1 14  4  0
  2  3  4  0
  2 18  4  0
  3 20  4  0
  3 22  4  0
  4 11  4  0
  4 21  4  0
  5  9  4  0
  5 16  4  0
  6 15  4  0
  6 16  4  0
  7 22  4  0
  7 26  4  0
  8 10  4  0
  8 25  4  0
  9 15  4  0
  9 17  1  0
 10 21  4  0
 11 25  4  0
 12 23  4  0
 13 20  4  0
 13 26  4  0
 14 19  4  0
 17 18  4  0
 17 24  4  0
 19 23  4  0
 20 24  4  0
 23 26  1  0
M  END
$$$$

 Created by Python create_sdf_string function

 26 30  0  0  0  0  0  0  0  0999 V2000
   10.0084   -1.8019   23.4945 C   0  0  0  0  0  0  0  0  0  0  0  0
   10.0005   -4.2520   16.5631 C   0  0  0  0  0  0  0  0  0  0  0  0
   10.2759   -4.0036   17.8845 C   0  0  0  0  0  0  0  0  0  0  0  0
    8.5652    1.5478   25.3778 N   0  0  0  0  0  0  0  0  0  0  0  0
    6.8048   -7.5457   17.8752 C   0  0  0  0  0  0  0  0  0  0  0  0
    6.1721   -8.2186   15.9886 N   0  0  0  0  0  0  0  0  0  0  0  0
   11.1764   -2.6600   19.5604 C   0  0  0  0  0  0  0  0  0  0  0  0
    9.5491   -0.6380   24.1912 C   0  0  0  0  0  0  0  0  0  0  0  0
    7.5337   -6.9256   16.9519 C   0  0  0  0  0  0  0  0  0  0  0  0
    9.6782    0.5671   23.5143 C   0  0  0  0  0  0  0  0  0  0  0  0
    8.4532    0.3482   26.0821 C   0  0  0  0  0  0  0  0  0  0  0  0
   10.4239   -1.7677   22.2230 N   0  0  0  0  0  0  0  0  0  0  0  0
    9.9468   -4.5953   20.1709 C   0  0  0  0  0  0  0  0  0  0  0  0
   10.0366   -3.0590   23.9864 N   0  0  0  0  0  0  0  0  0  0  0  0
    7.1191   -7.3636   15.7739 C   0  0  0  0  0  0  0  0  0  0  0  0
    5.9612   -8.3203   17.2732 N   0  0  0  0  0  0  0  0  0  0  0  0
    8.5296   -5.9814   17.1841 C   0  0  0  0  0  0  0  0  0  0  0  0
    9.1527   -5.2118   16.2116 C   0  0  0  0  0  0  0  0  0  0  0  0
   10.3364   -3.8368   22.9255 O   0  0  0  0  0  0  0  0  0  0  0  0
    9.6947   -4.8407   18.8534 C   0  0  0  0  0  0  0  0  0  0  0  0
    9.1596    1.7042   24.1381 C   0  0  0  0  0  0  0  0  0  0  0  0
   11.0456   -2.9774   18.2694 N   0  0  0  0  0  0  0  0  0  0  0  0
   10.4788   -3.0457   21.8593 C   0  0  0  0  0  0  0  0  0  0  0  0
    8.8693   -5.8099   18.4657 N   0  0  0  0  0  0  0  0  0  0  0  0
    8.9892   -0.7926   25.4573 C   0  0  0  0  0  0  0  0  0  0  0  0
   10.5677   -3.4462   20.5323 C   0  0  0  0  0  0  0  0  0  0  0  0
  1  8  1  0
  1 12  4  0
  1 14  4  0
  2  3  4  0
  2 18  4  0
  3 20  4  0
  3 22  4  0
  4 11  4  0
  4 21  4  0
  5  9  4  0
  5 16  4  0
  6 15  4  0
  6 16  4  0
  7 22  4  0
  7 26  4  0
  8 10  4  0
  8 25  4  0
  9 15  4  0
  9 17  1  0
 10 21  4  0
 11 25  4  0
 12 23  4  0
 13 20  4  0
 13 26  4  0
 14 19  4  0
 17 18  4  0
 17 24  4  0
 19 23  4  0
 20 24  4  0
 23 26  1  0
M  END
$$$$

 Created by Python create_sdf_string function

 26 30  0  0  0  0  0  0  0  0999 V2000
   10.0084   -1.8019   23.4945 C   0  0  0  0  0  0  0  0  0  0  0  0
   10.0005   -4.2520   16.5631 C   0  0  0  0  0  0  0  0  0  0  0  0
   10.2759   -4.0036   17.8845 C   0  0  0  0  0  0  0  0  0  0  0  0
    8.5652    1.5478   25.3778 N   0  0  0  0  0  0  0  0  0  0  0  0
    6.8048   -7.5457   17.8752 C   0  0  0  0  0  0  0  0  0  0  0  0
    6.1721   -8.2186   15.9886 N   0  0  0  0  0  0  0  0  0  0  0  0
   11.1764   -2.6600   19.5604 C   0  0  0  0  0  0  0  0  0  0  0  0
    9.5491   -0.6380   24.1912 C   0  0  0  0  0  0  0  0  0  0  0  0
    7.5337   -6.9256   16.9519 C   0  0  0  0  0  0  0  0  0  0  0  0
    9.6782    0.5671   23.5143 C   0  0  0  0  0  0  0  0  0  0  0  0
    8.4532    0.3482   26.0821 C   0  0  0  0  0  0  0  0  0  0  0  0
   10.4239   -1.7677   22.2230 N   0  0  0  0  0  0  0  0  0  0  0  0
    9.9468   -4.5953   20.1709 C   0  0  0  0  0  0  0  0  0  0  0  0
   10.0366   -3.0590   23.9864 N   0  0  0  0  0  0  0  0  0  0  0  0
    7.1191   -7.3636   15.7739 C   0  0  0  0  0  0  0  0  0  0  0  0
    5.9612   -8.3203   17.2732 N   0  0  0  0  0  0  0  0  0  0  0  0
    8.5296   -5.9814   17.1841 C   0  0  0  0  0  0  0  0  0  0  0  0
    9.1527   -5.2118   16.2116 C   0  0  0  0  0  0  0  0  0  0  0  0
   10.3364   -3.8368   22.9255 O   0  0  0  0  0  0  0  0  0  0  0  0
    9.6947   -4.8407   18.8534 C   0  0  0  0  0  0  0  0  0  0  0  0
    9.1596    1.7042   24.1381 C   0  0  0  0  0  0  0  0  0  0  0  0
   11.0456   -2.9774   18.2694 N   0  0  0  0  0  0  0  0  0  0  0  0
   10.4788   -3.0457   21.8593 C   0  0  0  0  0  0  0  0  0  0  0  0
    8.8693   -5.8099   18.4657 N   0  0  0  0  0  0  0  0  0  0  0  0
    8.9892   -0.7926   25.4573 C   0  0  0  0  0  0  0  0  0  0  0  0
   10.5677   -3.4462   20.5323 C   0  0  0  0  0  0  0  0  0  0  0  0
  1  8  1  0
  1 12  4  0
  1 14  4  0
  2  3  4  0
  2 18  4  0
  3 20  4  0
  3 22  4  0
  4 11  4  0
  4 21  4  0
  5  9  4  0
  5 16  4  0
  6 15  4  0
  6 16  4  0
  7 22  4  0
  7 26  4  0
  8 10  4  0
  8 25  4  0
  9 15  4  0
  9 17  1  0
 10 21  4  0
 11 25  4  0
 12 23  4  0
 13 20  4  0
 13 26  4  0
 14 19  4  0
 17 18  4  0
 17 24  4  0
 19 23  4  0
 20 24  4  0
 23 26  1  0
M  END
$$$$

 Created by Python create_sdf_string function

 26 30  0  0  0  0  0  0  0  0999 V2000
   10.0084   -1.8019   23.4945 C   0  0  0  0  0  0  0  0  0  0  0  0
   10.0005   -4.2520   16.5631 C   0  0  0  0  0  0  0  0  0  0  0  0
   10.2759   -4.0036   17.8845 C   0  0  0  0  0  0  0  0  0  0  0  0
    8.5652    1.5478   25.3778 N   0  0  0  0  0  0  0  0  0  0  0  0
    6.8048   -7.5457   17.8752 C   0  0  0  0  0  0  0  0  0  0  0  0
    6.1721   -8.2186   15.9886 N   0  0  0  0  0  0  0  0  0  0  0  0
   11.1764   -2.6600   19.5604 C   0  0  0  0  0  0  0  0  0  0  0  0
    9.5491   -0.6380   24.1912 C   0  0  0  0  0  0  0  0  0  0  0  0
    7.5337   -6.9256   16.9519 C   0  0  0  0  0  0  0  0  0  0  0  0
    9.6782    0.5671   23.5143 C   0  0  0  0  0  0  0  0  0  0  0  0
    8.4532    0.3482   26.0821 C   0  0  0  0  0  0  0  0  0  0  0  0
   10.4239   -1.7677   22.2230 N   0  0  0  0  0  0  0  0  0  0  0  0
    9.9468   -4.5953   20.1709 C   0  0  0  0  0  0  0  0  0  0  0  0
   10.0366   -3.0590   23.9864 N   0  0  0  0  0  0  0  0  0  0  0  0
    7.1191   -7.3636   15.7739 C   0  0  0  0  0  0  0  0  0  0  0  0
    5.9612   -8.3203   17.2732 N   0  0  0  0  0  0  0  0  0  0  0  0
    8.5296   -5.9814   17.1841 C   0  0  0  0  0  0  0  0  0  0  0  0
    9.1527   -5.2118   16.2116 C   0  0  0  0  0  0  0  0  0  0  0  0
   10.3364   -3.8368   22.9255 O   0  0  0  0  0  0  0  0  0  0  0  0
    9.6947   -4.8407   18.8534 C   0  0  0  0  0  0  0  0  0  0  0  0
    9.1596    1.7042   24.1381 C   0  0  0  0  0  0  0  0  0  0  0  0
   11.0456   -2.9774   18.2694 N   0  0  0  0  0  0  0  0  0  0  0  0
   10.4788   -3.0457   21.8593 C   0  0  0  0  0  0  0  0  0  0  0  0
    8.8693   -5.8099   18.4657 N   0  0  0  0  0  0  0  0  0  0  0  0
    8.9892   -0.7926   25.4573 C   0  0  0  0  0  0  0  0  0  0  0  0
   10.5677   -3.4462   20.5323 C   0  0  0  0  0  0  0  0  0  0  0  0
  1  8  1  0
  1 12  4  0
  1 14  4  0
  2  3  4  0
  2 18  4  0
  3 20  4  0
  3 22  4  0
  4 11  4  0
  4 21  4  0
  5  9  4  0
  5 16  4  0
  6 15  4  0
  6 16  4  0
  7 22  4  0
  7 26  4  0
  8 10  4  0
  8 25  4  0
  9 15  4  0
  9 17  1  0
 10 21  4  0
 11 25  4  0
 12 23  4  0
 13 20  4  0
 13 26  4  0
 14 19  4  0
 17 18  4  0
 17 24  4  0
 19 23  4  0
 20 24  4  0
 23 26  1  0
M  END
$$$$

 Created by Python create_sdf_string function

 26 30  0  0  0  0  0  0  0  0999 V2000
   10.0084   -1.8019   23.4945 C   0  0  0  0  0  0  0  0  0  0  0  0
   10.0005   -4.2520   16.5631 C   0  0  0  0  0  0  0  0  0  0  0  0
   10.2759   -4.0036   17.8845 C   0  0  0  0  0  0  0  0  0  0  0  0
    8.5652    1.5478   25.3778 N   0  0  0  0  0  0  0  0  0  0  0  0
    6.8048   -7.5457   17.8752 C   0  0  0  0  0  0  0  0  0  0  0  0
    6.1721   -8.2186   15.9886 N   0  0  0  0  0  0  0  0  0  0  0  0
   11.1764   -2.6600   19.5604 C   0  0  0  0  0  0  0  0  0  0  0  0
    9.5491   -0.6380   24.1912 C   0  0  0  0  0  0  0  0  0  0  0  0
    7.5337   -6.9256   16.9519 C   0  0  0  0  0  0  0  0  0  0  0  0
    9.6782    0.5671   23.5143 C   0  0  0  0  0  0  0  0  0  0  0  0
    8.4532    0.3482   26.0821 C   0  0  0  0  0  0  0  0  0  0  0  0
   10.4239   -1.7677   22.2230 N   0  0  0  0  0  0  0  0  0  0  0  0
    9.9468   -4.5953   20.1709 C   0  0  0  0  0  0  0  0  0  0  0  0
   10.0366   -3.0590   23.9864 N   0  0  0  0  0  0  0  0  0  0  0  0
    7.1191   -7.3636   15.7739 C   0  0  0  0  0  0  0  0  0  0  0  0
    5.9612   -8.3203   17.2732 N   0  0  0  0  0  0  0  0  0  0  0  0
    8.5296   -5.9814   17.1841 C   0  0  0  0  0  0  0  0  0  0  0  0
    9.1527   -5.2118   16.2116 C   0  0  0  0  0  0  0  0  0  0  0  0
   10.3364   -3.8368   22.9255 O   0  0  0  0  0  0  0  0  0  0  0  0
    9.6947   -4.8407   18.8534 C   0  0  0  0  0  0  0  0  0  0  0  0
    9.1596    1.7042   24.1381 C   0  0  0  0  0  0  0  0  0  0  0  0
   11.0456   -2.9774   18.2694 N   0  0  0  0  0  0  0  0  0  0  0  0
   10.4788   -3.0457   21.8593 C   0  0  0  0  0  0  0  0  0  0  0  0
    8.8693   -5.8099   18.4657 N   0  0  0  0  0  0  0  0  0  0  0  0
    8.9892   -0.7926   25.4573 C   0  0  0  0  0  0  0  0  0  0  0  0
   10.5677   -3.4462   20.5323 C   0  0  0  0  0  0  0  0  0  0  0  0
  1  8  1  0
  1 12  4  0
  1 14  4  0
  2  3  4  0
  2 18  4  0
  3 20  4  0
  3 22  4  0
  4 11  4  0
  4 21  4  0
  5  9  4  0
  5 16  4  0
  6 15  4  0
  6 16  4  0
  7 22  4  0
  7 26  4  0
  8 10  4  0
  8 25  4  0
  9 15  4  0
  9 17  1  0
 10 21  4  0
 11 25  4  0
 12 23  4  0
 13 20  4  0
 13 26  4  0
 14 19  4  0
 17 18  4  0
 17 24  4  0
 19 23  4  0
 20 24  4  0
 23 26  1  0
M  END
$$$$

 Created by Python create_sdf_string function

 26 30  0  0  0  0  0  0  0  0999 V2000
   10.0084   -1.8019   23.4945 C   0  0  0  0  0  0  0  0  0  0  0  0
   10.0005   -4.2520   16.5631 C   0  0  0  0  0  0  0  0  0  0  0  0
   10.2759   -4.0036   17.8845 C   0  0  0  0  0  0  0  0  0  0  0  0
    8.5652    1.5478   25.3778 N   0  0  0  0  0  0  0  0  0  0  0  0
    6.8048   -7.5457   17.8752 C   0  0  0  0  0  0  0  0  0  0  0  0
    6.1721   -8.2186   15.9886 N   0  0  0  0  0  0  0  0  0  0  0  0
   11.1764   -2.6600   19.5604 C   0  0  0  0  0  0  0  0  0  0  0  0
    9.5491   -0.6380   24.1912 C   0  0  0  0  0  0  0  0  0  0  0  0
    7.5337   -6.9256   16.9519 C   0  0  0  0  0  0  0  0  0  0  0  0
    9.6782    0.5671   23.5143 C   0  0  0  0  0  0  0  0  0  0  0  0
    8.4532    0.3482   26.0821 C   0  0  0  0  0  0  0  0  0  0  0  0
   10.4239   -1.7677   22.2230 N   0  0  0  0  0  0  0  0  0  0  0  0
    9.9468   -4.5953   20.1709 C   0  0  0  0  0  0  0  0  0  0  0  0
   10.0366   -3.0590   23.9864 N   0  0  0  0  0  0  0  0  0  0  0  0
    7.1191   -7.3636   15.7739 C   0  0  0  0  0  0  0  0  0  0  0  0
    5.9612   -8.3203   17.2732 N   0  0  0  0  0  0  0  0  0  0  0  0
    8.5296   -5.9814   17.1841 C   0  0  0  0  0  0  0  0  0  0  0  0
    9.1527   -5.2118   16.2116 C   0  0  0  0  0  0  0  0  0  0  0  0
   10.3364   -3.8368   22.9255 O   0  0  0  0  0  0  0  0  0  0  0  0
    9.6947   -4.8407   18.8534 C   0  0  0  0  0  0  0  0  0  0  0  0
    9.1596    1.7042   24.1381 C   0  0  0  0  0  0  0  0  0  0  0  0
   11.0456   -2.9774   18.2694 N   0  0  0  0  0  0  0  0  0  0  0  0
   10.4788   -3.0457   21.8593 C   0  0  0  0  0  0  0  0  0  0  0  0
    8.8693   -5.8099   18.4657 N   0  0  0  0  0  0  0  0  0  0  0  0
    8.9892   -0.7926   25.4573 C   0  0  0  0  0  0  0  0  0  0  0  0
   10.5677   -3.4462   20.5323 C   0  0  0  0  0  0  0  0  0  0  0  0
  1  8  1  0
  1 12  4  0
  1 14  4  0
  2  3  4  0
  2 18  4  0
  3 20  4  0
  3 22  4  0
  4 11  4  0
  4 21  4  0
  5  9  4  0
  5 16  4  0
  6 15  4  0
  6 16  4  0
  7 22  4  0
  7 26  4  0
  8 10  4  0
  8 25  4  0
  9 15  4  0
  9 17  1  0
 10 21  4  0
 11 25  4  0
 12 23  4  0
 13 20  4  0
 13 26  4  0
 14 19  4  0
 17 18  4  0
 17 24  4  0
 19 23  4  0
 20 24  4  0
 23 26  1  0
M  END
$$$$

 Created by Python create_sdf_string function

 26 30  0  0  0  0  0  0  0  0999 V2000
   10.0084   -1.8019   23.4945 C   0  0  0  0  0  0  0  0  0  0  0  0
   10.0005   -4.2520   16.5631 C   0  0  0  0  0  0  0  0  0  0  0  0
   10.2759   -4.0036   17.8845 C   0  0  0  0  0  0  0  0  0  0  0  0
    8.5652    1.5478   25.3778 N   0  0  0  0  0  0  0  0  0  0  0  0
    6.8048   -7.5457   17.8752 C   0  0  0  0  0  0  0  0  0  0  0  0
    6.1721   -8.2186   15.9886 N   0  0  0  0  0  0  0  0  0  0  0  0
   11.1764   -2.6600   19.5604 C   0  0  0  0  0  0  0  0  0  0  0  0
    9.5491   -0.6380   24.1912 C   0  0  0  0  0  0  0  0  0  0  0  0
    7.5337   -6.9256   16.9519 C   0  0  0  0  0  0  0  0  0  0  0  0
    9.6782    0.5671   23.5143 C   0  0  0  0  0  0  0  0  0  0  0  0
    8.4532    0.3482   26.0821 C   0  0  0  0  0  0  0  0  0  0  0  0
   10.4239   -1.7677   22.2230 N   0  0  0  0  0  0  0  0  0  0  0  0
    9.9468   -4.5953   20.1709 C   0  0  0  0  0  0  0  0  0  0  0  0
   10.0366   -3.0590   23.9864 N   0  0  0  0  0  0  0  0  0  0  0  0
    7.1191   -7.3636   15.7739 C   0  0  0  0  0  0  0  0  0  0  0  0
    5.9612   -8.3203   17.2732 N   0  0  0  0  0  0  0  0  0  0  0  0
    8.5296   -5.9814   17.1841 C   0  0  0  0  0  0  0  0  0  0  0  0
    9.1527   -5.2118   16.2116 C   0  0  0  0  0  0  0  0  0  0  0  0
   10.3364   -3.8368   22.9255 O   0  0  0  0  0  0  0  0  0  0  0  0
    9.6947   -4.8407   18.8534 C   0  0  0  0  0  0  0  0  0  0  0  0
    9.1596    1.7042   24.1381 C   0  0  0  0  0  0  0  0  0  0  0  0
   11.0456   -2.9774   18.2694 N   0  0  0  0  0  0  0  0  0  0  0  0
   10.4788   -3.0457   21.8593 C   0  0  0  0  0  0  0  0  0  0  0  0
    8.8693   -5.8099   18.4657 N   0  0  0  0  0  0  0  0  0  0  0  0
    8.9892   -0.7926   25.4573 C   0  0  0  0  0  0  0  0  0  0  0  0
   10.5677   -3.4462   20.5323 C   0  0  0  0  0  0  0  0  0  0  0  0
  1  8  1  0
  1 12  4  0
  1 14  4  0
  2  3  4  0
  2 18  4  0
  3 20  4  0
  3 22  4  0
  4 11  4  0
  4 21  4  0
  5  9  4  0
  5 16  4  0
  6 15  4  0
  6 16  4  0
  7 22  4  0
  7 26  4  0
  8 10  4  0
  8 25  4  0
  9 15  4  0
  9 17  1  0
 10 21  4  0
 11 25  4  0
 12 23  4  0
 13 20  4  0
 13 26  4  0
 14 19  4  0
 17 18  4  0
 17 24  4  0
 19 23  4  0
 20 24  4  0
 23 26  1  0
M  END
$$$$

 Created by Python create_sdf_string function

 26 30  0  0  0  0  0  0  0  0999 V2000
   10.0084   -1.8019   23.4945 C   0  0  0  0  0  0  0  0  0  0  0  0
   10.0005   -4.2520   16.5631 C   0  0  0  0  0  0  0  0  0  0  0  0
   10.2759   -4.0036   17.8845 C   0  0  0  0  0  0  0  0  0  0  0  0
    8.5652    1.5478   25.3778 N   0  0  0  0  0  0  0  0  0  0  0  0
    6.8048   -7.5457   17.8752 C   0  0  0  0  0  0  0  0  0  0  0  0
    6.1721   -8.2186   15.9886 N   0  0  0  0  0  0  0  0  0  0  0  0
   11.1764   -2.6600   19.5604 C   0  0  0  0  0  0  0  0  0  0  0  0
    9.5491   -0.6380   24.1912 C   0  0  0  0  0  0  0  0  0  0  0  0
    7.5337   -6.9256   16.9519 C   0  0  0  0  0  0  0  0  0  0  0  0
    9.6782    0.5671   23.5143 C   0  0  0  0  0  0  0  0  0  0  0  0
    8.4532    0.3482   26.0821 C   0  0  0  0  0  0  0  0  0  0  0  0
   10.4239   -1.7677   22.2230 N   0  0  0  0  0  0  0  0  0  0  0  0
    9.9468   -4.5953   20.1709 C   0  0  0  0  0  0  0  0  0  0  0  0
   10.0366   -3.0590   23.9864 N   0  0  0  0  0  0  0  0  0  0  0  0
    7.1191   -7.3636   15.7739 C   0  0  0  0  0  0  0  0  0  0  0  0
    5.9612   -8.3203   17.2732 N   0  0  0  0  0  0  0  0  0  0  0  0
    8.5296   -5.9814   17.1841 C   0  0  0  0  0  0  0  0  0  0  0  0
    9.1527   -5.2118   16.2116 C   0  0  0  0  0  0  0  0  0  0  0  0
   10.3364   -3.8368   22.9255 O   0  0  0  0  0  0  0  0  0  0  0  0
    9.6947   -4.8407   18.8534 C   0  0  0  0  0  0  0  0  0  0  0  0
    9.1596    1.7042   24.1381 C   0  0  0  0  0  0  0  0  0  0  0  0
   11.0456   -2.9774   18.2694 N   0  0  0  0  0  0  0  0  0  0  0  0
   10.4788   -3.0457   21.8593 C   0  0  0  0  0  0  0  0  0  0  0  0
    8.8693   -5.8099   18.4657 N   0  0  0  0  0  0  0  0  0  0  0  0
    8.9892   -0.7926   25.4573 C   0  0  0  0  0  0  0  0  0  0  0  0
   10.5677   -3.4462   20.5323 C   0  0  0  0  0  0  0  0  0  0  0  0
  1  8  1  0
  1 12  4  0
  1 14  4  0
  2  3  4  0
  2 18  4  0
  3 20  4  0
  3 22  4  0
  4 11  4  0
  4 21  4  0
  5  9  4  0
  5 16  4  0
  6 15  4  0
  6 16  4  0
  7 22  4  0
  7 26  4  0
  8 10  4  0
  8 25  4  0
  9 15  4  0
  9 17  1  0
 10 21  4  0
 11 25  4  0
 12 23  4  0
 13 20  4  0
 13 26  4  0
 14 19  4  0
 17 18  4  0
 17 24  4  0
 19 23  4  0
 20 24  4  0
 23 26  1  0
M  END
$$$$

 Created by Python create_sdf_string function

 26 30  0  0  0  0  0  0  0  0999 V2000
   10.0084   -1.8019   23.4945 C   0  0  0  0  0  0  0  0  0  0  0  0
   10.0005   -4.2520   16.5631 C   0  0  0  0  0  0  0  0  0  0  0  0
   10.2759   -4.0036   17.8845 C   0  0  0  0  0  0  0  0  0  0  0  0
    8.5652    1.5478   25.3778 N   0  0  0  0  0  0  0  0  0  0  0  0
    6.8048   -7.5457   17.8752 C   0  0  0  0  0  0  0  0  0  0  0  0
    6.1721   -8.2186   15.9886 N   0  0  0  0  0  0  0  0  0  0  0  0
   11.1764   -2.6600   19.5604 C   0  0  0  0  0  0  0  0  0  0  0  0
    9.5491   -0.6380   24.1912 C   0  0  0  0  0  0  0  0  0  0  0  0
    7.5337   -6.9256   16.9519 C   0  0  0  0  0  0  0  0  0  0  0  0
    9.6782    0.5671   23.5143 C   0  0  0  0  0  0  0  0  0  0  0  0
    8.4532    0.3482   26.0821 C   0  0  0  0  0  0  0  0  0  0  0  0
   10.4239   -1.7677   22.2230 N   0  0  0  0  0  0  0  0  0  0  0  0
    9.9468   -4.5953   20.1709 C   0  0  0  0  0  0  0  0  0  0  0  0
   10.0366   -3.0590   23.9864 N   0  0  0  0  0  0  0  0  0  0  0  0
    7.1191   -7.3636   15.7739 C   0  0  0  0  0  0  0  0  0  0  0  0
    5.9612   -8.3203   17.2732 N   0  0  0  0  0  0  0  0  0  0  0  0
    8.5296   -5.9814   17.1841 C   0  0  0  0  0  0  0  0  0  0  0  0
    9.1527   -5.2118   16.2116 C   0  0  0  0  0  0  0  0  0  0  0  0
   10.3364   -3.8368   22.9255 O   0  0  0  0  0  0  0  0  0  0  0  0
    9.6947   -4.8407   18.8534 C   0  0  0  0  0  0  0  0  0  0  0  0
    9.1596    1.7042   24.1381 C   0  0  0  0  0  0  0  0  0  0  0  0
   11.0456   -2.9774   18.2694 N   0  0  0  0  0  0  0  0  0  0  0  0
   10.4788   -3.0457   21.8593 C   0  0  0  0  0  0  0  0  0  0  0  0
    8.8693   -5.8099   18.4657 N   0  0  0  0  0  0  0  0  0  0  0  0
    8.9892   -0.7926   25.4573 C   0  0  0  0  0  0  0  0  0  0  0  0
   10.5677   -3.4462   20.5323 C   0  0  0  0  0  0  0  0  0  0  0  0
  1  8  1  0
  1 12  4  0
  1 14  4  0
  2  3  4  0
  2 18  4  0
  3 20  4  0
  3 22  4  0
  4 11  4  0
  4 21  4  0
  5  9  4  0
  5 16  4  0
  6 15  4  0
  6 16  4  0
  7 22  4  0
  7 26  4  0
  8 10  4  0
  8 25  4  0
  9 15  4  0
  9 17  1  0
 10 21  4  0
 11 25  4  0
 12 23  4  0
 13 20  4  0
 13 26  4  0
 14 19  4  0
 17 18  4  0
 17 24  4  0
 19 23  4  0
 20 24  4  0
 23 26  1  0
M  END
$$$$

 Created by Python create_sdf_string function

 26 30  0  0  0  0  0  0  0  0999 V2000
   10.0084   -1.8019   23.4945 C   0  0  0  0  0  0  0  0  0  0  0  0
   10.0005   -4.2520   16.5631 C   0  0  0  0  0  0  0  0  0  0  0  0
   10.2759   -4.0036   17.8845 C   0  0  0  0  0  0  0  0  0  0  0  0
    8.5652    1.5478   25.3778 N   0  0  0  0  0  0  0  0  0  0  0  0
    6.8048   -7.5457   17.8752 C   0  0  0  0  0  0  0  0  0  0  0  0
    6.1721   -8.2186   15.9886 N   0  0  0  0  0  0  0  0  0  0  0  0
   11.1764   -2.6600   19.5604 C   0  0  0  0  0  0  0  0  0  0  0  0
    9.5491   -0.6380   24.1912 C   0  0  0  0  0  0  0  0  0  0  0  0
    7.5337   -6.9256   16.9519 C   0  0  0  0  0  0  0  0  0  0  0  0
    9.6782    0.5671   23.5143 C   0  0  0  0  0  0  0  0  0  0  0  0
    8.4532    0.3482   26.0821 C   0  0  0  0  0  0  0  0  0  0  0  0
   10.4239   -1.7677   22.2230 N   0  0  0  0  0  0  0  0  0  0  0  0
    9.9468   -4.5953   20.1709 C   0  0  0  0  0  0  0  0  0  0  0  0
   10.0366   -3.0590   23.9864 N   0  0  0  0  0  0  0  0  0  0  0  0
    7.1191   -7.3636   15.7739 C   0  0  0  0  0  0  0  0  0  0  0  0
    5.9612   -8.3203   17.2732 N   0  0  0  0  0  0  0  0  0  0  0  0
    8.5296   -5.9814   17.1841 C   0  0  0  0  0  0  0  0  0  0  0  0
    9.1527   -5.2118   16.2116 C   0  0  0  0  0  0  0  0  0  0  0  0
   10.3364   -3.8368   22.9255 O   0  0  0  0  0  0  0  0  0  0  0  0
    9.6947   -4.8407   18.8534 C   0  0  0  0  0  0  0  0  0  0  0  0
    9.1596    1.7042   24.1381 C   0  0  0  0  0  0  0  0  0  0  0  0
   11.0456   -2.9774   18.2694 N   0  0  0  0  0  0  0  0  0  0  0  0
   10.4788   -3.0457   21.8593 C   0  0  0  0  0  0  0  0  0  0  0  0
    8.8693   -5.8099   18.4657 N   0  0  0  0  0  0  0  0  0  0  0  0
    8.9892   -0.7926   25.4573 C   0  0  0  0  0  0  0  0  0  0  0  0
   10.5677   -3.4462   20.5323 C   0  0  0  0  0  0  0  0  0  0  0  0
  1  8  1  0
  1 12  4  0
  1 14  4  0
  2  3  4  0
  2 18  4  0
  3 20  4  0
  3 22  4  0
  4 11  4  0
  4 21  4  0
  5  9  4  0
  5 16  4  0
  6 15  4  0
  6 16  4  0
  7 22  4  0
  7 26  4  0
  8 10  4  0
  8 25  4  0
  9 15  4  0
  9 17  1  0
 10 21  4  0
 11 25  4  0
 12 23  4  0
 13 20  4  0
 13 26  4  0
 14 19  4  0
 17 18  4  0
 17 24  4  0
 19 23  4  0
 20 24  4  0
 23 26  1  0
M  END
$$$$

 Created by Python create_sdf_string function

 26 30  0  0  0  0  0  0  0  0999 V2000
   10.0084   -1.8019   23.4945 C   0  0  0  0  0  0  0  0  0  0  0  0
   10.0005   -4.2520   16.5631 C   0  0  0  0  0  0  0  0  0  0  0  0
   10.2759   -4.0036   17.8845 C   0  0  0  0  0  0  0  0  0  0  0  0
    8.5652    1.5478   25.3778 N   0  0  0  0  0  0  0  0  0  0  0  0
    6.8048   -7.5457   17.8752 C   0  0  0  0  0  0  0  0  0  0  0  0
    6.1721   -8.2186   15.9886 N   0  0  0  0  0  0  0  0  0  0  0  0
   11.1764   -2.6600   19.5604 C   0  0  0  0  0  0  0  0  0  0  0  0
    9.5491   -0.6380   24.1912 C   0  0  0  0  0  0  0  0  0  0  0  0
    7.5337   -6.9256   16.9519 C   0  0  0  0  0  0  0  0  0  0  0  0
    9.6782    0.5671   23.5143 C   0  0  0  0  0  0  0  0  0  0  0  0
    8.4532    0.3482   26.0821 C   0  0  0  0  0  0  0  0  0  0  0  0
   10.4239   -1.7677   22.2230 N   0  0  0  0  0  0  0  0  0  0  0  0
    9.9468   -4.5953   20.1709 C   0  0  0  0  0  0  0  0  0  0  0  0
   10.0366   -3.0590   23.9864 N   0  0  0  0  0  0  0  0  0  0  0  0
    7.1191   -7.3636   15.7739 C   0  0  0  0  0  0  0  0  0  0  0  0
    5.9612   -8.3203   17.2732 N   0  0  0  0  0  0  0  0  0  0  0  0
    8.5296   -5.9814   17.1841 C   0  0  0  0  0  0  0  0  0  0  0  0
    9.1527   -5.2118   16.2116 C   0  0  0  0  0  0  0  0  0  0  0  0
   10.3364   -3.8368   22.9255 O   0  0  0  0  0  0  0  0  0  0  0  0
    9.6947   -4.8407   18.8534 C   0  0  0  0  0  0  0  0  0  0  0  0
    9.1596    1.7042   24.1381 C   0  0  0  0  0  0  0  0  0  0  0  0
   11.0456   -2.9774   18.2694 N   0  0  0  0  0  0  0  0  0  0  0  0
   10.4788   -3.0457   21.8593 C   0  0  0  0  0  0  0  0  0  0  0  0
    8.8693   -5.8099   18.4657 N   0  0  0  0  0  0  0  0  0  0  0  0
    8.9892   -0.7926   25.4573 C   0  0  0  0  0  0  0  0  0  0  0  0
   10.5677   -3.4462   20.5323 C   0  0  0  0  0  0  0  0  0  0  0  0
  1  8  1  0
  1 12  4  0
  1 14  4  0
  2  3  4  0
  2 18  4  0
  3 20  4  0
  3 22  4  0
  4 11  4  0
  4 21  4  0
  5  9  4  0
  5 16  4  0
  6 15  4  0
  6 16  4  0
  7 22  4  0
  7 26  4  0
  8 10  4  0
  8 25  4  0
  9 15  4  0
  9 17  1  0
 10 21  4  0
 11 25  4  0
 12 23  4  0
 13 20  4  0
 13 26  4  0
 14 19  4  0
 17 18  4  0
 17 24  4  0
 19 23  4  0
 20 24  4  0
 23 26  1  0
M  END
$$$$

 Created by Python create_sdf_string function

 26 30  0  0  0  0  0  0  0  0999 V2000
   10.0084   -1.8019   23.4945 C   0  0  0  0  0  0  0  0  0  0  0  0
   10.0005   -4.2520   16.5631 C   0  0  0  0  0  0  0  0  0  0  0  0
   10.2759   -4.0036   17.8845 C   0  0  0  0  0  0  0  0  0  0  0  0
    8.5652    1.5478   25.3778 N   0  0  0  0  0  0  0  0  0  0  0  0
    6.8048   -7.5457   17.8752 C   0  0  0  0  0  0  0  0  0  0  0  0
    6.1721   -8.2186   15.9886 N   0  0  0  0  0  0  0  0  0  0  0  0
   11.1764   -2.6600   19.5604 C   0  0  0  0  0  0  0  0  0  0  0  0
    9.5491   -0.6380   24.1912 C   0  0  0  0  0  0  0  0  0  0  0  0
    7.5337   -6.9256   16.9519 C   0  0  0  0  0  0  0  0  0  0  0  0
    9.6782    0.5671   23.5143 C   0  0  0  0  0  0  0  0  0  0  0  0
    8.4532    0.3482   26.0821 C   0  0  0  0  0  0  0  0  0  0  0  0
   10.4239   -1.7677   22.2230 N   0  0  0  0  0  0  0  0  0  0  0  0
    9.9468   -4.5953   20.1709 C   0  0  0  0  0  0  0  0  0  0  0  0
   10.0366   -3.0590   23.9864 N   0  0  0  0  0  0  0  0  0  0  0  0
    7.1191   -7.3636   15.7739 C   0  0  0  0  0  0  0  0  0  0  0  0
    5.9612   -8.3203   17.2732 N   0  0  0  0  0  0  0  0  0  0  0  0
    8.5296   -5.9814   17.1841 C   0  0  0  0  0  0  0  0  0  0  0  0
    9.1527   -5.2118   16.2116 C   0  0  0  0  0  0  0  0  0  0  0  0
   10.3364   -3.8368   22.9255 O   0  0  0  0  0  0  0  0  0  0  0  0
    9.6947   -4.8407   18.8534 C   0  0  0  0  0  0  0  0  0  0  0  0
    9.1596    1.7042   24.1381 C   0  0  0  0  0  0  0  0  0  0  0  0
   11.0456   -2.9774   18.2694 N   0  0  0  0  0  0  0  0  0  0  0  0
   10.4788   -3.0457   21.8593 C   0  0  0  0  0  0  0  0  0  0  0  0
    8.8693   -5.8099   18.4657 N   0  0  0  0  0  0  0  0  0  0  0  0
    8.9892   -0.7926   25.4573 C   0  0  0  0  0  0  0  0  0  0  0  0
   10.5677   -3.4462   20.5323 C   0  0  0  0  0  0  0  0  0  0  0  0
  1  8  1  0
  1 12  4  0
  1 14  4  0
  2  3  4  0
  2 18  4  0
  3 20  4  0
  3 22  4  0
  4 11  4  0
  4 21  4  0
  5  9  4  0
  5 16  4  0
  6 15  4  0
  6 16  4  0
  7 22  4  0
  7 26  4  0
  8 10  4  0
  8 25  4  0
  9 15  4  0
  9 17  1  0
 10 21  4  0
 11 25  4  0
 12 23  4  0
 13 20  4  0
 13 26  4  0
 14 19  4  0
 17 18  4  0
 17 24  4  0
 19 23  4  0
 20 24  4  0
 23 26  1  0
M  END
$$$$

 Created by Python create_sdf_string function

 26 30  0  0  0  0  0  0  0  0999 V2000
   10.0084   -1.8019   23.4945 C   0  0  0  0  0  0  0  0  0  0  0  0
   10.0005   -4.2520   16.5631 C   0  0  0  0  0  0  0  0  0  0  0  0
   10.2759   -4.0036   17.8845 C   0  0  0  0  0  0  0  0  0  0  0  0
    8.5652    1.5478   25.3778 N   0  0  0  0  0  0  0  0  0  0  0  0
    6.8048   -7.5457   17.8752 C   0  0  0  0  0  0  0  0  0  0  0  0
    6.1721   -8.2186   15.9886 N   0  0  0  0  0  0  0  0  0  0  0  0
   11.1764   -2.6600   19.5604 C   0  0  0  0  0  0  0  0  0  0  0  0
    9.5491   -0.6380   24.1912 C   0  0  0  0  0  0  0  0  0  0  0  0
    7.5337   -6.9256   16.9519 C   0  0  0  0  0  0  0  0  0  0  0  0
    9.6782    0.5671   23.5143 C   0  0  0  0  0  0  0  0  0  0  0  0
    8.4532    0.3482   26.0821 C   0  0  0  0  0  0  0  0  0  0  0  0
   10.4239   -1.7677   22.2230 N   0  0  0  0  0  0  0  0  0  0  0  0
    9.9468   -4.5953   20.1709 C   0  0  0  0  0  0  0  0  0  0  0  0
   10.0366   -3.0590   23.9864 N   0  0  0  0  0  0  0  0  0  0  0  0
    7.1191   -7.3636   15.7739 C   0  0  0  0  0  0  0  0  0  0  0  0
    5.9612   -8.3203   17.2732 N   0  0  0  0  0  0  0  0  0  0  0  0
    8.5296   -5.9814   17.1841 C   0  0  0  0  0  0  0  0  0  0  0  0
    9.1527   -5.2118   16.2116 C   0  0  0  0  0  0  0  0  0  0  0  0
   10.3364   -3.8368   22.9255 O   0  0  0  0  0  0  0  0  0  0  0  0
    9.6947   -4.8407   18.8534 C   0  0  0  0  0  0  0  0  0  0  0  0
    9.1596    1.7042   24.1381 C   0  0  0  0  0  0  0  0  0  0  0  0
   11.0456   -2.9774   18.2694 N   0  0  0  0  0  0  0  0  0  0  0  0
   10.4788   -3.0457   21.8593 C   0  0  0  0  0  0  0  0  0  0  0  0
    8.8693   -5.8099   18.4657 N   0  0  0  0  0  0  0  0  0  0  0  0
    8.9892   -0.7926   25.4573 C   0  0  0  0  0  0  0  0  0  0  0  0
   10.5677   -3.4462   20.5323 C   0  0  0  0  0  0  0  0  0  0  0  0
  1  8  1  0
  1 12  4  0
  1 14  4  0
  2  3  4  0
  2 18  4  0
  3 20  4  0
  3 22  4  0
  4 11  4  0
  4 21  4  0
  5  9  4  0
  5 16  4  0
  6 15  4  0
  6 16  4  0
  7 22  4  0
  7 26  4  0
  8 10  4  0
  8 25  4  0
  9 15  4  0
  9 17  1  0
 10 21  4  0
 11 25  4  0
 12 23  4  0
 13 20  4  0
 13 26  4  0
 14 19  4  0
 17 18  4  0
 17 24  4  0
 19 23  4  0
 20 24  4  0
 23 26  1  0
M  END
$$$$

 Created by Python create_sdf_string function

 26 30  0  0  0  0  0  0  0  0999 V2000
   10.0084   -1.8019   23.4945 C   0  0  0  0  0  0  0  0  0  0  0  0
   10.0005   -4.2520   16.5631 C   0  0  0  0  0  0  0  0  0  0  0  0
   10.2759   -4.0036   17.8845 C   0  0  0  0  0  0  0  0  0  0  0  0
    8.5652    1.5478   25.3778 N   0  0  0  0  0  0  0  0  0  0  0  0
    6.8048   -7.5457   17.8752 C   0  0  0  0  0  0  0  0  0  0  0  0
    6.1721   -8.2186   15.9886 N   0  0  0  0  0  0  0  0  0  0  0  0
   11.1764   -2.6600   19.5604 C   0  0  0  0  0  0  0  0  0  0  0  0
    9.5491   -0.6380   24.1912 C   0  0  0  0  0  0  0  0  0  0  0  0
    7.5337   -6.9256   16.9519 C   0  0  0  0  0  0  0  0  0  0  0  0
    9.6782    0.5671   23.5143 C   0  0  0  0  0  0  0  0  0  0  0  0
    8.4532    0.3482   26.0821 C   0  0  0  0  0  0  0  0  0  0  0  0
   10.4239   -1.7677   22.2230 N   0  0  0  0  0  0  0  0  0  0  0  0
    9.9468   -4.5953   20.1709 C   0  0  0  0  0  0  0  0  0  0  0  0
   10.0366   -3.0590   23.9864 N   0  0  0  0  0  0  0  0  0  0  0  0
    7.1191   -7.3636   15.7739 C   0  0  0  0  0  0  0  0  0  0  0  0
    5.9612   -8.3203   17.2732 N   0  0  0  0  0  0  0  0  0  0  0  0
    8.5296   -5.9814   17.1841 C   0  0  0  0  0  0  0  0  0  0  0  0
    9.1527   -5.2118   16.2116 C   0  0  0  0  0  0  0  0  0  0  0  0
   10.3364   -3.8368   22.9255 O   0  0  0  0  0  0  0  0  0  0  0  0
    9.6947   -4.8407   18.8534 C   0  0  0  0  0  0  0  0  0  0  0  0
    9.1596    1.7042   24.1381 C   0  0  0  0  0  0  0  0  0  0  0  0
   11.0456   -2.9774   18.2694 N   0  0  0  0  0  0  0  0  0  0  0  0
   10.4788   -3.0457   21.8593 C   0  0  0  0  0  0  0  0  0  0  0  0
    8.8693   -5.8099   18.4657 N   0  0  0  0  0  0  0  0  0  0  0  0
    8.9892   -0.7926   25.4573 C   0  0  0  0  0  0  0  0  0  0  0  0
   10.5677   -3.4462   20.5323 C   0  0  0  0  0  0  0  0  0  0  0  0
  1  8  1  0
  1 12  4  0
  1 14  4  0
  2  3  4  0
  2 18  4  0
  3 20  4  0
  3 22  4  0
  4 11  4  0
  4 21  4  0
  5  9  4  0
  5 16  4  0
  6 15  4  0
  6 16  4  0
  7 22  4  0
  7 26  4  0
  8 10  4  0
  8 25  4  0
  9 15  4  0
  9 17  1  0
 10 21  4  0
 11 25  4  0
 12 23  4  0
 13 20  4  0
 13 26  4  0
 14 19  4  0
 17 18  4  0
 17 24  4  0
 19 23  4  0
 20 24  4  0
 23 26  1  0
M  END
$$$$

 Created by Python create_sdf_string function

 26 30  0  0  0  0  0  0  0  0999 V2000
   10.0084   -1.8019   23.4945 C   0  0  0  0  0  0  0  0  0  0  0  0
   10.0005   -4.2520   16.5631 C   0  0  0  0  0  0  0  0  0  0  0  0
   10.2759   -4.0036   17.8845 C   0  0  0  0  0  0  0  0  0  0  0  0
    8.5652    1.5478   25.3778 N   0  0  0  0  0  0  0  0  0  0  0  0
    6.8048   -7.5457   17.8752 C   0  0  0  0  0  0  0  0  0  0  0  0
    6.1721   -8.2186   15.9886 N   0  0  0  0  0  0  0  0  0  0  0  0
   11.1764   -2.6600   19.5604 C   0  0  0  0  0  0  0  0  0  0  0  0
    9.5491   -0.6380   24.1912 C   0  0  0  0  0  0  0  0  0  0  0  0
    7.5337   -6.9256   16.9519 C   0  0  0  0  0  0  0  0  0  0  0  0
    9.6782    0.5671   23.5143 C   0  0  0  0  0  0  0  0  0  0  0  0
    8.4532    0.3482   26.0821 C   0  0  0  0  0  0  0  0  0  0  0  0
   10.4239   -1.7677   22.2230 N   0  0  0  0  0  0  0  0  0  0  0  0
    9.9468   -4.5953   20.1709 C   0  0  0  0  0  0  0  0  0  0  0  0
   10.0366   -3.0590   23.9864 N   0  0  0  0  0  0  0  0  0  0  0  0
    7.1191   -7.3636   15.7739 C   0  0  0  0  0  0  0  0  0  0  0  0
    5.9612   -8.3203   17.2732 N   0  0  0  0  0  0  0  0  0  0  0  0
    8.5296   -5.9814   17.1841 C   0  0  0  0  0  0  0  0  0  0  0  0
    9.1527   -5.2118   16.2116 C   0  0  0  0  0  0  0  0  0  0  0  0
   10.3364   -3.8368   22.9255 O   0  0  0  0  0  0  0  0  0  0  0  0
    9.6947   -4.8407   18.8534 C   0  0  0  0  0  0  0  0  0  0  0  0
    9.1596    1.7042   24.1381 C   0  0  0  0  0  0  0  0  0  0  0  0
   11.0456   -2.9774   18.2694 N   0  0  0  0  0  0  0  0  0  0  0  0
   10.4788   -3.0457   21.8593 C   0  0  0  0  0  0  0  0  0  0  0  0
    8.8693   -5.8099   18.4657 N   0  0  0  0  0  0  0  0  0  0  0  0
    8.9892   -0.7926   25.4573 C   0  0  0  0  0  0  0  0  0  0  0  0
   10.5677   -3.4462   20.5323 C   0  0  0  0  0  0  0  0  0  0  0  0
  1  8  1  0
  1 12  4  0
  1 14  4  0
  2  3  4  0
  2 18  4  0
  3 20  4  0
  3 22  4  0
  4 11  4  0
  4 21  4  0
  5  9  4  0
  5 16  4  0
  6 15  4  0
  6 16  4  0
  7 22  4  0
  7 26  4  0
  8 10  4  0
  8 25  4  0
  9 15  4  0
  9 17  1  0
 10 21  4  0
 11 25  4  0
 12 23  4  0
 13 20  4  0
 13 26  4  0
 14 19  4  0
 17 18  4  0
 17 24  4  0
 19 23  4  0
 20 24  4  0
 23 26  1  0
M  END
$$$$

 Created by Python create_sdf_string function

 26 30  0  0  0  0  0  0  0  0999 V2000
   10.0084   -1.8019   23.4945 C   0  0  0  0  0  0  0  0  0  0  0  0
   10.0005   -4.2520   16.5631 C   0  0  0  0  0  0  0  0  0  0  0  0
   10.2759   -4.0036   17.8845 C   0  0  0  0  0  0  0  0  0  0  0  0
    8.5652    1.5478   25.3778 N   0  0  0  0  0  0  0  0  0  0  0  0
    6.8048   -7.5457   17.8752 C   0  0  0  0  0  0  0  0  0  0  0  0
    6.1721   -8.2186   15.9886 N   0  0  0  0  0  0  0  0  0  0  0  0
   11.1764   -2.6600   19.5604 C   0  0  0  0  0  0  0  0  0  0  0  0
    9.5491   -0.6380   24.1912 C   0  0  0  0  0  0  0  0  0  0  0  0
    7.5337   -6.9256   16.9519 C   0  0  0  0  0  0  0  0  0  0  0  0
    9.6782    0.5671   23.5143 C   0  0  0  0  0  0  0  0  0  0  0  0
    8.4532    0.3482   26.0821 C   0  0  0  0  0  0  0  0  0  0  0  0
   10.4239   -1.7677   22.2230 N   0  0  0  0  0  0  0  0  0  0  0  0
    9.9468   -4.5953   20.1709 C   0  0  0  0  0  0  0  0  0  0  0  0
   10.0366   -3.0590   23.9864 N   0  0  0  0  0  0  0  0  0  0  0  0
    7.1191   -7.3636   15.7739 C   0  0  0  0  0  0  0  0  0  0  0  0
    5.9612   -8.3203   17.2732 N   0  0  0  0  0  0  0  0  0  0  0  0
    8.5296   -5.9814   17.1841 C   0  0  0  0  0  0  0  0  0  0  0  0
    9.1527   -5.2118   16.2116 C   0  0  0  0  0  0  0  0  0  0  0  0
   10.3364   -3.8368   22.9255 O   0  0  0  0  0  0  0  0  0  0  0  0
    9.6947   -4.8407   18.8534 C   0  0  0  0  0  0  0  0  0  0  0  0
    9.1596    1.7042   24.1381 C   0  0  0  0  0  0  0  0  0  0  0  0
   11.0456   -2.9774   18.2694 N   0  0  0  0  0  0  0  0  0  0  0  0
   10.4788   -3.0457   21.8593 C   0  0  0  0  0  0  0  0  0  0  0  0
    8.8693   -5.8099   18.4657 N   0  0  0  0  0  0  0  0  0  0  0  0
    8.9892   -0.7926   25.4573 C   0  0  0  0  0  0  0  0  0  0  0  0
   10.5677   -3.4462   20.5323 C   0  0  0  0  0  0  0  0  0  0  0  0
  1  8  1  0
  1 12  4  0
  1 14  4  0
  2  3  4  0
  2 18  4  0
  3 20  4  0
  3 22  4  0
  4 11  4  0
  4 21  4  0
  5  9  4  0
  5 16  4  0
  6 15  4  0
  6 16  4  0
  7 22  4  0
  7 26  4  0
  8 10  4  0
  8 25  4  0
  9 15  4  0
  9 17  1  0
 10 21  4  0
 11 25  4  0
 12 23  4  0
 13 20  4  0
 13 26  4  0
 14 19  4  0
 17 18  4  0
 17 24  4  0
 19 23  4  0
 20 24  4  0
 23 26  1  0
M  END
$$$$

 Created by Python create_sdf_string function

 26 30  0  0  0  0  0  0  0  0999 V2000
   10.0084   -1.8019   23.4945 C   0  0  0  0  0  0  0  0  0  0  0  0
   10.0005   -4.2520   16.5631 C   0  0  0  0  0  0  0  0  0  0  0  0
   10.2759   -4.0036   17.8845 C   0  0  0  0  0  0  0  0  0  0  0  0
    8.5652    1.5478   25.3778 N   0  0  0  0  0  0  0  0  0  0  0  0
    6.8048   -7.5457   17.8752 C   0  0  0  0  0  0  0  0  0  0  0  0
    6.1721   -8.2186   15.9886 N   0  0  0  0  0  0  0  0  0  0  0  0
   11.1764   -2.6600   19.5604 C   0  0  0  0  0  0  0  0  0  0  0  0
    9.5491   -0.6380   24.1912 C   0  0  0  0  0  0  0  0  0  0  0  0
    7.5337   -6.9256   16.9519 C   0  0  0  0  0  0  0  0  0  0  0  0
    9.6782    0.5671   23.5143 C   0  0  0  0  0  0  0  0  0  0  0  0
    8.4532    0.3482   26.0821 C   0  0  0  0  0  0  0  0  0  0  0  0
   10.4239   -1.7677   22.2230 N   0  0  0  0  0  0  0  0  0  0  0  0
    9.9468   -4.5953   20.1709 C   0  0  0  0  0  0  0  0  0  0  0  0
   10.0366   -3.0590   23.9864 N   0  0  0  0  0  0  0  0  0  0  0  0
    7.1191   -7.3636   15.7739 C   0  0  0  0  0  0  0  0  0  0  0  0
    5.9612   -8.3203   17.2732 N   0  0  0  0  0  0  0  0  0  0  0  0
    8.5296   -5.9814   17.1841 C   0  0  0  0  0  0  0  0  0  0  0  0
    9.1527   -5.2118   16.2116 C   0  0  0  0  0  0  0  0  0  0  0  0
   10.3364   -3.8368   22.9255 O   0  0  0  0  0  0  0  0  0  0  0  0
    9.6947   -4.8407   18.8534 C   0  0  0  0  0  0  0  0  0  0  0  0
    9.1596    1.7042   24.1381 C   0  0  0  0  0  0  0  0  0  0  0  0
   11.0456   -2.9774   18.2694 N   0  0  0  0  0  0  0  0  0  0  0  0
   10.4788   -3.0457   21.8593 C   0  0  0  0  0  0  0  0  0  0  0  0
    8.8693   -5.8099   18.4657 N   0  0  0  0  0  0  0  0  0  0  0  0
    8.9892   -0.7926   25.4573 C   0  0  0  0  0  0  0  0  0  0  0  0
   10.5677   -3.4462   20.5323 C   0  0  0  0  0  0  0  0  0  0  0  0
  1  8  1  0
  1 12  4  0
  1 14  4  0
  2  3  4  0
  2 18  4  0
  3 20  4  0
  3 22  4  0
  4 11  4  0
  4 21  4  0
  5  9  4  0
  5 16  4  0
  6 15  4  0
  6 16  4  0
  7 22  4  0
  7 26  4  0
  8 10  4  0
  8 25  4  0
  9 15  4  0
  9 17  1  0
 10 21  4  0
 11 25  4  0
 12 23  4  0
 13 20  4  0
 13 26  4  0
 14 19  4  0
 17 18  4  0
 17 24  4  0
 19 23  4  0
 20 24  4  0
 23 26  1  0
M  END
$$$$

 Created by Python create_sdf_string function

 26 30  0  0  0  0  0  0  0  0999 V2000
   10.0084   -1.8019   23.4945 C   0  0  0  0  0  0  0  0  0  0  0  0
   10.0005   -4.2520   16.5631 C   0  0  0  0  0  0  0  0  0  0  0  0
   10.2759   -4.0036   17.8845 C   0  0  0  0  0  0  0  0  0  0  0  0
    8.5652    1.5478   25.3778 N   0  0  0  0  0  0  0  0  0  0  0  0
    6.8048   -7.5457   17.8752 C   0  0  0  0  0  0  0  0  0  0  0  0
    6.1721   -8.2186   15.9886 N   0  0  0  0  0  0  0  0  0  0  0  0
   11.1764   -2.6600   19.5604 C   0  0  0  0  0  0  0  0  0  0  0  0
    9.5491   -0.6380   24.1912 C   0  0  0  0  0  0  0  0  0  0  0  0
    7.5337   -6.9256   16.9519 C   0  0  0  0  0  0  0  0  0  0  0  0
    9.6782    0.5671   23.5143 C   0  0  0  0  0  0  0  0  0  0  0  0
    8.4532    0.3482   26.0821 C   0  0  0  0  0  0  0  0  0  0  0  0
   10.4239   -1.7677   22.2230 N   0  0  0  0  0  0  0  0  0  0  0  0
    9.9468   -4.5953   20.1709 C   0  0  0  0  0  0  0  0  0  0  0  0
   10.0366   -3.0590   23.9864 N   0  0  0  0  0  0  0  0  0  0  0  0
    7.1191   -7.3636   15.7739 C   0  0  0  0  0  0  0  0  0  0  0  0
    5.9612   -8.3203   17.2732 N   0  0  0  0  0  0  0  0  0  0  0  0
    8.5296   -5.9814   17.1841 C   0  0  0  0  0  0  0  0  0  0  0  0
    9.1527   -5.2118   16.2116 C   0  0  0  0  0  0  0  0  0  0  0  0
   10.3364   -3.8368   22.9255 O   0  0  0  0  0  0  0  0  0  0  0  0
    9.6947   -4.8407   18.8534 C   0  0  0  0  0  0  0  0  0  0  0  0
    9.1596    1.7042   24.1381 C   0  0  0  0  0  0  0  0  0  0  0  0
   11.0456   -2.9774   18.2694 N   0  0  0  0  0  0  0  0  0  0  0  0
   10.4788   -3.0457   21.8593 C   0  0  0  0  0  0  0  0  0  0  0  0
    8.8693   -5.8099   18.4657 N   0  0  0  0  0  0  0  0  0  0  0  0
    8.9892   -0.7926   25.4573 C   0  0  0  0  0  0  0  0  0  0  0  0
   10.5677   -3.4462   20.5323 C   0  0  0  0  0  0  0  0  0  0  0  0
  1  8  1  0
  1 12  4  0
  1 14  4  0
  2  3  4  0
  2 18  4  0
  3 20  4  0
  3 22  4  0
  4 11  4  0
  4 21  4  0
  5  9  4  0
  5 16  4  0
  6 15  4  0
  6 16  4  0
  7 22  4  0
  7 26  4  0
  8 10  4  0
  8 25  4  0
  9 15  4  0
  9 17  1  0
 10 21  4  0
 11 25  4  0
 12 23  4  0
 13 20  4  0
 13 26  4  0
 14 19  4  0
 17 18  4  0
 17 24  4  0
 19 23  4  0
 20 24  4  0
 23 26  1  0
M  END
$$$$

 Created by Python create_sdf_string function

 26 30  0  0  0  0  0  0  0  0999 V2000
   10.0084   -1.8019   23.4945 C   0  0  0  0  0  0  0  0  0  0  0  0
   10.0005   -4.2520   16.5631 C   0  0  0  0  0  0  0  0  0  0  0  0
   10.2759   -4.0036   17.8845 C   0  0  0  0  0  0  0  0  0  0  0  0
    8.5652    1.5478   25.3778 N   0  0  0  0  0  0  0  0  0  0  0  0
    6.8048   -7.5457   17.8752 C   0  0  0  0  0  0  0  0  0  0  0  0
    6.1721   -8.2186   15.9886 N   0  0  0  0  0  0  0  0  0  0  0  0
   11.1764   -2.6600   19.5604 C   0  0  0  0  0  0  0  0  0  0  0  0
    9.5491   -0.6380   24.1912 C   0  0  0  0  0  0  0  0  0  0  0  0
    7.5337   -6.9256   16.9519 C   0  0  0  0  0  0  0  0  0  0  0  0
    9.6782    0.5671   23.5143 C   0  0  0  0  0  0  0  0  0  0  0  0
    8.4532    0.3482   26.0821 C   0  0  0  0  0  0  0  0  0  0  0  0
   10.4239   -1.7677   22.2230 N   0  0  0  0  0  0  0  0  0  0  0  0
    9.9468   -4.5953   20.1709 C   0  0  0  0  0  0  0  0  0  0  0  0
   10.0366   -3.0590   23.9864 N   0  0  0  0  0  0  0  0  0  0  0  0
    7.1191   -7.3636   15.7739 C   0  0  0  0  0  0  0  0  0  0  0  0
    5.9612   -8.3203   17.2732 N   0  0  0  0  0  0  0  0  0  0  0  0
    8.5296   -5.9814   17.1841 C   0  0  0  0  0  0  0  0  0  0  0  0
    9.1527   -5.2118   16.2116 C   0  0  0  0  0  0  0  0  0  0  0  0
   10.3364   -3.8368   22.9255 O   0  0  0  0  0  0  0  0  0  0  0  0
    9.6947   -4.8407   18.8534 C   0  0  0  0  0  0  0  0  0  0  0  0
    9.1596    1.7042   24.1381 C   0  0  0  0  0  0  0  0  0  0  0  0
   11.0456   -2.9774   18.2694 N   0  0  0  0  0  0  0  0  0  0  0  0
   10.4788   -3.0457   21.8593 C   0  0  0  0  0  0  0  0  0  0  0  0
    8.8693   -5.8099   18.4657 N   0  0  0  0  0  0  0  0  0  0  0  0
    8.9892   -0.7926   25.4573 C   0  0  0  0  0  0  0  0  0  0  0  0
   10.5677   -3.4462   20.5323 C   0  0  0  0  0  0  0  0  0  0  0  0
  1  8  1  0
  1 12  4  0
  1 14  4  0
  2  3  4  0
  2 18  4  0
  3 20  4  0
  3 22  4  0
  4 11  4  0
  4 21  4  0
  5  9  4  0
  5 16  4  0
  6 15  4  0
  6 16  4  0
  7 22  4  0
  7 26  4  0
  8 10  4  0
  8 25  4  0
  9 15  4  0
  9 17  1  0
 10 21  4  0
 11 25  4  0
 12 23  4  0
 13 20  4  0
 13 26  4  0
 14 19  4  0
 17 18  4  0
 17 24  4  0
 19 23  4  0
 20 24  4  0
 23 26  1  0
M  END
$$$$

 Created by Python create_sdf_string function

 26 30  0  0  0  0  0  0  0  0999 V2000
   10.0084   -1.8019   23.4945 C   0  0  0  0  0  0  0  0  0  0  0  0
   10.0005   -4.2520   16.5631 C   0  0  0  0  0  0  0  0  0  0  0  0
   10.2759   -4.0036   17.8845 C   0  0  0  0  0  0  0  0  0  0  0  0
    8.5652    1.5478   25.3778 N   0  0  0  0  0  0  0  0  0  0  0  0
    6.8048   -7.5457   17.8752 C   0  0  0  0  0  0  0  0  0  0  0  0
    6.1721   -8.2186   15.9886 N   0  0  0  0  0  0  0  0  0  0  0  0
   11.1764   -2.6600   19.5604 C   0  0  0  0  0  0  0  0  0  0  0  0
    9.5491   -0.6380   24.1912 C   0  0  0  0  0  0  0  0  0  0  0  0
    7.5337   -6.9256   16.9519 C   0  0  0  0  0  0  0  0  0  0  0  0
    9.6782    0.5671   23.5143 C   0  0  0  0  0  0  0  0  0  0  0  0
    8.4532    0.3482   26.0821 C   0  0  0  0  0  0  0  0  0  0  0  0
   10.4239   -1.7677   22.2230 N   0  0  0  0  0  0  0  0  0  0  0  0
    9.9468   -4.5953   20.1709 C   0  0  0  0  0  0  0  0  0  0  0  0
   10.0366   -3.0590   23.9864 N   0  0  0  0  0  0  0  0  0  0  0  0
    7.1191   -7.3636   15.7739 C   0  0  0  0  0  0  0  0  0  0  0  0
    5.9612   -8.3203   17.2732 N   0  0  0  0  0  0  0  0  0  0  0  0
    8.5296   -5.9814   17.1841 C   0  0  0  0  0  0  0  0  0  0  0  0
    9.1527   -5.2118   16.2116 C   0  0  0  0  0  0  0  0  0  0  0  0
   10.3364   -3.8368   22.9255 O   0  0  0  0  0  0  0  0  0  0  0  0
    9.6947   -4.8407   18.8534 C   0  0  0  0  0  0  0  0  0  0  0  0
    9.1596    1.7042   24.1381 C   0  0  0  0  0  0  0  0  0  0  0  0
   11.0456   -2.9774   18.2694 N   0  0  0  0  0  0  0  0  0  0  0  0
   10.4788   -3.0457   21.8593 C   0  0  0  0  0  0  0  0  0  0  0  0
    8.8693   -5.8099   18.4657 N   0  0  0  0  0  0  0  0  0  0  0  0
    8.9892   -0.7926   25.4573 C   0  0  0  0  0  0  0  0  0  0  0  0
   10.5677   -3.4462   20.5323 C   0  0  0  0  0  0  0  0  0  0  0  0
  1  8  1  0
  1 12  4  0
  1 14  4  0
  2  3  4  0
  2 18  4  0
  3 20  4  0
  3 22  4  0
  4 11  4  0
  4 21  4  0
  5  9  4  0
  5 16  4  0
  6 15  4  0
  6 16  4  0
  7 22  4  0
  7 26  4  0
  8 10  4  0
  8 25  4  0
  9 15  4  0
  9 17  1  0
 10 21  4  0
 11 25  4  0
 12 23  4  0
 13 20  4  0
 13 26  4  0
 14 19  4  0
 17 18  4  0
 17 24  4  0
 19 23  4  0
 20 24  4  0
 23 26  1  0
M  END
$$$$

 Created by Python create_sdf_string function

 26 30  0  0  0  0  0  0  0  0999 V2000
   10.0084   -1.8019   23.4945 C   0  0  0  0  0  0  0  0  0  0  0  0
   10.0005   -4.2520   16.5631 C   0  0  0  0  0  0  0  0  0  0  0  0
   10.2759   -4.0036   17.8845 C   0  0  0  0  0  0  0  0  0  0  0  0
    8.5652    1.5478   25.3778 N   0  0  0  0  0  0  0  0  0  0  0  0
    6.8048   -7.5457   17.8752 C   0  0  0  0  0  0  0  0  0  0  0  0
    6.1721   -8.2186   15.9886 N   0  0  0  0  0  0  0  0  0  0  0  0
   11.1764   -2.6600   19.5604 C   0  0  0  0  0  0  0  0  0  0  0  0
    9.5491   -0.6380   24.1912 C   0  0  0  0  0  0  0  0  0  0  0  0
    7.5337   -6.9256   16.9519 C   0  0  0  0  0  0  0  0  0  0  0  0
    9.6782    0.5671   23.5143 C   0  0  0  0  0  0  0  0  0  0  0  0
    8.4532    0.3482   26.0821 C   0  0  0  0  0  0  0  0  0  0  0  0
   10.4239   -1.7677   22.2230 N   0  0  0  0  0  0  0  0  0  0  0  0
    9.9468   -4.5953   20.1709 C   0  0  0  0  0  0  0  0  0  0  0  0
   10.0366   -3.0590   23.9864 N   0  0  0  0  0  0  0  0  0  0  0  0
    7.1191   -7.3636   15.7739 C   0  0  0  0  0  0  0  0  0  0  0  0
    5.9612   -8.3203   17.2732 N   0  0  0  0  0  0  0  0  0  0  0  0
    8.5296   -5.9814   17.1841 C   0  0  0  0  0  0  0  0  0  0  0  0
    9.1527   -5.2118   16.2116 C   0  0  0  0  0  0  0  0  0  0  0  0
   10.3364   -3.8368   22.9255 O   0  0  0  0  0  0  0  0  0  0  0  0
    9.6947   -4.8407   18.8534 C   0  0  0  0  0  0  0  0  0  0  0  0
    9.1596    1.7042   24.1381 C   0  0  0  0  0  0  0  0  0  0  0  0
   11.0456   -2.9774   18.2694 N   0  0  0  0  0  0  0  0  0  0  0  0
   10.4788   -3.0457   21.8593 C   0  0  0  0  0  0  0  0  0  0  0  0
    8.8693   -5.8099   18.4657 N   0  0  0  0  0  0  0  0  0  0  0  0
    8.9892   -0.7926   25.4573 C   0  0  0  0  0  0  0  0  0  0  0  0
   10.5677   -3.4462   20.5323 C   0  0  0  0  0  0  0  0  0  0  0  0
  1  8  1  0
  1 12  4  0
  1 14  4  0
  2  3  4  0
  2 18  4  0
  3 20  4  0
  3 22  4  0
  4 11  4  0
  4 21  4  0
  5  9  4  0
  5 16  4  0
  6 15  4  0
  6 16  4  0
  7 22  4  0
  7 26  4  0
  8 10  4  0
  8 25  4  0
  9 15  4  0
  9 17  1  0
 10 21  4  0
 11 25  4  0
 12 23  4  0
 13 20  4  0
 13 26  4  0
 14 19  4  0
 17 18  4  0
 17 24  4  0
 19 23  4  0
 20 24  4  0
 23 26  1  0
M  END
$$$$

 Created by Python create_sdf_string function

 26 30  0  0  0  0  0  0  0  0999 V2000
   10.0084   -1.8019   23.4945 C   0  0  0  0  0  0  0  0  0  0  0  0
   10.0005   -4.2520   16.5631 C   0  0  0  0  0  0  0  0  0  0  0  0
   10.2759   -4.0036   17.8845 C   0  0  0  0  0  0  0  0  0  0  0  0
    8.5652    1.5478   25.3778 N   0  0  0  0  0  0  0  0  0  0  0  0
    6.8048   -7.5457   17.8752 C   0  0  0  0  0  0  0  0  0  0  0  0
    6.1721   -8.2186   15.9886 N   0  0  0  0  0  0  0  0  0  0  0  0
   11.1764   -2.6600   19.5604 C   0  0  0  0  0  0  0  0  0  0  0  0
    9.5491   -0.6380   24.1912 C   0  0  0  0  0  0  0  0  0  0  0  0
    7.5337   -6.9256   16.9519 C   0  0  0  0  0  0  0  0  0  0  0  0
    9.6782    0.5671   23.5143 C   0  0  0  0  0  0  0  0  0  0  0  0
    8.4532    0.3482   26.0821 C   0  0  0  0  0  0  0  0  0  0  0  0
   10.4239   -1.7677   22.2230 N   0  0  0  0  0  0  0  0  0  0  0  0
    9.9468   -4.5953   20.1709 C   0  0  0  0  0  0  0  0  0  0  0  0
   10.0366   -3.0590   23.9864 N   0  0  0  0  0  0  0  0  0  0  0  0
    7.1191   -7.3636   15.7739 C   0  0  0  0  0  0  0  0  0  0  0  0
    5.9612   -8.3203   17.2732 N   0  0  0  0  0  0  0  0  0  0  0  0
    8.5296   -5.9814   17.1841 C   0  0  0  0  0  0  0  0  0  0  0  0
    9.1527   -5.2118   16.2116 C   0  0  0  0  0  0  0  0  0  0  0  0
   10.3364   -3.8368   22.9255 O   0  0  0  0  0  0  0  0  0  0  0  0
    9.6947   -4.8407   18.8534 C   0  0  0  0  0  0  0  0  0  0  0  0
    9.1596    1.7042   24.1381 C   0  0  0  0  0  0  0  0  0  0  0  0
   11.0456   -2.9774   18.2694 N   0  0  0  0  0  0  0  0  0  0  0  0
   10.4788   -3.0457   21.8593 C   0  0  0  0  0  0  0  0  0  0  0  0
    8.8693   -5.8099   18.4657 N   0  0  0  0  0  0  0  0  0  0  0  0
    8.9892   -0.7926   25.4573 C   0  0  0  0  0  0  0  0  0  0  0  0
   10.5677   -3.4462   20.5323 C   0  0  0  0  0  0  0  0  0  0  0  0
  1  8  1  0
  1 12  4  0
  1 14  4  0
  2  3  4  0
  2 18  4  0
  3 20  4  0
  3 22  4  0
  4 11  4  0
  4 21  4  0
  5  9  4  0
  5 16  4  0
  6 15  4  0
  6 16  4  0
  7 22  4  0
  7 26  4  0
  8 10  4  0
  8 25  4  0
  9 15  4  0
  9 17  1  0
 10 21  4  0
 11 25  4  0
 12 23  4  0
 13 20  4  0
 13 26  4  0
 14 19  4  0
 17 18  4  0
 17 24  4  0
 19 23  4  0
 20 24  4  0
 23 26  1  0
M  END
$$$$

 Created by Python create_sdf_string function

 26 30  0  0  0  0  0  0  0  0999 V2000
   10.0084   -1.8019   23.4945 C   0  0  0  0  0  0  0  0  0  0  0  0
   10.0005   -4.2520   16.5631 C   0  0  0  0  0  0  0  0  0  0  0  0
   10.2759   -4.0036   17.8845 C   0  0  0  0  0  0  0  0  0  0  0  0
    8.5652    1.5478   25.3778 N   0  0  0  0  0  0  0  0  0  0  0  0
    6.8048   -7.5457   17.8752 C   0  0  0  0  0  0  0  0  0  0  0  0
    6.1721   -8.2186   15.9886 N   0  0  0  0  0  0  0  0  0  0  0  0
   11.1764   -2.6600   19.5604 C   0  0  0  0  0  0  0  0  0  0  0  0
    9.5491   -0.6380   24.1912 C   0  0  0  0  0  0  0  0  0  0  0  0
    7.5337   -6.9256   16.9519 C   0  0  0  0  0  0  0  0  0  0  0  0
    9.6782    0.5671   23.5143 C   0  0  0  0  0  0  0  0  0  0  0  0
    8.4532    0.3482   26.0821 C   0  0  0  0  0  0  0  0  0  0  0  0
   10.4239   -1.7677   22.2230 N   0  0  0  0  0  0  0  0  0  0  0  0
    9.9468   -4.5953   20.1709 C   0  0  0  0  0  0  0  0  0  0  0  0
   10.0366   -3.0590   23.9864 N   0  0  0  0  0  0  0  0  0  0  0  0
    7.1191   -7.3636   15.7739 C   0  0  0  0  0  0  0  0  0  0  0  0
    5.9612   -8.3203   17.2732 N   0  0  0  0  0  0  0  0  0  0  0  0
    8.5296   -5.9814   17.1841 C   0  0  0  0  0  0  0  0  0  0  0  0
    9.1527   -5.2118   16.2116 C   0  0  0  0  0  0  0  0  0  0  0  0
   10.3364   -3.8368   22.9255 O   0  0  0  0  0  0  0  0  0  0  0  0
    9.6947   -4.8407   18.8534 C   0  0  0  0  0  0  0  0  0  0  0  0
    9.1596    1.7042   24.1381 C   0  0  0  0  0  0  0  0  0  0  0  0
   11.0456   -2.9774   18.2694 N   0  0  0  0  0  0  0  0  0  0  0  0
   10.4788   -3.0457   21.8593 C   0  0  0  0  0  0  0  0  0  0  0  0
    8.8693   -5.8099   18.4657 N   0  0  0  0  0  0  0  0  0  0  0  0
    8.9892   -0.7926   25.4573 C   0  0  0  0  0  0  0  0  0  0  0  0
   10.5677   -3.4462   20.5323 C   0  0  0  0  0  0  0  0  0  0  0  0
  1  8  1  0
  1 12  4  0
  1 14  4  0
  2  3  4  0
  2 18  4  0
  3 20  4  0
  3 22  4  0
  4 11  4  0
  4 21  4  0
  5  9  4  0
  5 16  4  0
  6 15  4  0
  6 16  4  0
  7 22  4  0
  7 26  4  0
  8 10  4  0
  8 25  4  0
  9 15  4  0
  9 17  1  0
 10 21  4  0
 11 25  4  0
 12 23  4  0
 13 20  4  0
 13 26  4  0
 14 19  4  0
 17 18  4  0
 17 24  4  0
 19 23  4  0
 20 24  4  0
 23 26  1  0
M  END
$$$$

 Created by Python create_sdf_string function

 26 30  0  0  0  0  0  0  0  0999 V2000
   10.0084   -1.8019   23.4945 C   0  0  0  0  0  0  0  0  0  0  0  0
   10.0005   -4.2520   16.5631 C   0  0  0  0  0  0  0  0  0  0  0  0
   10.2759   -4.0036   17.8845 C   0  0  0  0  0  0  0  0  0  0  0  0
    8.5652    1.5478   25.3778 N   0  0  0  0  0  0  0  0  0  0  0  0
    6.8048   -7.5457   17.8752 C   0  0  0  0  0  0  0  0  0  0  0  0
    6.1721   -8.2186   15.9886 N   0  0  0  0  0  0  0  0  0  0  0  0
   11.1764   -2.6600   19.5604 C   0  0  0  0  0  0  0  0  0  0  0  0
    9.5491   -0.6380   24.1912 C   0  0  0  0  0  0  0  0  0  0  0  0
    7.5337   -6.9256   16.9519 C   0  0  0  0  0  0  0  0  0  0  0  0
    9.6782    0.5671   23.5143 C   0  0  0  0  0  0  0  0  0  0  0  0
    8.4532    0.3482   26.0821 C   0  0  0  0  0  0  0  0  0  0  0  0
   10.4239   -1.7677   22.2230 N   0  0  0  0  0  0  0  0  0  0  0  0
    9.9468   -4.5953   20.1709 C   0  0  0  0  0  0  0  0  0  0  0  0
   10.0366   -3.0590   23.9864 N   0  0  0  0  0  0  0  0  0  0  0  0
    7.1191   -7.3636   15.7739 C   0  0  0  0  0  0  0  0  0  0  0  0
    5.9612   -8.3203   17.2732 N   0  0  0  0  0  0  0  0  0  0  0  0
    8.5296   -5.9814   17.1841 C   0  0  0  0  0  0  0  0  0  0  0  0
    9.1527   -5.2118   16.2116 C   0  0  0  0  0  0  0  0  0  0  0  0
   10.3364   -3.8368   22.9255 O   0  0  0  0  0  0  0  0  0  0  0  0
    9.6947   -4.8407   18.8534 C   0  0  0  0  0  0  0  0  0  0  0  0
    9.1596    1.7042   24.1381 C   0  0  0  0  0  0  0  0  0  0  0  0
   11.0456   -2.9774   18.2694 N   0  0  0  0  0  0  0  0  0  0  0  0
   10.4788   -3.0457   21.8593 C   0  0  0  0  0  0  0  0  0  0  0  0
    8.8693   -5.8099   18.4657 N   0  0  0  0  0  0  0  0  0  0  0  0
    8.9892   -0.7926   25.4573 C   0  0  0  0  0  0  0  0  0  0  0  0
   10.5677   -3.4462   20.5323 C   0  0  0  0  0  0  0  0  0  0  0  0
  1  8  1  0
  1 12  4  0
  1 14  4  0
  2  3  4  0
  2 18  4  0
  3 20  4  0
  3 22  4  0
  4 11  4  0
  4 21  4  0
  5  9  4  0
  5 16  4  0
  6 15  4  0
  6 16  4  0
  7 22  4  0
  7 26  4  0
  8 10  4  0
  8 25  4  0
  9 15  4  0
  9 17  1  0
 10 21  4  0
 11 25  4  0
 12 23  4  0
 13 20  4  0
 13 26  4  0
 14 19  4  0
 17 18  4  0
 17 24  4  0
 19 23  4  0
 20 24  4  0
 23 26  1  0
M  END
$$$$

 Created by Python create_sdf_string function

 26 30  0  0  0  0  0  0  0  0999 V2000
   10.0084   -1.8019   23.4945 C   0  0  0  0  0  0  0  0  0  0  0  0
   10.0005   -4.2520   16.5631 C   0  0  0  0  0  0  0  0  0  0  0  0
   10.2759   -4.0036   17.8845 C   0  0  0  0  0  0  0  0  0  0  0  0
    8.5652    1.5478   25.3778 N   0  0  0  0  0  0  0  0  0  0  0  0
    6.8048   -7.5457   17.8752 C   0  0  0  0  0  0  0  0  0  0  0  0
    6.1721   -8.2186   15.9886 N   0  0  0  0  0  0  0  0  0  0  0  0
   11.1764   -2.6600   19.5604 C   0  0  0  0  0  0  0  0  0  0  0  0
    9.5491   -0.6380   24.1912 C   0  0  0  0  0  0  0  0  0  0  0  0
    7.5337   -6.9256   16.9519 C   0  0  0  0  0  0  0  0  0  0  0  0
    9.6782    0.5671   23.5143 C   0  0  0  0  0  0  0  0  0  0  0  0
    8.4532    0.3482   26.0821 C   0  0  0  0  0  0  0  0  0  0  0  0
   10.4239   -1.7677   22.2230 N   0  0  0  0  0  0  0  0  0  0  0  0
    9.9468   -4.5953   20.1709 C   0  0  0  0  0  0  0  0  0  0  0  0
   10.0366   -3.0590   23.9864 N   0  0  0  0  0  0  0  0  0  0  0  0
    7.1191   -7.3636   15.7739 C   0  0  0  0  0  0  0  0  0  0  0  0
    5.9612   -8.3203   17.2732 N   0  0  0  0  0  0  0  0  0  0  0  0
    8.5296   -5.9814   17.1841 C   0  0  0  0  0  0  0  0  0  0  0  0
    9.1527   -5.2118   16.2116 C   0  0  0  0  0  0  0  0  0  0  0  0
   10.3364   -3.8368   22.9255 O   0  0  0  0  0  0  0  0  0  0  0  0
    9.6947   -4.8407   18.8534 C   0  0  0  0  0  0  0  0  0  0  0  0
    9.1596    1.7042   24.1381 C   0  0  0  0  0  0  0  0  0  0  0  0
   11.0456   -2.9774   18.2694 N   0  0  0  0  0  0  0  0  0  0  0  0
   10.4788   -3.0457   21.8593 C   0  0  0  0  0  0  0  0  0  0  0  0
    8.8693   -5.8099   18.4657 N   0  0  0  0  0  0  0  0  0  0  0  0
    8.9892   -0.7926   25.4573 C   0  0  0  0  0  0  0  0  0  0  0  0
   10.5677   -3.4462   20.5323 C   0  0  0  0  0  0  0  0  0  0  0  0
  1  8  1  0
  1 12  4  0
  1 14  4  0
  2  3  4  0
  2 18  4  0
  3 20  4  0
  3 22  4  0
  4 11  4  0
  4 21  4  0
  5  9  4  0
  5 16  4  0
  6 15  4  0
  6 16  4  0
  7 22  4  0
  7 26  4  0
  8 10  4  0
  8 25  4  0
  9 15  4  0
  9 17  1  0
 10 21  4  0
 11 25  4  0
 12 23  4  0
 13 20  4  0
 13 26  4  0
 14 19  4  0
 17 18  4  0
 17 24  4  0
 19 23  4  0
 20 24  4  0
 23 26  1  0
M  END
$$$$

 Created by Python create_sdf_string function

 26 30  0  0  0  0  0  0  0  0999 V2000
   10.0084   -1.8019   23.4945 C   0  0  0  0  0  0  0  0  0  0  0  0
   10.0005   -4.2520   16.5631 C   0  0  0  0  0  0  0  0  0  0  0  0
   10.2759   -4.0036   17.8845 C   0  0  0  0  0  0  0  0  0  0  0  0
    8.5652    1.5478   25.3778 N   0  0  0  0  0  0  0  0  0  0  0  0
    6.8048   -7.5457   17.8752 C   0  0  0  0  0  0  0  0  0  0  0  0
    6.1721   -8.2186   15.9886 N   0  0  0  0  0  0  0  0  0  0  0  0
   11.1764   -2.6600   19.5604 C   0  0  0  0  0  0  0  0  0  0  0  0
    9.5491   -0.6380   24.1912 C   0  0  0  0  0  0  0  0  0  0  0  0
    7.5337   -6.9256   16.9519 C   0  0  0  0  0  0  0  0  0  0  0  0
    9.6782    0.5671   23.5143 C   0  0  0  0  0  0  0  0  0  0  0  0
    8.4532    0.3482   26.0821 C   0  0  0  0  0  0  0  0  0  0  0  0
   10.4239   -1.7677   22.2230 N   0  0  0  0  0  0  0  0  0  0  0  0
    9.9468   -4.5953   20.1709 C   0  0  0  0  0  0  0  0  0  0  0  0
   10.0366   -3.0590   23.9864 N   0  0  0  0  0  0  0  0  0  0  0  0
    7.1191   -7.3636   15.7739 C   0  0  0  0  0  0  0  0  0  0  0  0
    5.9612   -8.3203   17.2732 N   0  0  0  0  0  0  0  0  0  0  0  0
    8.5296   -5.9814   17.1841 C   0  0  0  0  0  0  0  0  0  0  0  0
    9.1527   -5.2118   16.2116 C   0  0  0  0  0  0  0  0  0  0  0  0
   10.3364   -3.8368   22.9255 O   0  0  0  0  0  0  0  0  0  0  0  0
    9.6947   -4.8407   18.8534 C   0  0  0  0  0  0  0  0  0  0  0  0
    9.1596    1.7042   24.1381 C   0  0  0  0  0  0  0  0  0  0  0  0
   11.0456   -2.9774   18.2694 N   0  0  0  0  0  0  0  0  0  0  0  0
   10.4788   -3.0457   21.8593 C   0  0  0  0  0  0  0  0  0  0  0  0
    8.8693   -5.8099   18.4657 N   0  0  0  0  0  0  0  0  0  0  0  0
    8.9892   -0.7926   25.4573 C   0  0  0  0  0  0  0  0  0  0  0  0
   10.5677   -3.4462   20.5323 C   0  0  0  0  0  0  0  0  0  0  0  0
  1  8  1  0
  1 12  4  0
  1 14  4  0
  2  3  4  0
  2 18  4  0
  3 20  4  0
  3 22  4  0
  4 11  4  0
  4 21  4  0
  5  9  4  0
  5 16  4  0
  6 15  4  0
  6 16  4  0
  7 22  4  0
  7 26  4  0
  8 10  4  0
  8 25  4  0
  9 15  4  0
  9 17  1  0
 10 21  4  0
 11 25  4  0
 12 23  4  0
 13 20  4  0
 13 26  4  0
 14 19  4  0
 17 18  4  0
 17 24  4  0
 19 23  4  0
 20 24  4  0
 23 26  1  0
M  END
$$$$

 Created by Python create_sdf_string function

 26 30  0  0  0  0  0  0  0  0999 V2000
   10.0084   -1.8019   23.4945 C   0  0  0  0  0  0  0  0  0  0  0  0
   10.0005   -4.2520   16.5631 C   0  0  0  0  0  0  0  0  0  0  0  0
   10.2759   -4.0036   17.8845 C   0  0  0  0  0  0  0  0  0  0  0  0
    8.5652    1.5478   25.3778 N   0  0  0  0  0  0  0  0  0  0  0  0
    6.8048   -7.5457   17.8752 C   0  0  0  0  0  0  0  0  0  0  0  0
    6.1721   -8.2186   15.9886 N   0  0  0  0  0  0  0  0  0  0  0  0
   11.1764   -2.6600   19.5604 C   0  0  0  0  0  0  0  0  0  0  0  0
    9.5491   -0.6380   24.1912 C   0  0  0  0  0  0  0  0  0  0  0  0
    7.5337   -6.9256   16.9519 C   0  0  0  0  0  0  0  0  0  0  0  0
    9.6782    0.5671   23.5143 C   0  0  0  0  0  0  0  0  0  0  0  0
    8.4532    0.3482   26.0821 C   0  0  0  0  0  0  0  0  0  0  0  0
   10.4239   -1.7677   22.2230 N   0  0  0  0  0  0  0  0  0  0  0  0
    9.9468   -4.5953   20.1709 C   0  0  0  0  0  0  0  0  0  0  0  0
   10.0366   -3.0590   23.9864 N   0  0  0  0  0  0  0  0  0  0  0  0
    7.1191   -7.3636   15.7739 C   0  0  0  0  0  0  0  0  0  0  0  0
    5.9612   -8.3203   17.2732 N   0  0  0  0  0  0  0  0  0  0  0  0
    8.5296   -5.9814   17.1841 C   0  0  0  0  0  0  0  0  0  0  0  0
    9.1527   -5.2118   16.2116 C   0  0  0  0  0  0  0  0  0  0  0  0
   10.3364   -3.8368   22.9255 O   0  0  0  0  0  0  0  0  0  0  0  0
    9.6947   -4.8407   18.8534 C   0  0  0  0  0  0  0  0  0  0  0  0
    9.1596    1.7042   24.1381 C   0  0  0  0  0  0  0  0  0  0  0  0
   11.0456   -2.9774   18.2694 N   0  0  0  0  0  0  0  0  0  0  0  0
   10.4788   -3.0457   21.8593 C   0  0  0  0  0  0  0  0  0  0  0  0
    8.8693   -5.8099   18.4657 N   0  0  0  0  0  0  0  0  0  0  0  0
    8.9892   -0.7926   25.4573 C   0  0  0  0  0  0  0  0  0  0  0  0
   10.5677   -3.4462   20.5323 C   0  0  0  0  0  0  0  0  0  0  0  0
  1  8  1  0
  1 12  4  0
  1 14  4  0
  2  3  4  0
  2 18  4  0
  3 20  4  0
  3 22  4  0
  4 11  4  0
  4 21  4  0
  5  9  4  0
  5 16  4  0
  6 15  4  0
  6 16  4  0
  7 22  4  0
  7 26  4  0
  8 10  4  0
  8 25  4  0
  9 15  4  0
  9 17  1  0
 10 21  4  0
 11 25  4  0
 12 23  4  0
 13 20  4  0
 13 26  4  0
 14 19  4  0
 17 18  4  0
 17 24  4  0
 19 23  4  0
 20 24  4  0
 23 26  1  0
M  END
$$$$

 Created by Python create_sdf_string function

 26 30  0  0  0  0  0  0  0  0999 V2000
   10.0084   -1.8019   23.4945 C   0  0  0  0  0  0  0  0  0  0  0  0
   10.0005   -4.2520   16.5631 C   0  0  0  0  0  0  0  0  0  0  0  0
   10.2759   -4.0036   17.8845 C   0  0  0  0  0  0  0  0  0  0  0  0
    8.5652    1.5478   25.3778 N   0  0  0  0  0  0  0  0  0  0  0  0
    6.8048   -7.5457   17.8752 C   0  0  0  0  0  0  0  0  0  0  0  0
    6.1721   -8.2186   15.9886 N   0  0  0  0  0  0  0  0  0  0  0  0
   11.1764   -2.6600   19.5604 C   0  0  0  0  0  0  0  0  0  0  0  0
    9.5491   -0.6380   24.1912 C   0  0  0  0  0  0  0  0  0  0  0  0
    7.5337   -6.9256   16.9519 C   0  0  0  0  0  0  0  0  0  0  0  0
    9.6782    0.5671   23.5143 C   0  0  0  0  0  0  0  0  0  0  0  0
    8.4532    0.3482   26.0821 C   0  0  0  0  0  0  0  0  0  0  0  0
   10.4239   -1.7677   22.2230 N   0  0  0  0  0  0  0  0  0  0  0  0
    9.9468   -4.5953   20.1709 C   0  0  0  0  0  0  0  0  0  0  0  0
   10.0366   -3.0590   23.9864 N   0  0  0  0  0  0  0  0  0  0  0  0
    7.1191   -7.3636   15.7739 C   0  0  0  0  0  0  0  0  0  0  0  0
    5.9612   -8.3203   17.2732 N   0  0  0  0  0  0  0  0  0  0  0  0
    8.5296   -5.9814   17.1841 C   0  0  0  0  0  0  0  0  0  0  0  0
    9.1527   -5.2118   16.2116 C   0  0  0  0  0  0  0  0  0  0  0  0
   10.3364   -3.8368   22.9255 O   0  0  0  0  0  0  0  0  0  0  0  0
    9.6947   -4.8407   18.8534 C   0  0  0  0  0  0  0  0  0  0  0  0
    9.1596    1.7042   24.1381 C   0  0  0  0  0  0  0  0  0  0  0  0
   11.0456   -2.9774   18.2694 N   0  0  0  0  0  0  0  0  0  0  0  0
   10.4788   -3.0457   21.8593 C   0  0  0  0  0  0  0  0  0  0  0  0
    8.8693   -5.8099   18.4657 N   0  0  0  0  0  0  0  0  0  0  0  0
    8.9892   -0.7926   25.4573 C   0  0  0  0  0  0  0  0  0  0  0  0
   10.5677   -3.4462   20.5323 C   0  0  0  0  0  0  0  0  0  0  0  0
  1  8  1  0
  1 12  4  0
  1 14  4  0
  2  3  4  0
  2 18  4  0
  3 20  4  0
  3 22  4  0
  4 11  4  0
  4 21  4  0
  5  9  4  0
  5 16  4  0
  6 15  4  0
  6 16  4  0
  7 22  4  0
  7 26  4  0
  8 10  4  0
  8 25  4  0
  9 15  4  0
  9 17  1  0
 10 21  4  0
 11 25  4  0
 12 23  4  0
 13 20  4  0
 13 26  4  0
 14 19  4  0
 17 18  4  0
 17 24  4  0
 19 23  4  0
 20 24  4  0
 23 26  1  0
M  END
$$$$

 Created by Python create_sdf_string function

 26 30  0  0  0  0  0  0  0  0999 V2000
   10.0084   -1.8019   23.4945 C   0  0  0  0  0  0  0  0  0  0  0  0
   10.0005   -4.2520   16.5631 C   0  0  0  0  0  0  0  0  0  0  0  0
   10.2759   -4.0036   17.8845 C   0  0  0  0  0  0  0  0  0  0  0  0
    8.5652    1.5478   25.3778 N   0  0  0  0  0  0  0  0  0  0  0  0
    6.8048   -7.5457   17.8752 C   0  0  0  0  0  0  0  0  0  0  0  0
    6.1721   -8.2186   15.9886 N   0  0  0  0  0  0  0  0  0  0  0  0
   11.1764   -2.6600   19.5604 C   0  0  0  0  0  0  0  0  0  0  0  0
    9.5491   -0.6380   24.1912 C   0  0  0  0  0  0  0  0  0  0  0  0
    7.5337   -6.9256   16.9519 C   0  0  0  0  0  0  0  0  0  0  0  0
    9.6782    0.5671   23.5143 C   0  0  0  0  0  0  0  0  0  0  0  0
    8.4532    0.3482   26.0821 C   0  0  0  0  0  0  0  0  0  0  0  0
   10.4239   -1.7677   22.2230 N   0  0  0  0  0  0  0  0  0  0  0  0
    9.9468   -4.5953   20.1709 C   0  0  0  0  0  0  0  0  0  0  0  0
   10.0366   -3.0590   23.9864 N   0  0  0  0  0  0  0  0  0  0  0  0
    7.1191   -7.3636   15.7739 C   0  0  0  0  0  0  0  0  0  0  0  0
    5.9612   -8.3203   17.2732 N   0  0  0  0  0  0  0  0  0  0  0  0
    8.5296   -5.9814   17.1841 C   0  0  0  0  0  0  0  0  0  0  0  0
    9.1527   -5.2118   16.2116 C   0  0  0  0  0  0  0  0  0  0  0  0
   10.3364   -3.8368   22.9255 O   0  0  0  0  0  0  0  0  0  0  0  0
    9.6947   -4.8407   18.8534 C   0  0  0  0  0  0  0  0  0  0  0  0
    9.1596    1.7042   24.1381 C   0  0  0  0  0  0  0  0  0  0  0  0
   11.0456   -2.9774   18.2694 N   0  0  0  0  0  0  0  0  0  0  0  0
   10.4788   -3.0457   21.8593 C   0  0  0  0  0  0  0  0  0  0  0  0
    8.8693   -5.8099   18.4657 N   0  0  0  0  0  0  0  0  0  0  0  0
    8.9892   -0.7926   25.4573 C   0  0  0  0  0  0  0  0  0  0  0  0
   10.5677   -3.4462   20.5323 C   0  0  0  0  0  0  0  0  0  0  0  0
  1  8  1  0
  1 12  4  0
  1 14  4  0
  2  3  4  0
  2 18  4  0
  3 20  4  0
  3 22  4  0
  4 11  4  0
  4 21  4  0
  5  9  4  0
  5 16  4  0
  6 15  4  0
  6 16  4  0
  7 22  4  0
  7 26  4  0
  8 10  4  0
  8 25  4  0
  9 15  4  0
  9 17  1  0
 10 21  4  0
 11 25  4  0
 12 23  4  0
 13 20  4  0
 13 26  4  0
 14 19  4  0
 17 18  4  0
 17 24  4  0
 19 23  4  0
 20 24  4  0
 23 26  1  0
M  END
$$$$

 Created by Python create_sdf_string function

 26 30  0  0  0  0  0  0  0  0999 V2000
   10.0084   -1.8019   23.4945 C   0  0  0  0  0  0  0  0  0  0  0  0
   10.0005   -4.2520   16.5631 C   0  0  0  0  0  0  0  0  0  0  0  0
   10.2759   -4.0036   17.8845 C   0  0  0  0  0  0  0  0  0  0  0  0
    8.5652    1.5478   25.3778 N   0  0  0  0  0  0  0  0  0  0  0  0
    6.8048   -7.5457   17.8752 C   0  0  0  0  0  0  0  0  0  0  0  0
    6.1721   -8.2186   15.9886 N   0  0  0  0  0  0  0  0  0  0  0  0
   11.1764   -2.6600   19.5604 C   0  0  0  0  0  0  0  0  0  0  0  0
    9.5491   -0.6380   24.1912 C   0  0  0  0  0  0  0  0  0  0  0  0
    7.5337   -6.9256   16.9519 C   0  0  0  0  0  0  0  0  0  0  0  0
    9.6782    0.5671   23.5143 C   0  0  0  0  0  0  0  0  0  0  0  0
    8.4532    0.3482   26.0821 C   0  0  0  0  0  0  0  0  0  0  0  0
   10.4239   -1.7677   22.2230 N   0  0  0  0  0  0  0  0  0  0  0  0
    9.9468   -4.5953   20.1709 C   0  0  0  0  0  0  0  0  0  0  0  0
   10.0366   -3.0590   23.9864 N   0  0  0  0  0  0  0  0  0  0  0  0
    7.1191   -7.3636   15.7739 C   0  0  0  0  0  0  0  0  0  0  0  0
    5.9612   -8.3203   17.2732 N   0  0  0  0  0  0  0  0  0  0  0  0
    8.5296   -5.9814   17.1841 C   0  0  0  0  0  0  0  0  0  0  0  0
    9.1527   -5.2118   16.2116 C   0  0  0  0  0  0  0  0  0  0  0  0
   10.3364   -3.8368   22.9255 O   0  0  0  0  0  0  0  0  0  0  0  0
    9.6947   -4.8407   18.8534 C   0  0  0  0  0  0  0  0  0  0  0  0
    9.1596    1.7042   24.1381 C   0  0  0  0  0  0  0  0  0  0  0  0
   11.0456   -2.9774   18.2694 N   0  0  0  0  0  0  0  0  0  0  0  0
   10.4788   -3.0457   21.8593 C   0  0  0  0  0  0  0  0  0  0  0  0
    8.8693   -5.8099   18.4657 N   0  0  0  0  0  0  0  0  0  0  0  0
    8.9892   -0.7926   25.4573 C   0  0  0  0  0  0  0  0  0  0  0  0
   10.5677   -3.4462   20.5323 C   0  0  0  0  0  0  0  0  0  0  0  0
  1  8  1  0
  1 12  4  0
  1 14  4  0
  2  3  4  0
  2 18  4  0
  3 20  4  0
  3 22  4  0
  4 11  4  0
  4 21  4  0
  5  9  4  0
  5 16  4  0
  6 15  4  0
  6 16  4  0
  7 22  4  0
  7 26  4  0
  8 10  4  0
  8 25  4  0
  9 15  4  0
  9 17  1  0
 10 21  4  0
 11 25  4  0
 12 23  4  0
 13 20  4  0
 13 26  4  0
 14 19  4  0
 17 18  4  0
 17 24  4  0
 19 23  4  0
 20 24  4  0
 23 26  1  0
M  END
$$$$

 Created by Python create_sdf_string function

 26 30  0  0  0  0  0  0  0  0999 V2000
   10.0084   -1.8019   23.4945 C   0  0  0  0  0  0  0  0  0  0  0  0
   10.0005   -4.2520   16.5631 C   0  0  0  0  0  0  0  0  0  0  0  0
   10.2759   -4.0036   17.8845 C   0  0  0  0  0  0  0  0  0  0  0  0
    8.5652    1.5478   25.3778 N   0  0  0  0  0  0  0  0  0  0  0  0
    6.8048   -7.5457   17.8752 C   0  0  0  0  0  0  0  0  0  0  0  0
    6.1721   -8.2186   15.9886 N   0  0  0  0  0  0  0  0  0  0  0  0
   11.1764   -2.6600   19.5604 C   0  0  0  0  0  0  0  0  0  0  0  0
    9.5491   -0.6380   24.1912 C   0  0  0  0  0  0  0  0  0  0  0  0
    7.5337   -6.9256   16.9519 C   0  0  0  0  0  0  0  0  0  0  0  0
    9.6782    0.5671   23.5143 C   0  0  0  0  0  0  0  0  0  0  0  0
    8.4532    0.3482   26.0821 C   0  0  0  0  0  0  0  0  0  0  0  0
   10.4239   -1.7677   22.2230 N   0  0  0  0  0  0  0  0  0  0  0  0
    9.9468   -4.5953   20.1709 C   0  0  0  0  0  0  0  0  0  0  0  0
   10.0366   -3.0590   23.9864 N   0  0  0  0  0  0  0  0  0  0  0  0
    7.1191   -7.3636   15.7739 C   0  0  0  0  0  0  0  0  0  0  0  0
    5.9612   -8.3203   17.2732 N   0  0  0  0  0  0  0  0  0  0  0  0
    8.5296   -5.9814   17.1841 C   0  0  0  0  0  0  0  0  0  0  0  0
    9.1527   -5.2118   16.2116 C   0  0  0  0  0  0  0  0  0  0  0  0
   10.3364   -3.8368   22.9255 O   0  0  0  0  0  0  0  0  0  0  0  0
    9.6947   -4.8407   18.8534 C   0  0  0  0  0  0  0  0  0  0  0  0
    9.1596    1.7042   24.1381 C   0  0  0  0  0  0  0  0  0  0  0  0
   11.0456   -2.9774   18.2694 N   0  0  0  0  0  0  0  0  0  0  0  0
   10.4788   -3.0457   21.8593 C   0  0  0  0  0  0  0  0  0  0  0  0
    8.8693   -5.8099   18.4657 N   0  0  0  0  0  0  0  0  0  0  0  0
    8.9892   -0.7926   25.4573 C   0  0  0  0  0  0  0  0  0  0  0  0
   10.5677   -3.4462   20.5323 C   0  0  0  0  0  0  0  0  0  0  0  0
  1  8  1  0
  1 12  4  0
  1 14  4  0
  2  3  4  0
  2 18  4  0
  3 20  4  0
  3 22  4  0
  4 11  4  0
  4 21  4  0
  5  9  4  0
  5 16  4  0
  6 15  4  0
  6 16  4  0
  7 22  4  0
  7 26  4  0
  8 10  4  0
  8 25  4  0
  9 15  4  0
  9 17  1  0
 10 21  4  0
 11 25  4  0
 12 23  4  0
 13 20  4  0
 13 26  4  0
 14 19  4  0
 17 18  4  0
 17 24  4  0
 19 23  4  0
 20 24  4  0
 23 26  1  0
M  END
$$$$

 Created by Python create_sdf_string function

 26 30  0  0  0  0  0  0  0  0999 V2000
   10.0084   -1.8019   23.4945 C   0  0  0  0  0  0  0  0  0  0  0  0
   10.0005   -4.2520   16.5631 C   0  0  0  0  0  0  0  0  0  0  0  0
   10.2759   -4.0036   17.8845 C   0  0  0  0  0  0  0  0  0  0  0  0
    8.5652    1.5478   25.3778 N   0  0  0  0  0  0  0  0  0  0  0  0
    6.8048   -7.5457   17.8752 C   0  0  0  0  0  0  0  0  0  0  0  0
    6.1721   -8.2186   15.9886 N   0  0  0  0  0  0  0  0  0  0  0  0
   11.1764   -2.6600   19.5604 C   0  0  0  0  0  0  0  0  0  0  0  0
    9.5491   -0.6380   24.1912 C   0  0  0  0  0  0  0  0  0  0  0  0
    7.5337   -6.9256   16.9519 C   0  0  0  0  0  0  0  0  0  0  0  0
    9.6782    0.5671   23.5143 C   0  0  0  0  0  0  0  0  0  0  0  0
    8.4532    0.3482   26.0821 C   0  0  0  0  0  0  0  0  0  0  0  0
   10.4239   -1.7677   22.2230 N   0  0  0  0  0  0  0  0  0  0  0  0
    9.9468   -4.5953   20.1709 C   0  0  0  0  0  0  0  0  0  0  0  0
   10.0366   -3.0590   23.9864 N   0  0  0  0  0  0  0  0  0  0  0  0
    7.1191   -7.3636   15.7739 C   0  0  0  0  0  0  0  0  0  0  0  0
    5.9612   -8.3203   17.2732 N   0  0  0  0  0  0  0  0  0  0  0  0
    8.5296   -5.9814   17.1841 C   0  0  0  0  0  0  0  0  0  0  0  0
    9.1527   -5.2118   16.2116 C   0  0  0  0  0  0  0  0  0  0  0  0
   10.3364   -3.8368   22.9255 O   0  0  0  0  0  0  0  0  0  0  0  0
    9.6947   -4.8407   18.8534 C   0  0  0  0  0  0  0  0  0  0  0  0
    9.1596    1.7042   24.1381 C   0  0  0  0  0  0  0  0  0  0  0  0
   11.0456   -2.9774   18.2694 N   0  0  0  0  0  0  0  0  0  0  0  0
   10.4788   -3.0457   21.8593 C   0  0  0  0  0  0  0  0  0  0  0  0
    8.8693   -5.8099   18.4657 N   0  0  0  0  0  0  0  0  0  0  0  0
    8.9892   -0.7926   25.4573 C   0  0  0  0  0  0  0  0  0  0  0  0
   10.5677   -3.4462   20.5323 C   0  0  0  0  0  0  0  0  0  0  0  0
  1  8  1  0
  1 12  4  0
  1 14  4  0
  2  3  4  0
  2 18  4  0
  3 20  4  0
  3 22  4  0
  4 11  4  0
  4 21  4  0
  5  9  4  0
  5 16  4  0
  6 15  4  0
  6 16  4  0
  7 22  4  0
  7 26  4  0
  8 10  4  0
  8 25  4  0
  9 15  4  0
  9 17  1  0
 10 21  4  0
 11 25  4  0
 12 23  4  0
 13 20  4  0
 13 26  4  0
 14 19  4  0
 17 18  4  0
 17 24  4  0
 19 23  4  0
 20 24  4  0
 23 26  1  0
M  END
$$$$

 Created by Python create_sdf_string function

 26 30  0  0  0  0  0  0  0  0999 V2000
   10.0084   -1.8019   23.4945 C   0  0  0  0  0  0  0  0  0  0  0  0
   10.0005   -4.2520   16.5631 C   0  0  0  0  0  0  0  0  0  0  0  0
   10.2759   -4.0036   17.8845 C   0  0  0  0  0  0  0  0  0  0  0  0
    8.5652    1.5478   25.3778 N   0  0  0  0  0  0  0  0  0  0  0  0
    6.8048   -7.5457   17.8752 C   0  0  0  0  0  0  0  0  0  0  0  0
    6.1721   -8.2186   15.9886 N   0  0  0  0  0  0  0  0  0  0  0  0
   11.1764   -2.6600   19.5604 C   0  0  0  0  0  0  0  0  0  0  0  0
    9.5491   -0.6380   24.1912 C   0  0  0  0  0  0  0  0  0  0  0  0
    7.5337   -6.9256   16.9519 C   0  0  0  0  0  0  0  0  0  0  0  0
    9.6782    0.5671   23.5143 C   0  0  0  0  0  0  0  0  0  0  0  0
    8.4532    0.3482   26.0821 C   0  0  0  0  0  0  0  0  0  0  0  0
   10.4239   -1.7677   22.2230 N   0  0  0  0  0  0  0  0  0  0  0  0
    9.9468   -4.5953   20.1709 C   0  0  0  0  0  0  0  0  0  0  0  0
   10.0366   -3.0590   23.9864 N   0  0  0  0  0  0  0  0  0  0  0  0
    7.1191   -7.3636   15.7739 C   0  0  0  0  0  0  0  0  0  0  0  0
    5.9612   -8.3203   17.2732 N   0  0  0  0  0  0  0  0  0  0  0  0
    8.5296   -5.9814   17.1841 C   0  0  0  0  0  0  0  0  0  0  0  0
    9.1527   -5.2118   16.2116 C   0  0  0  0  0  0  0  0  0  0  0  0
   10.3364   -3.8368   22.9255 O   0  0  0  0  0  0  0  0  0  0  0  0
    9.6947   -4.8407   18.8534 C   0  0  0  0  0  0  0  0  0  0  0  0
    9.1596    1.7042   24.1381 C   0  0  0  0  0  0  0  0  0  0  0  0
   11.0456   -2.9774   18.2694 N   0  0  0  0  0  0  0  0  0  0  0  0
   10.4788   -3.0457   21.8593 C   0  0  0  0  0  0  0  0  0  0  0  0
    8.8693   -5.8099   18.4657 N   0  0  0  0  0  0  0  0  0  0  0  0
    8.9892   -0.7926   25.4573 C   0  0  0  0  0  0  0  0  0  0  0  0
   10.5677   -3.4462   20.5323 C   0  0  0  0  0  0  0  0  0  0  0  0
  1  8  1  0
  1 12  4  0
  1 14  4  0
  2  3  4  0
  2 18  4  0
  3 20  4  0
  3 22  4  0
  4 11  4  0
  4 21  4  0
  5  9  4  0
  5 16  4  0
  6 15  4  0
  6 16  4  0
  7 22  4  0
  7 26  4  0
  8 10  4  0
  8 25  4  0
  9 15  4  0
  9 17  1  0
 10 21  4  0
 11 25  4  0
 12 23  4  0
 13 20  4  0
 13 26  4  0
 14 19  4  0
 17 18  4  0
 17 24  4  0
 19 23  4  0
 20 24  4  0
 23 26  1  0
M  END
$$$$

 Created by Python create_sdf_string function

 26 30  0  0  0  0  0  0  0  0999 V2000
   10.0084   -1.8019   23.4945 C   0  0  0  0  0  0  0  0  0  0  0  0
   10.0005   -4.2520   16.5631 C   0  0  0  0  0  0  0  0  0  0  0  0
   10.2759   -4.0036   17.8845 C   0  0  0  0  0  0  0  0  0  0  0  0
    8.5652    1.5478   25.3778 N   0  0  0  0  0  0  0  0  0  0  0  0
    6.8048   -7.5457   17.8752 C   0  0  0  0  0  0  0  0  0  0  0  0
    6.1721   -8.2186   15.9886 N   0  0  0  0  0  0  0  0  0  0  0  0
   11.1764   -2.6600   19.5604 C   0  0  0  0  0  0  0  0  0  0  0  0
    9.5491   -0.6380   24.1912 C   0  0  0  0  0  0  0  0  0  0  0  0
    7.5337   -6.9256   16.9519 C   0  0  0  0  0  0  0  0  0  0  0  0
    9.6782    0.5671   23.5143 C   0  0  0  0  0  0  0  0  0  0  0  0
    8.4532    0.3482   26.0821 C   0  0  0  0  0  0  0  0  0  0  0  0
   10.4239   -1.7677   22.2230 N   0  0  0  0  0  0  0  0  0  0  0  0
    9.9468   -4.5953   20.1709 C   0  0  0  0  0  0  0  0  0  0  0  0
   10.0366   -3.0590   23.9864 N   0  0  0  0  0  0  0  0  0  0  0  0
    7.1191   -7.3636   15.7739 C   0  0  0  0  0  0  0  0  0  0  0  0
    5.9612   -8.3203   17.2732 N   0  0  0  0  0  0  0  0  0  0  0  0
    8.5296   -5.9814   17.1841 C   0  0  0  0  0  0  0  0  0  0  0  0
    9.1527   -5.2118   16.2116 C   0  0  0  0  0  0  0  0  0  0  0  0
   10.3364   -3.8368   22.9255 O   0  0  0  0  0  0  0  0  0  0  0  0
    9.6947   -4.8407   18.8534 C   0  0  0  0  0  0  0  0  0  0  0  0
    9.1596    1.7042   24.1381 C   0  0  0  0  0  0  0  0  0  0  0  0
   11.0456   -2.9774   18.2694 N   0  0  0  0  0  0  0  0  0  0  0  0
   10.4788   -3.0457   21.8593 C   0  0  0  0  0  0  0  0  0  0  0  0
    8.8693   -5.8099   18.4657 N   0  0  0  0  0  0  0  0  0  0  0  0
    8.9892   -0.7926   25.4573 C   0  0  0  0  0  0  0  0  0  0  0  0
   10.5677   -3.4462   20.5323 C   0  0  0  0  0  0  0  0  0  0  0  0
  1  8  1  0
  1 12  4  0
  1 14  4  0
  2  3  4  0
  2 18  4  0
  3 20  4  0
  3 22  4  0
  4 11  4  0
  4 21  4  0
  5  9  4  0
  5 16  4  0
  6 15  4  0
  6 16  4  0
  7 22  4  0
  7 26  4  0
  8 10  4  0
  8 25  4  0
  9 15  4  0
  9 17  1  0
 10 21  4  0
 11 25  4  0
 12 23  4  0
 13 20  4  0
 13 26  4  0
 14 19  4  0
 17 18  4  0
 17 24  4  0
 19 23  4  0
 20 24  4  0
 23 26  1  0
M  END
$$$$

 Created by Python create_sdf_string function

 26 30  0  0  0  0  0  0  0  0999 V2000
   10.0084   -1.8019   23.4945 C   0  0  0  0  0  0  0  0  0  0  0  0
   10.0005   -4.2520   16.5631 C   0  0  0  0  0  0  0  0  0  0  0  0
   10.2759   -4.0036   17.8845 C   0  0  0  0  0  0  0  0  0  0  0  0
    8.5652    1.5478   25.3778 N   0  0  0  0  0  0  0  0  0  0  0  0
    6.8048   -7.5457   17.8752 C   0  0  0  0  0  0  0  0  0  0  0  0
    6.1721   -8.2186   15.9886 N   0  0  0  0  0  0  0  0  0  0  0  0
   11.1764   -2.6600   19.5604 C   0  0  0  0  0  0  0  0  0  0  0  0
    9.5491   -0.6380   24.1912 C   0  0  0  0  0  0  0  0  0  0  0  0
    7.5337   -6.9256   16.9519 C   0  0  0  0  0  0  0  0  0  0  0  0
    9.6782    0.5671   23.5143 C   0  0  0  0  0  0  0  0  0  0  0  0
    8.4532    0.3482   26.0821 C   0  0  0  0  0  0  0  0  0  0  0  0
   10.4239   -1.7677   22.2230 N   0  0  0  0  0  0  0  0  0  0  0  0
    9.9468   -4.5953   20.1709 C   0  0  0  0  0  0  0  0  0  0  0  0
   10.0366   -3.0590   23.9864 N   0  0  0  0  0  0  0  0  0  0  0  0
    7.1191   -7.3636   15.7739 C   0  0  0  0  0  0  0  0  0  0  0  0
    5.9612   -8.3203   17.2732 N   0  0  0  0  0  0  0  0  0  0  0  0
    8.5296   -5.9814   17.1841 C   0  0  0  0  0  0  0  0  0  0  0  0
    9.1527   -5.2118   16.2116 C   0  0  0  0  0  0  0  0  0  0  0  0
   10.3364   -3.8368   22.9255 O   0  0  0  0  0  0  0  0  0  0  0  0
    9.6947   -4.8407   18.8534 C   0  0  0  0  0  0  0  0  0  0  0  0
    9.1596    1.7042   24.1381 C   0  0  0  0  0  0  0  0  0  0  0  0
   11.0456   -2.9774   18.2694 N   0  0  0  0  0  0  0  0  0  0  0  0
   10.4788   -3.0457   21.8593 C   0  0  0  0  0  0  0  0  0  0  0  0
    8.8693   -5.8099   18.4657 N   0  0  0  0  0  0  0  0  0  0  0  0
    8.9892   -0.7926   25.4573 C   0  0  0  0  0  0  0  0  0  0  0  0
   10.5677   -3.4462   20.5323 C   0  0  0  0  0  0  0  0  0  0  0  0
  1  8  1  0
  1 12  4  0
  1 14  4  0
  2  3  4  0
  2 18  4  0
  3 20  4  0
  3 22  4  0
  4 11  4  0
  4 21  4  0
  5  9  4  0
  5 16  4  0
  6 15  4  0
  6 16  4  0
  7 22  4  0
  7 26  4  0
  8 10  4  0
  8 25  4  0
  9 15  4  0
  9 17  1  0
 10 21  4  0
 11 25  4  0
 12 23  4  0
 13 20  4  0
 13 26  4  0
 14 19  4  0
 17 18  4  0
 17 24  4  0
 19 23  4  0
 20 24  4  0
 23 26  1  0
M  END
$$$$

 Created by Python create_sdf_string function

 26 30  0  0  0  0  0  0  0  0999 V2000
   10.0084   -1.8019   23.4945 C   0  0  0  0  0  0  0  0  0  0  0  0
   10.0005   -4.2520   16.5631 C   0  0  0  0  0  0  0  0  0  0  0  0
   10.2759   -4.0036   17.8845 C   0  0  0  0  0  0  0  0  0  0  0  0
    8.5652    1.5478   25.3778 N   0  0  0  0  0  0  0  0  0  0  0  0
    6.8048   -7.5457   17.8752 C   0  0  0  0  0  0  0  0  0  0  0  0
    6.1721   -8.2186   15.9886 N   0  0  0  0  0  0  0  0  0  0  0  0
   11.1764   -2.6600   19.5604 C   0  0  0  0  0  0  0  0  0  0  0  0
    9.5491   -0.6380   24.1912 C   0  0  0  0  0  0  0  0  0  0  0  0
    7.5337   -6.9256   16.9519 C   0  0  0  0  0  0  0  0  0  0  0  0
    9.6782    0.5671   23.5143 C   0  0  0  0  0  0  0  0  0  0  0  0
    8.4532    0.3482   26.0821 C   0  0  0  0  0  0  0  0  0  0  0  0
   10.4239   -1.7677   22.2230 N   0  0  0  0  0  0  0  0  0  0  0  0
    9.9468   -4.5953   20.1709 C   0  0  0  0  0  0  0  0  0  0  0  0
   10.0366   -3.0590   23.9864 N   0  0  0  0  0  0  0  0  0  0  0  0
    7.1191   -7.3636   15.7739 C   0  0  0  0  0  0  0  0  0  0  0  0
    5.9612   -8.3203   17.2732 N   0  0  0  0  0  0  0  0  0  0  0  0
    8.5296   -5.9814   17.1841 C   0  0  0  0  0  0  0  0  0  0  0  0
    9.1527   -5.2118   16.2116 C   0  0  0  0  0  0  0  0  0  0  0  0
   10.3364   -3.8368   22.9255 O   0  0  0  0  0  0  0  0  0  0  0  0
    9.6947   -4.8407   18.8534 C   0  0  0  0  0  0  0  0  0  0  0  0
    9.1596    1.7042   24.1381 C   0  0  0  0  0  0  0  0  0  0  0  0
   11.0456   -2.9774   18.2694 N   0  0  0  0  0  0  0  0  0  0  0  0
   10.4788   -3.0457   21.8593 C   0  0  0  0  0  0  0  0  0  0  0  0
    8.8693   -5.8099   18.4657 N   0  0  0  0  0  0  0  0  0  0  0  0
    8.9892   -0.7926   25.4573 C   0  0  0  0  0  0  0  0  0  0  0  0
   10.5677   -3.4462   20.5323 C   0  0  0  0  0  0  0  0  0  0  0  0
  1  8  1  0
  1 12  4  0
  1 14  4  0
  2  3  4  0
  2 18  4  0
  3 20  4  0
  3 22  4  0
  4 11  4  0
  4 21  4  0
  5  9  4  0
  5 16  4  0
  6 15  4  0
  6 16  4  0
  7 22  4  0
  7 26  4  0
  8 10  4  0
  8 25  4  0
  9 15  4  0
  9 17  1  0
 10 21  4  0
 11 25  4  0
 12 23  4  0
 13 20  4  0
 13 26  4  0
 14 19  4  0
 17 18  4  0
 17 24  4  0
 19 23  4  0
 20 24  4  0
 23 26  1  0
M  END
$$$$

 Created by Python create_sdf_string function

 26 30  0  0  0  0  0  0  0  0999 V2000
   10.0084   -1.8019   23.4945 C   0  0  0  0  0  0  0  0  0  0  0  0
   10.0005   -4.2520   16.5631 C   0  0  0  0  0  0  0  0  0  0  0  0
   10.2759   -4.0036   17.8845 C   0  0  0  0  0  0  0  0  0  0  0  0
    8.5652    1.5478   25.3778 N   0  0  0  0  0  0  0  0  0  0  0  0
    6.8048   -7.5457   17.8752 C   0  0  0  0  0  0  0  0  0  0  0  0
    6.1721   -8.2186   15.9886 N   0  0  0  0  0  0  0  0  0  0  0  0
   11.1764   -2.6600   19.5604 C   0  0  0  0  0  0  0  0  0  0  0  0
    9.5491   -0.6380   24.1912 C   0  0  0  0  0  0  0  0  0  0  0  0
    7.5337   -6.9256   16.9519 C   0  0  0  0  0  0  0  0  0  0  0  0
    9.6782    0.5671   23.5143 C   0  0  0  0  0  0  0  0  0  0  0  0
    8.4532    0.3482   26.0821 C   0  0  0  0  0  0  0  0  0  0  0  0
   10.4239   -1.7677   22.2230 N   0  0  0  0  0  0  0  0  0  0  0  0
    9.9468   -4.5953   20.1709 C   0  0  0  0  0  0  0  0  0  0  0  0
   10.0366   -3.0590   23.9864 N   0  0  0  0  0  0  0  0  0  0  0  0
    7.1191   -7.3636   15.7739 C   0  0  0  0  0  0  0  0  0  0  0  0
    5.9612   -8.3203   17.2732 N   0  0  0  0  0  0  0  0  0  0  0  0
    8.5296   -5.9814   17.1841 C   0  0  0  0  0  0  0  0  0  0  0  0
    9.1527   -5.2118   16.2116 C   0  0  0  0  0  0  0  0  0  0  0  0
   10.3364   -3.8368   22.9255 O   0  0  0  0  0  0  0  0  0  0  0  0
    9.6947   -4.8407   18.8534 C   0  0  0  0  0  0  0  0  0  0  0  0
    9.1596    1.7042   24.1381 C   0  0  0  0  0  0  0  0  0  0  0  0
   11.0456   -2.9774   18.2694 N   0  0  0  0  0  0  0  0  0  0  0  0
   10.4788   -3.0457   21.8593 C   0  0  0  0  0  0  0  0  0  0  0  0
    8.8693   -5.8099   18.4657 N   0  0  0  0  0  0  0  0  0  0  0  0
    8.9892   -0.7926   25.4573 C   0  0  0  0  0  0  0  0  0  0  0  0
   10.5677   -3.4462   20.5323 C   0  0  0  0  0  0  0  0  0  0  0  0
  1  8  1  0
  1 12  4  0
  1 14  4  0
  2  3  4  0
  2 18  4  0
  3 20  4  0
  3 22  4  0
  4 11  4  0
  4 21  4  0
  5  9  4  0
  5 16  4  0
  6 15  4  0
  6 16  4  0
  7 22  4  0
  7 26  4  0
  8 10  4  0
  8 25  4  0
  9 15  4  0
  9 17  1  0
 10 21  4  0
 11 25  4  0
 12 23  4  0
 13 20  4  0
 13 26  4  0
 14 19  4  0
 17 18  4  0
 17 24  4  0
 19 23  4  0
 20 24  4  0
 23 26  1  0
M  END
$$$$

 Created by Python create_sdf_string function

 26 30  0  0  0  0  0  0  0  0999 V2000
   10.0084   -1.8019   23.4945 C   0  0  0  0  0  0  0  0  0  0  0  0
   10.0005   -4.2520   16.5631 C   0  0  0  0  0  0  0  0  0  0  0  0
   10.2759   -4.0036   17.8845 C   0  0  0  0  0  0  0  0  0  0  0  0
    8.5652    1.5478   25.3778 N   0  0  0  0  0  0  0  0  0  0  0  0
    6.8048   -7.5457   17.8752 C   0  0  0  0  0  0  0  0  0  0  0  0
    6.1721   -8.2186   15.9886 N   0  0  0  0  0  0  0  0  0  0  0  0
   11.1764   -2.6600   19.5604 C   0  0  0  0  0  0  0  0  0  0  0  0
    9.5491   -0.6380   24.1912 C   0  0  0  0  0  0  0  0  0  0  0  0
    7.5337   -6.9256   16.9519 C   0  0  0  0  0  0  0  0  0  0  0  0
    9.6782    0.5671   23.5143 C   0  0  0  0  0  0  0  0  0  0  0  0
    8.4532    0.3482   26.0821 C   0  0  0  0  0  0  0  0  0  0  0  0
   10.4239   -1.7677   22.2230 N   0  0  0  0  0  0  0  0  0  0  0  0
    9.9468   -4.5953   20.1709 C   0  0  0  0  0  0  0  0  0  0  0  0
   10.0366   -3.0590   23.9864 N   0  0  0  0  0  0  0  0  0  0  0  0
    7.1191   -7.3636   15.7739 C   0  0  0  0  0  0  0  0  0  0  0  0
    5.9612   -8.3203   17.2732 N   0  0  0  0  0  0  0  0  0  0  0  0
    8.5296   -5.9814   17.1841 C   0  0  0  0  0  0  0  0  0  0  0  0
    9.1527   -5.2118   16.2116 C   0  0  0  0  0  0  0  0  0  0  0  0
   10.3364   -3.8368   22.9255 O   0  0  0  0  0  0  0  0  0  0  0  0
    9.6947   -4.8407   18.8534 C   0  0  0  0  0  0  0  0  0  0  0  0
    9.1596    1.7042   24.1381 C   0  0  0  0  0  0  0  0  0  0  0  0
   11.0456   -2.9774   18.2694 N   0  0  0  0  0  0  0  0  0  0  0  0
   10.4788   -3.0457   21.8593 C   0  0  0  0  0  0  0  0  0  0  0  0
    8.8693   -5.8099   18.4657 N   0  0  0  0  0  0  0  0  0  0  0  0
    8.9892   -0.7926   25.4573 C   0  0  0  0  0  0  0  0  0  0  0  0
   10.5677   -3.4462   20.5323 C   0  0  0  0  0  0  0  0  0  0  0  0
  1  8  1  0
  1 12  4  0
  1 14  4  0
  2  3  4  0
  2 18  4  0
  3 20  4  0
  3 22  4  0
  4 11  4  0
  4 21  4  0
  5  9  4  0
  5 16  4  0
  6 15  4  0
  6 16  4  0
  7 22  4  0
  7 26  4  0
  8 10  4  0
  8 25  4  0
  9 15  4  0
  9 17  1  0
 10 21  4  0
 11 25  4  0
 12 23  4  0
 13 20  4  0
 13 26  4  0
 14 19  4  0
 17 18  4  0
 17 24  4  0
 19 23  4  0
 20 24  4  0
 23 26  1  0
M  END
$$$$

 Created by Python create_sdf_string function

 26 30  0  0  0  0  0  0  0  0999 V2000
   10.0084   -1.8019   23.4945 C   0  0  0  0  0  0  0  0  0  0  0  0
   10.0005   -4.2520   16.5631 C   0  0  0  0  0  0  0  0  0  0  0  0
   10.2759   -4.0036   17.8845 C   0  0  0  0  0  0  0  0  0  0  0  0
    8.5652    1.5478   25.3778 N   0  0  0  0  0  0  0  0  0  0  0  0
    6.8048   -7.5457   17.8752 C   0  0  0  0  0  0  0  0  0  0  0  0
    6.1721   -8.2186   15.9886 N   0  0  0  0  0  0  0  0  0  0  0  0
   11.1764   -2.6600   19.5604 C   0  0  0  0  0  0  0  0  0  0  0  0
    9.5491   -0.6380   24.1912 C   0  0  0  0  0  0  0  0  0  0  0  0
    7.5337   -6.9256   16.9519 C   0  0  0  0  0  0  0  0  0  0  0  0
    9.6782    0.5671   23.5143 C   0  0  0  0  0  0  0  0  0  0  0  0
    8.4532    0.3482   26.0821 C   0  0  0  0  0  0  0  0  0  0  0  0
   10.4239   -1.7677   22.2230 N   0  0  0  0  0  0  0  0  0  0  0  0
    9.9468   -4.5953   20.1709 C   0  0  0  0  0  0  0  0  0  0  0  0
   10.0366   -3.0590   23.9864 N   0  0  0  0  0  0  0  0  0  0  0  0
    7.1191   -7.3636   15.7739 C   0  0  0  0  0  0  0  0  0  0  0  0
    5.9612   -8.3203   17.2732 N   0  0  0  0  0  0  0  0  0  0  0  0
    8.5296   -5.9814   17.1841 C   0  0  0  0  0  0  0  0  0  0  0  0
    9.1527   -5.2118   16.2116 C   0  0  0  0  0  0  0  0  0  0  0  0
   10.3364   -3.8368   22.9255 O   0  0  0  0  0  0  0  0  0  0  0  0
    9.6947   -4.8407   18.8534 C   0  0  0  0  0  0  0  0  0  0  0  0
    9.1596    1.7042   24.1381 C   0  0  0  0  0  0  0  0  0  0  0  0
   11.0456   -2.9774   18.2694 N   0  0  0  0  0  0  0  0  0  0  0  0
   10.4788   -3.0457   21.8593 C   0  0  0  0  0  0  0  0  0  0  0  0
    8.8693   -5.8099   18.4657 N   0  0  0  0  0  0  0  0  0  0  0  0
    8.9892   -0.7926   25.4573 C   0  0  0  0  0  0  0  0  0  0  0  0
   10.5677   -3.4462   20.5323 C   0  0  0  0  0  0  0  0  0  0  0  0
  1  8  1  0
  1 12  4  0
  1 14  4  0
  2  3  4  0
  2 18  4  0
  3 20  4  0
  3 22  4  0
  4 11  4  0
  4 21  4  0
  5  9  4  0
  5 16  4  0
  6 15  4  0
  6 16  4  0
  7 22  4  0
  7 26  4  0
  8 10  4  0
  8 25  4  0
  9 15  4  0
  9 17  1  0
 10 21  4  0
 11 25  4  0
 12 23  4  0
 13 20  4  0
 13 26  4  0
 14 19  4  0
 17 18  4  0
 17 24  4  0
 19 23  4  0
 20 24  4  0
 23 26  1  0
M  END
$$$$

 Created by Python create_sdf_string function

 26 30  0  0  0  0  0  0  0  0999 V2000
   10.0084   -1.8019   23.4945 C   0  0  0  0  0  0  0  0  0  0  0  0
   10.0005   -4.2520   16.5631 C   0  0  0  0  0  0  0  0  0  0  0  0
   10.2759   -4.0036   17.8845 C   0  0  0  0  0  0  0  0  0  0  0  0
    8.5652    1.5478   25.3778 N   0  0  0  0  0  0  0  0  0  0  0  0
    6.8048   -7.5457   17.8752 C   0  0  0  0  0  0  0  0  0  0  0  0
    6.1721   -8.2186   15.9886 N   0  0  0  0  0  0  0  0  0  0  0  0
   11.1764   -2.6600   19.5604 C   0  0  0  0  0  0  0  0  0  0  0  0
    9.5491   -0.6380   24.1912 C   0  0  0  0  0  0  0  0  0  0  0  0
    7.5337   -6.9256   16.9519 C   0  0  0  0  0  0  0  0  0  0  0  0
    9.6782    0.5671   23.5143 C   0  0  0  0  0  0  0  0  0  0  0  0
    8.4532    0.3482   26.0821 C   0  0  0  0  0  0  0  0  0  0  0  0
   10.4239   -1.7677   22.2230 N   0  0  0  0  0  0  0  0  0  0  0  0
    9.9468   -4.5953   20.1709 C   0  0  0  0  0  0  0  0  0  0  0  0
   10.0366   -3.0590   23.9864 N   0  0  0  0  0  0  0  0  0  0  0  0
    7.1191   -7.3636   15.7739 C   0  0  0  0  0  0  0  0  0  0  0  0
    5.9612   -8.3203   17.2732 N   0  0  0  0  0  0  0  0  0  0  0  0
    8.5296   -5.9814   17.1841 C   0  0  0  0  0  0  0  0  0  0  0  0
    9.1527   -5.2118   16.2116 C   0  0  0  0  0  0  0  0  0  0  0  0
   10.3364   -3.8368   22.9255 O   0  0  0  0  0  0  0  0  0  0  0  0
    9.6947   -4.8407   18.8534 C   0  0  0  0  0  0  0  0  0  0  0  0
    9.1596    1.7042   24.1381 C   0  0  0  0  0  0  0  0  0  0  0  0
   11.0456   -2.9774   18.2694 N   0  0  0  0  0  0  0  0  0  0  0  0
   10.4788   -3.0457   21.8593 C   0  0  0  0  0  0  0  0  0  0  0  0
    8.8693   -5.8099   18.4657 N   0  0  0  0  0  0  0  0  0  0  0  0
    8.9892   -0.7926   25.4573 C   0  0  0  0  0  0  0  0  0  0  0  0
   10.5677   -3.4462   20.5323 C   0  0  0  0  0  0  0  0  0  0  0  0
  1  8  1  0
  1 12  4  0
  1 14  4  0
  2  3  4  0
  2 18  4  0
  3 20  4  0
  3 22  4  0
  4 11  4  0
  4 21  4  0
  5  9  4  0
  5 16  4  0
  6 15  4  0
  6 16  4  0
  7 22  4  0
  7 26  4  0
  8 10  4  0
  8 25  4  0
  9 15  4  0
  9 17  1  0
 10 21  4  0
 11 25  4  0
 12 23  4  0
 13 20  4  0
 13 26  4  0
 14 19  4  0
 17 18  4  0
 17 24  4  0
 19 23  4  0
 20 24  4  0
 23 26  1  0
M  END
$$$$

 Created by Python create_sdf_string function

 26 30  0  0  0  0  0  0  0  0999 V2000
   10.0084   -1.8019   23.4945 C   0  0  0  0  0  0  0  0  0  0  0  0
   10.0005   -4.2520   16.5631 C   0  0  0  0  0  0  0  0  0  0  0  0
   10.2759   -4.0036   17.8845 C   0  0  0  0  0  0  0  0  0  0  0  0
    8.5652    1.5478   25.3778 N   0  0  0  0  0  0  0  0  0  0  0  0
    6.8048   -7.5457   17.8752 C   0  0  0  0  0  0  0  0  0  0  0  0
    6.1721   -8.2186   15.9886 N   0  0  0  0  0  0  0  0  0  0  0  0
   11.1764   -2.6600   19.5604 C   0  0  0  0  0  0  0  0  0  0  0  0
    9.5491   -0.6380   24.1912 C   0  0  0  0  0  0  0  0  0  0  0  0
    7.5337   -6.9256   16.9519 C   0  0  0  0  0  0  0  0  0  0  0  0
    9.6782    0.5671   23.5143 C   0  0  0  0  0  0  0  0  0  0  0  0
    8.4532    0.3482   26.0821 C   0  0  0  0  0  0  0  0  0  0  0  0
   10.4239   -1.7677   22.2230 N   0  0  0  0  0  0  0  0  0  0  0  0
    9.9468   -4.5953   20.1709 C   0  0  0  0  0  0  0  0  0  0  0  0
   10.0366   -3.0590   23.9864 N   0  0  0  0  0  0  0  0  0  0  0  0
    7.1191   -7.3636   15.7739 C   0  0  0  0  0  0  0  0  0  0  0  0
    5.9612   -8.3203   17.2732 N   0  0  0  0  0  0  0  0  0  0  0  0
    8.5296   -5.9814   17.1841 C   0  0  0  0  0  0  0  0  0  0  0  0
    9.1527   -5.2118   16.2116 C   0  0  0  0  0  0  0  0  0  0  0  0
   10.3364   -3.8368   22.9255 O   0  0  0  0  0  0  0  0  0  0  0  0
    9.6947   -4.8407   18.8534 C   0  0  0  0  0  0  0  0  0  0  0  0
    9.1596    1.7042   24.1381 C   0  0  0  0  0  0  0  0  0  0  0  0
   11.0456   -2.9774   18.2694 N   0  0  0  0  0  0  0  0  0  0  0  0
   10.4788   -3.0457   21.8593 C   0  0  0  0  0  0  0  0  0  0  0  0
    8.8693   -5.8099   18.4657 N   0  0  0  0  0  0  0  0  0  0  0  0
    8.9892   -0.7926   25.4573 C   0  0  0  0  0  0  0  0  0  0  0  0
   10.5677   -3.4462   20.5323 C   0  0  0  0  0  0  0  0  0  0  0  0
  1  8  1  0
  1 12  4  0
  1 14  4  0
  2  3  4  0
  2 18  4  0
  3 20  4  0
  3 22  4  0
  4 11  4  0
  4 21  4  0
  5  9  4  0
  5 16  4  0
  6 15  4  0
  6 16  4  0
  7 22  4  0
  7 26  4  0
  8 10  4  0
  8 25  4  0
  9 15  4  0
  9 17  1  0
 10 21  4  0
 11 25  4  0
 12 23  4  0
 13 20  4  0
 13 26  4  0
 14 19  4  0
 17 18  4  0
 17 24  4  0
 19 23  4  0
 20 24  4  0
 23 26  1  0
M  END
$$$$

 Created by Python create_sdf_string function

 26 30  0  0  0  0  0  0  0  0999 V2000
   10.0084   -1.8019   23.4945 C   0  0  0  0  0  0  0  0  0  0  0  0
   10.0005   -4.2520   16.5631 C   0  0  0  0  0  0  0  0  0  0  0  0
   10.2759   -4.0036   17.8845 C   0  0  0  0  0  0  0  0  0  0  0  0
    8.5652    1.5478   25.3778 N   0  0  0  0  0  0  0  0  0  0  0  0
    6.8048   -7.5457   17.8752 C   0  0  0  0  0  0  0  0  0  0  0  0
    6.1721   -8.2186   15.9886 N   0  0  0  0  0  0  0  0  0  0  0  0
   11.1764   -2.6600   19.5604 C   0  0  0  0  0  0  0  0  0  0  0  0
    9.5491   -0.6380   24.1912 C   0  0  0  0  0  0  0  0  0  0  0  0
    7.5337   -6.9256   16.9519 C   0  0  0  0  0  0  0  0  0  0  0  0
    9.6782    0.5671   23.5143 C   0  0  0  0  0  0  0  0  0  0  0  0
    8.4532    0.3482   26.0821 C   0  0  0  0  0  0  0  0  0  0  0  0
   10.4239   -1.7677   22.2230 N   0  0  0  0  0  0  0  0  0  0  0  0
    9.9468   -4.5953   20.1709 C   0  0  0  0  0  0  0  0  0  0  0  0
   10.0366   -3.0590   23.9864 N   0  0  0  0  0  0  0  0  0  0  0  0
    7.1191   -7.3636   15.7739 C   0  0  0  0  0  0  0  0  0  0  0  0
    5.9612   -8.3203   17.2732 N   0  0  0  0  0  0  0  0  0  0  0  0
    8.5296   -5.9814   17.1841 C   0  0  0  0  0  0  0  0  0  0  0  0
    9.1527   -5.2118   16.2116 C   0  0  0  0  0  0  0  0  0  0  0  0
   10.3364   -3.8368   22.9255 O   0  0  0  0  0  0  0  0  0  0  0  0
    9.6947   -4.8407   18.8534 C   0  0  0  0  0  0  0  0  0  0  0  0
    9.1596    1.7042   24.1381 C   0  0  0  0  0  0  0  0  0  0  0  0
   11.0456   -2.9774   18.2694 N   0  0  0  0  0  0  0  0  0  0  0  0
   10.4788   -3.0457   21.8593 C   0  0  0  0  0  0  0  0  0  0  0  0
    8.8693   -5.8099   18.4657 N   0  0  0  0  0  0  0  0  0  0  0  0
    8.9892   -0.7926   25.4573 C   0  0  0  0  0  0  0  0  0  0  0  0
   10.5677   -3.4462   20.5323 C   0  0  0  0  0  0  0  0  0  0  0  0
  1  8  1  0
  1 12  4  0
  1 14  4  0
  2  3  4  0
  2 18  4  0
  3 20  4  0
  3 22  4  0
  4 11  4  0
  4 21  4  0
  5  9  4  0
  5 16  4  0
  6 15  4  0
  6 16  4  0
  7 22  4  0
  7 26  4  0
  8 10  4  0
  8 25  4  0
  9 15  4  0
  9 17  1  0
 10 21  4  0
 11 25  4  0
 12 23  4  0
 13 20  4  0
 13 26  4  0
 14 19  4  0
 17 18  4  0
 17 24  4  0
 19 23  4  0
 20 24  4  0
 23 26  1  0
M  END
$$$$

 Created by Python create_sdf_string function

 26 30  0  0  0  0  0  0  0  0999 V2000
   10.0084   -1.8019   23.4945 C   0  0  0  0  0  0  0  0  0  0  0  0
   10.0005   -4.2520   16.5631 C   0  0  0  0  0  0  0  0  0  0  0  0
   10.2759   -4.0036   17.8845 C   0  0  0  0  0  0  0  0  0  0  0  0
    8.5652    1.5478   25.3778 N   0  0  0  0  0  0  0  0  0  0  0  0
    6.8048   -7.5457   17.8752 C   0  0  0  0  0  0  0  0  0  0  0  0
    6.1721   -8.2186   15.9886 N   0  0  0  0  0  0  0  0  0  0  0  0
   11.1764   -2.6600   19.5604 C   0  0  0  0  0  0  0  0  0  0  0  0
    9.5491   -0.6380   24.1912 C   0  0  0  0  0  0  0  0  0  0  0  0
    7.5337   -6.9256   16.9519 C   0  0  0  0  0  0  0  0  0  0  0  0
    9.6782    0.5671   23.5143 C   0  0  0  0  0  0  0  0  0  0  0  0
    8.4532    0.3482   26.0821 C   0  0  0  0  0  0  0  0  0  0  0  0
   10.4239   -1.7677   22.2230 N   0  0  0  0  0  0  0  0  0  0  0  0
    9.9468   -4.5953   20.1709 C   0  0  0  0  0  0  0  0  0  0  0  0
   10.0366   -3.0590   23.9864 N   0  0  0  0  0  0  0  0  0  0  0  0
    7.1191   -7.3636   15.7739 C   0  0  0  0  0  0  0  0  0  0  0  0
    5.9612   -8.3203   17.2732 N   0  0  0  0  0  0  0  0  0  0  0  0
    8.5296   -5.9814   17.1841 C   0  0  0  0  0  0  0  0  0  0  0  0
    9.1527   -5.2118   16.2116 C   0  0  0  0  0  0  0  0  0  0  0  0
   10.3364   -3.8368   22.9255 O   0  0  0  0  0  0  0  0  0  0  0  0
    9.6947   -4.8407   18.8534 C   0  0  0  0  0  0  0  0  0  0  0  0
    9.1596    1.7042   24.1381 C   0  0  0  0  0  0  0  0  0  0  0  0
   11.0456   -2.9774   18.2694 N   0  0  0  0  0  0  0  0  0  0  0  0
   10.4788   -3.0457   21.8593 C   0  0  0  0  0  0  0  0  0  0  0  0
    8.8693   -5.8099   18.4657 N   0  0  0  0  0  0  0  0  0  0  0  0
    8.9892   -0.7926   25.4573 C   0  0  0  0  0  0  0  0  0  0  0  0
   10.5677   -3.4462   20.5323 C   0  0  0  0  0  0  0  0  0  0  0  0
  1  8  1  0
  1 12  4  0
  1 14  4  0
  2  3  4  0
  2 18  4  0
  3 20  4  0
  3 22  4  0
  4 11  4  0
  4 21  4  0
  5  9  4  0
  5 16  4  0
  6 15  4  0
  6 16  4  0
  7 22  4  0
  7 26  4  0
  8 10  4  0
  8 25  4  0
  9 15  4  0
  9 17  1  0
 10 21  4  0
 11 25  4  0
 12 23  4  0
 13 20  4  0
 13 26  4  0
 14 19  4  0
 17 18  4  0
 17 24  4  0
 19 23  4  0
 20 24  4  0
 23 26  1  0
M  END
$$$$

 Created by Python create_sdf_string function

 26 30  0  0  0  0  0  0  0  0999 V2000
   10.0084   -1.8019   23.4945 C   0  0  0  0  0  0  0  0  0  0  0  0
   10.0005   -4.2520   16.5631 C   0  0  0  0  0  0  0  0  0  0  0  0
   10.2759   -4.0036   17.8845 C   0  0  0  0  0  0  0  0  0  0  0  0
    8.5652    1.5478   25.3778 N   0  0  0  0  0  0  0  0  0  0  0  0
    6.8048   -7.5457   17.8752 C   0  0  0  0  0  0  0  0  0  0  0  0
    6.1721   -8.2186   15.9886 N   0  0  0  0  0  0  0  0  0  0  0  0
   11.1764   -2.6600   19.5604 C   0  0  0  0  0  0  0  0  0  0  0  0
    9.5491   -0.6380   24.1912 C   0  0  0  0  0  0  0  0  0  0  0  0
    7.5337   -6.9256   16.9519 C   0  0  0  0  0  0  0  0  0  0  0  0
    9.6782    0.5671   23.5143 C   0  0  0  0  0  0  0  0  0  0  0  0
    8.4532    0.3482   26.0821 C   0  0  0  0  0  0  0  0  0  0  0  0
   10.4239   -1.7677   22.2230 N   0  0  0  0  0  0  0  0  0  0  0  0
    9.9468   -4.5953   20.1709 C   0  0  0  0  0  0  0  0  0  0  0  0
   10.0366   -3.0590   23.9864 N   0  0  0  0  0  0  0  0  0  0  0  0
    7.1191   -7.3636   15.7739 C   0  0  0  0  0  0  0  0  0  0  0  0
    5.9612   -8.3203   17.2732 N   0  0  0  0  0  0  0  0  0  0  0  0
    8.5296   -5.9814   17.1841 C   0  0  0  0  0  0  0  0  0  0  0  0
    9.1527   -5.2118   16.2116 C   0  0  0  0  0  0  0  0  0  0  0  0
   10.3364   -3.8368   22.9255 O   0  0  0  0  0  0  0  0  0  0  0  0
    9.6947   -4.8407   18.8534 C   0  0  0  0  0  0  0  0  0  0  0  0
    9.1596    1.7042   24.1381 C   0  0  0  0  0  0  0  0  0  0  0  0
   11.0456   -2.9774   18.2694 N   0  0  0  0  0  0  0  0  0  0  0  0
   10.4788   -3.0457   21.8593 C   0  0  0  0  0  0  0  0  0  0  0  0
    8.8693   -5.8099   18.4657 N   0  0  0  0  0  0  0  0  0  0  0  0
    8.9892   -0.7926   25.4573 C   0  0  0  0  0  0  0  0  0  0  0  0
   10.5677   -3.4462   20.5323 C   0  0  0  0  0  0  0  0  0  0  0  0
  1  8  1  0
  1 12  4  0
  1 14  4  0
  2  3  4  0
  2 18  4  0
  3 20  4  0
  3 22  4  0
  4 11  4  0
  4 21  4  0
  5  9  4  0
  5 16  4  0
  6 15  4  0
  6 16  4  0
  7 22  4  0
  7 26  4  0
  8 10  4  0
  8 25  4  0
  9 15  4  0
  9 17  1  0
 10 21  4  0
 11 25  4  0
 12 23  4  0
 13 20  4  0
 13 26  4  0
 14 19  4  0
 17 18  4  0
 17 24  4  0
 19 23  4  0
 20 24  4  0
 23 26  1  0
M  END
$$$$

 Created by Python create_sdf_string function

 26 30  0  0  0  0  0  0  0  0999 V2000
   10.0084   -1.8019   23.4945 C   0  0  0  0  0  0  0  0  0  0  0  0
   10.0005   -4.2520   16.5631 C   0  0  0  0  0  0  0  0  0  0  0  0
   10.2759   -4.0036   17.8845 C   0  0  0  0  0  0  0  0  0  0  0  0
    8.5652    1.5478   25.3778 N   0  0  0  0  0  0  0  0  0  0  0  0
    6.8048   -7.5457   17.8752 C   0  0  0  0  0  0  0  0  0  0  0  0
    6.1721   -8.2186   15.9886 N   0  0  0  0  0  0  0  0  0  0  0  0
   11.1764   -2.6600   19.5604 C   0  0  0  0  0  0  0  0  0  0  0  0
    9.5491   -0.6380   24.1912 C   0  0  0  0  0  0  0  0  0  0  0  0
    7.5337   -6.9256   16.9519 C   0  0  0  0  0  0  0  0  0  0  0  0
    9.6782    0.5671   23.5143 C   0  0  0  0  0  0  0  0  0  0  0  0
    8.4532    0.3482   26.0821 C   0  0  0  0  0  0  0  0  0  0  0  0
   10.4239   -1.7677   22.2230 N   0  0  0  0  0  0  0  0  0  0  0  0
    9.9468   -4.5953   20.1709 C   0  0  0  0  0  0  0  0  0  0  0  0
   10.0366   -3.0590   23.9864 N   0  0  0  0  0  0  0  0  0  0  0  0
    7.1191   -7.3636   15.7739 C   0  0  0  0  0  0  0  0  0  0  0  0
    5.9612   -8.3203   17.2732 N   0  0  0  0  0  0  0  0  0  0  0  0
    8.5296   -5.9814   17.1841 C   0  0  0  0  0  0  0  0  0  0  0  0
    9.1527   -5.2118   16.2116 C   0  0  0  0  0  0  0  0  0  0  0  0
   10.3364   -3.8368   22.9255 O   0  0  0  0  0  0  0  0  0  0  0  0
    9.6947   -4.8407   18.8534 C   0  0  0  0  0  0  0  0  0  0  0  0
    9.1596    1.7042   24.1381 C   0  0  0  0  0  0  0  0  0  0  0  0
   11.0456   -2.9774   18.2694 N   0  0  0  0  0  0  0  0  0  0  0  0
   10.4788   -3.0457   21.8593 C   0  0  0  0  0  0  0  0  0  0  0  0
    8.8693   -5.8099   18.4657 N   0  0  0  0  0  0  0  0  0  0  0  0
    8.9892   -0.7926   25.4573 C   0  0  0  0  0  0  0  0  0  0  0  0
   10.5677   -3.4462   20.5323 C   0  0  0  0  0  0  0  0  0  0  0  0
  1  8  1  0
  1 12  4  0
  1 14  4  0
  2  3  4  0
  2 18  4  0
  3 20  4  0
  3 22  4  0
  4 11  4  0
  4 21  4  0
  5  9  4  0
  5 16  4  0
  6 15  4  0
  6 16  4  0
  7 22  4  0
  7 26  4  0
  8 10  4  0
  8 25  4  0
  9 15  4  0
  9 17  1  0
 10 21  4  0
 11 25  4  0
 12 23  4  0
 13 20  4  0
 13 26  4  0
 14 19  4  0
 17 18  4  0
 17 24  4  0
 19 23  4  0
 20 24  4  0
 23 26  1  0
M  END
$$$$

 Created by Python create_sdf_string function

 26 30  0  0  0  0  0  0  0  0999 V2000
   10.0084   -1.8019   23.4945 C   0  0  0  0  0  0  0  0  0  0  0  0
   10.0005   -4.2520   16.5631 C   0  0  0  0  0  0  0  0  0  0  0  0
   10.2759   -4.0036   17.8845 C   0  0  0  0  0  0  0  0  0  0  0  0
    8.5652    1.5478   25.3778 N   0  0  0  0  0  0  0  0  0  0  0  0
    6.8048   -7.5457   17.8752 C   0  0  0  0  0  0  0  0  0  0  0  0
    6.1721   -8.2186   15.9886 N   0  0  0  0  0  0  0  0  0  0  0  0
   11.1764   -2.6600   19.5604 C   0  0  0  0  0  0  0  0  0  0  0  0
    9.5491   -0.6380   24.1912 C   0  0  0  0  0  0  0  0  0  0  0  0
    7.5337   -6.9256   16.9519 C   0  0  0  0  0  0  0  0  0  0  0  0
    9.6782    0.5671   23.5143 C   0  0  0  0  0  0  0  0  0  0  0  0
    8.4532    0.3482   26.0821 C   0  0  0  0  0  0  0  0  0  0  0  0
   10.4239   -1.7677   22.2230 N   0  0  0  0  0  0  0  0  0  0  0  0
    9.9468   -4.5953   20.1709 C   0  0  0  0  0  0  0  0  0  0  0  0
   10.0366   -3.0590   23.9864 N   0  0  0  0  0  0  0  0  0  0  0  0
    7.1191   -7.3636   15.7739 C   0  0  0  0  0  0  0  0  0  0  0  0
    5.9612   -8.3203   17.2732 N   0  0  0  0  0  0  0  0  0  0  0  0
    8.5296   -5.9814   17.1841 C   0  0  0  0  0  0  0  0  0  0  0  0
    9.1527   -5.2118   16.2116 C   0  0  0  0  0  0  0  0  0  0  0  0
   10.3364   -3.8368   22.9255 O   0  0  0  0  0  0  0  0  0  0  0  0
    9.6947   -4.8407   18.8534 C   0  0  0  0  0  0  0  0  0  0  0  0
    9.1596    1.7042   24.1381 C   0  0  0  0  0  0  0  0  0  0  0  0
   11.0456   -2.9774   18.2694 N   0  0  0  0  0  0  0  0  0  0  0  0
   10.4788   -3.0457   21.8593 C   0  0  0  0  0  0  0  0  0  0  0  0
    8.8693   -5.8099   18.4657 N   0  0  0  0  0  0  0  0  0  0  0  0
    8.9892   -0.7926   25.4573 C   0  0  0  0  0  0  0  0  0  0  0  0
   10.5677   -3.4462   20.5323 C   0  0  0  0  0  0  0  0  0  0  0  0
  1  8  1  0
  1 12  4  0
  1 14  4  0
  2  3  4  0
  2 18  4  0
  3 20  4  0
  3 22  4  0
  4 11  4  0
  4 21  4  0
  5  9  4  0
  5 16  4  0
  6 15  4  0
  6 16  4  0
  7 22  4  0
  7 26  4  0
  8 10  4  0
  8 25  4  0
  9 15  4  0
  9 17  1  0
 10 21  4  0
 11 25  4  0
 12 23  4  0
 13 20  4  0
 13 26  4  0
 14 19  4  0
 17 18  4  0
 17 24  4  0
 19 23  4  0
 20 24  4  0
 23 26  1  0
M  END
$$$$

 Created by Python create_sdf_string function

 26 30  0  0  0  0  0  0  0  0999 V2000
   10.0084   -1.8019   23.4945 C   0  0  0  0  0  0  0  0  0  0  0  0
   10.0005   -4.2520   16.5631 C   0  0  0  0  0  0  0  0  0  0  0  0
   10.2759   -4.0036   17.8845 C   0  0  0  0  0  0  0  0  0  0  0  0
    8.5652    1.5478   25.3778 N   0  0  0  0  0  0  0  0  0  0  0  0
    6.8048   -7.5457   17.8752 C   0  0  0  0  0  0  0  0  0  0  0  0
    6.1721   -8.2186   15.9886 N   0  0  0  0  0  0  0  0  0  0  0  0
   11.1764   -2.6600   19.5604 C   0  0  0  0  0  0  0  0  0  0  0  0
    9.5491   -0.6380   24.1912 C   0  0  0  0  0  0  0  0  0  0  0  0
    7.5337   -6.9256   16.9519 C   0  0  0  0  0  0  0  0  0  0  0  0
    9.6782    0.5671   23.5143 C   0  0  0  0  0  0  0  0  0  0  0  0
    8.4532    0.3482   26.0821 C   0  0  0  0  0  0  0  0  0  0  0  0
   10.4239   -1.7677   22.2230 N   0  0  0  0  0  0  0  0  0  0  0  0
    9.9468   -4.5953   20.1709 C   0  0  0  0  0  0  0  0  0  0  0  0
   10.0366   -3.0590   23.9864 N   0  0  0  0  0  0  0  0  0  0  0  0
    7.1191   -7.3636   15.7739 C   0  0  0  0  0  0  0  0  0  0  0  0
    5.9612   -8.3203   17.2732 N   0  0  0  0  0  0  0  0  0  0  0  0
    8.5296   -5.9814   17.1841 C   0  0  0  0  0  0  0  0  0  0  0  0
    9.1527   -5.2118   16.2116 C   0  0  0  0  0  0  0  0  0  0  0  0
   10.3364   -3.8368   22.9255 O   0  0  0  0  0  0  0  0  0  0  0  0
    9.6947   -4.8407   18.8534 C   0  0  0  0  0  0  0  0  0  0  0  0
    9.1596    1.7042   24.1381 C   0  0  0  0  0  0  0  0  0  0  0  0
   11.0456   -2.9774   18.2694 N   0  0  0  0  0  0  0  0  0  0  0  0
   10.4788   -3.0457   21.8593 C   0  0  0  0  0  0  0  0  0  0  0  0
    8.8693   -5.8099   18.4657 N   0  0  0  0  0  0  0  0  0  0  0  0
    8.9892   -0.7926   25.4573 C   0  0  0  0  0  0  0  0  0  0  0  0
   10.5677   -3.4462   20.5323 C   0  0  0  0  0  0  0  0  0  0  0  0
  1  8  1  0
  1 12  4  0
  1 14  4  0
  2  3  4  0
  2 18  4  0
  3 20  4  0
  3 22  4  0
  4 11  4  0
  4 21  4  0
  5  9  4  0
  5 16  4  0
  6 15  4  0
  6 16  4  0
  7 22  4  0
  7 26  4  0
  8 10  4  0
  8 25  4  0
  9 15  4  0
  9 17  1  0
 10 21  4  0
 11 25  4  0
 12 23  4  0
 13 20  4  0
 13 26  4  0
 14 19  4  0
 17 18  4  0
 17 24  4  0
 19 23  4  0
 20 24  4  0
 23 26  1  0
M  END
$$$$

 Created by Python create_sdf_string function

 26 30  0  0  0  0  0  0  0  0999 V2000
   10.0084   -1.8019   23.4945 C   0  0  0  0  0  0  0  0  0  0  0  0
   10.0005   -4.2520   16.5631 C   0  0  0  0  0  0  0  0  0  0  0  0
   10.2759   -4.0036   17.8845 C   0  0  0  0  0  0  0  0  0  0  0  0
    8.5652    1.5478   25.3778 N   0  0  0  0  0  0  0  0  0  0  0  0
    6.8048   -7.5457   17.8752 C   0  0  0  0  0  0  0  0  0  0  0  0
    6.1721   -8.2186   15.9886 N   0  0  0  0  0  0  0  0  0  0  0  0
   11.1764   -2.6600   19.5604 C   0  0  0  0  0  0  0  0  0  0  0  0
    9.5491   -0.6380   24.1912 C   0  0  0  0  0  0  0  0  0  0  0  0
    7.5337   -6.9256   16.9519 C   0  0  0  0  0  0  0  0  0  0  0  0
    9.6782    0.5671   23.5143 C   0  0  0  0  0  0  0  0  0  0  0  0
    8.4532    0.3482   26.0821 C   0  0  0  0  0  0  0  0  0  0  0  0
   10.4239   -1.7677   22.2230 N   0  0  0  0  0  0  0  0  0  0  0  0
    9.9468   -4.5953   20.1709 C   0  0  0  0  0  0  0  0  0  0  0  0
   10.0366   -3.0590   23.9864 N   0  0  0  0  0  0  0  0  0  0  0  0
    7.1191   -7.3636   15.7739 C   0  0  0  0  0  0  0  0  0  0  0  0
    5.9612   -8.3203   17.2732 N   0  0  0  0  0  0  0  0  0  0  0  0
    8.5296   -5.9814   17.1841 C   0  0  0  0  0  0  0  0  0  0  0  0
    9.1527   -5.2118   16.2116 C   0  0  0  0  0  0  0  0  0  0  0  0
   10.3364   -3.8368   22.9255 O   0  0  0  0  0  0  0  0  0  0  0  0
    9.6947   -4.8407   18.8534 C   0  0  0  0  0  0  0  0  0  0  0  0
    9.1596    1.7042   24.1381 C   0  0  0  0  0  0  0  0  0  0  0  0
   11.0456   -2.9774   18.2694 N   0  0  0  0  0  0  0  0  0  0  0  0
   10.4788   -3.0457   21.8593 C   0  0  0  0  0  0  0  0  0  0  0  0
    8.8693   -5.8099   18.4657 N   0  0  0  0  0  0  0  0  0  0  0  0
    8.9892   -0.7926   25.4573 C   0  0  0  0  0  0  0  0  0  0  0  0
   10.5677   -3.4462   20.5323 C   0  0  0  0  0  0  0  0  0  0  0  0
  1  8  1  0
  1 12  4  0
  1 14  4  0
  2  3  4  0
  2 18  4  0
  3 20  4  0
  3 22  4  0
  4 11  4  0
  4 21  4  0
  5  9  4  0
  5 16  4  0
  6 15  4  0
  6 16  4  0
  7 22  4  0
  7 26  4  0
  8 10  4  0
  8 25  4  0
  9 15  4  0
  9 17  1  0
 10 21  4  0
 11 25  4  0
 12 23  4  0
 13 20  4  0
 13 26  4  0
 14 19  4  0
 17 18  4  0
 17 24  4  0
 19 23  4  0
 20 24  4  0
 23 26  1  0
M  END
$$$$

 Created by Python create_sdf_string function

 26 30  0  0  0  0  0  0  0  0999 V2000
   10.0084   -1.8019   23.4945 C   0  0  0  0  0  0  0  0  0  0  0  0
   10.0005   -4.2520   16.5631 C   0  0  0  0  0  0  0  0  0  0  0  0
   10.2759   -4.0036   17.8845 C   0  0  0  0  0  0  0  0  0  0  0  0
    8.5652    1.5478   25.3778 N   0  0  0  0  0  0  0  0  0  0  0  0
    6.8048   -7.5457   17.8752 C   0  0  0  0  0  0  0  0  0  0  0  0
    6.1721   -8.2186   15.9886 N   0  0  0  0  0  0  0  0  0  0  0  0
   11.1764   -2.6600   19.5604 C   0  0  0  0  0  0  0  0  0  0  0  0
    9.5491   -0.6380   24.1912 C   0  0  0  0  0  0  0  0  0  0  0  0
    7.5337   -6.9256   16.9519 C   0  0  0  0  0  0  0  0  0  0  0  0
    9.6782    0.5671   23.5143 C   0  0  0  0  0  0  0  0  0  0  0  0
    8.4532    0.3482   26.0821 C   0  0  0  0  0  0  0  0  0  0  0  0
   10.4239   -1.7677   22.2230 N   0  0  0  0  0  0  0  0  0  0  0  0
    9.9468   -4.5953   20.1709 C   0  0  0  0  0  0  0  0  0  0  0  0
   10.0366   -3.0590   23.9864 N   0  0  0  0  0  0  0  0  0  0  0  0
    7.1191   -7.3636   15.7739 C   0  0  0  0  0  0  0  0  0  0  0  0
    5.9612   -8.3203   17.2732 N   0  0  0  0  0  0  0  0  0  0  0  0
    8.5296   -5.9814   17.1841 C   0  0  0  0  0  0  0  0  0  0  0  0
    9.1527   -5.2118   16.2116 C   0  0  0  0  0  0  0  0  0  0  0  0
   10.3364   -3.8368   22.9255 O   0  0  0  0  0  0  0  0  0  0  0  0
    9.6947   -4.8407   18.8534 C   0  0  0  0  0  0  0  0  0  0  0  0
    9.1596    1.7042   24.1381 C   0  0  0  0  0  0  0  0  0  0  0  0
   11.0456   -2.9774   18.2694 N   0  0  0  0  0  0  0  0  0  0  0  0
   10.4788   -3.0457   21.8593 C   0  0  0  0  0  0  0  0  0  0  0  0
    8.8693   -5.8099   18.4657 N   0  0  0  0  0  0  0  0  0  0  0  0
    8.9892   -0.7926   25.4573 C   0  0  0  0  0  0  0  0  0  0  0  0
   10.5677   -3.4462   20.5323 C   0  0  0  0  0  0  0  0  0  0  0  0
  1  8  1  0
  1 12  4  0
  1 14  4  0
  2  3  4  0
  2 18  4  0
  3 20  4  0
  3 22  4  0
  4 11  4  0
  4 21  4  0
  5  9  4  0
  5 16  4  0
  6 15  4  0
  6 16  4  0
  7 22  4  0
  7 26  4  0
  8 10  4  0
  8 25  4  0
  9 15  4  0
  9 17  1  0
 10 21  4  0
 11 25  4  0
 12 23  4  0
 13 20  4  0
 13 26  4  0
 14 19  4  0
 17 18  4  0
 17 24  4  0
 19 23  4  0
 20 24  4  0
 23 26  1  0
M  END
$$$$

 Created by Python create_sdf_string function

 26 30  0  0  0  0  0  0  0  0999 V2000
   10.0084   -1.8019   23.4945 C   0  0  0  0  0  0  0  0  0  0  0  0
   10.0005   -4.2520   16.5631 C   0  0  0  0  0  0  0  0  0  0  0  0
   10.2759   -4.0036   17.8845 C   0  0  0  0  0  0  0  0  0  0  0  0
    8.5652    1.5478   25.3778 N   0  0  0  0  0  0  0  0  0  0  0  0
    6.8048   -7.5457   17.8752 C   0  0  0  0  0  0  0  0  0  0  0  0
    6.1721   -8.2186   15.9886 N   0  0  0  0  0  0  0  0  0  0  0  0
   11.1764   -2.6600   19.5604 C   0  0  0  0  0  0  0  0  0  0  0  0
    9.5491   -0.6380   24.1912 C   0  0  0  0  0  0  0  0  0  0  0  0
    7.5337   -6.9256   16.9519 C   0  0  0  0  0  0  0  0  0  0  0  0
    9.6782    0.5671   23.5143 C   0  0  0  0  0  0  0  0  0  0  0  0
    8.4532    0.3482   26.0821 C   0  0  0  0  0  0  0  0  0  0  0  0
   10.4239   -1.7677   22.2230 N   0  0  0  0  0  0  0  0  0  0  0  0
    9.9468   -4.5953   20.1709 C   0  0  0  0  0  0  0  0  0  0  0  0
   10.0366   -3.0590   23.9864 N   0  0  0  0  0  0  0  0  0  0  0  0
    7.1191   -7.3636   15.7739 C   0  0  0  0  0  0  0  0  0  0  0  0
    5.9612   -8.3203   17.2732 N   0  0  0  0  0  0  0  0  0  0  0  0
    8.5296   -5.9814   17.1841 C   0  0  0  0  0  0  0  0  0  0  0  0
    9.1527   -5.2118   16.2116 C   0  0  0  0  0  0  0  0  0  0  0  0
   10.3364   -3.8368   22.9255 O   0  0  0  0  0  0  0  0  0  0  0  0
    9.6947   -4.8407   18.8534 C   0  0  0  0  0  0  0  0  0  0  0  0
    9.1596    1.7042   24.1381 C   0  0  0  0  0  0  0  0  0  0  0  0
   11.0456   -2.9774   18.2694 N   0  0  0  0  0  0  0  0  0  0  0  0
   10.4788   -3.0457   21.8593 C   0  0  0  0  0  0  0  0  0  0  0  0
    8.8693   -5.8099   18.4657 N   0  0  0  0  0  0  0  0  0  0  0  0
    8.9892   -0.7926   25.4573 C   0  0  0  0  0  0  0  0  0  0  0  0
   10.5677   -3.4462   20.5323 C   0  0  0  0  0  0  0  0  0  0  0  0
  1  8  1  0
  1 12  4  0
  1 14  4  0
  2  3  4  0
  2 18  4  0
  3 20  4  0
  3 22  4  0
  4 11  4  0
  4 21  4  0
  5  9  4  0
  5 16  4  0
  6 15  4  0
  6 16  4  0
  7 22  4  0
  7 26  4  0
  8 10  4  0
  8 25  4  0
  9 15  4  0
  9 17  1  0
 10 21  4  0
 11 25  4  0
 12 23  4  0
 13 20  4  0
 13 26  4  0
 14 19  4  0
 17 18  4  0
 17 24  4  0
 19 23  4  0
 20 24  4  0
 23 26  1  0
M  END
$$$$

 Created by Python create_sdf_string function

 26 30  0  0  0  0  0  0  0  0999 V2000
   10.0084   -1.8019   23.4945 C   0  0  0  0  0  0  0  0  0  0  0  0
   10.0005   -4.2520   16.5631 C   0  0  0  0  0  0  0  0  0  0  0  0
   10.2759   -4.0036   17.8845 C   0  0  0  0  0  0  0  0  0  0  0  0
    8.5652    1.5478   25.3778 N   0  0  0  0  0  0  0  0  0  0  0  0
    6.8048   -7.5457   17.8752 C   0  0  0  0  0  0  0  0  0  0  0  0
    6.1721   -8.2186   15.9886 N   0  0  0  0  0  0  0  0  0  0  0  0
   11.1764   -2.6600   19.5604 C   0  0  0  0  0  0  0  0  0  0  0  0
    9.5491   -0.6380   24.1912 C   0  0  0  0  0  0  0  0  0  0  0  0
    7.5337   -6.9256   16.9519 C   0  0  0  0  0  0  0  0  0  0  0  0
    9.6782    0.5671   23.5143 C   0  0  0  0  0  0  0  0  0  0  0  0
    8.4532    0.3482   26.0821 C   0  0  0  0  0  0  0  0  0  0  0  0
   10.4239   -1.7677   22.2230 N   0  0  0  0  0  0  0  0  0  0  0  0
    9.9468   -4.5953   20.1709 C   0  0  0  0  0  0  0  0  0  0  0  0
   10.0366   -3.0590   23.9864 N   0  0  0  0  0  0  0  0  0  0  0  0
    7.1191   -7.3636   15.7739 C   0  0  0  0  0  0  0  0  0  0  0  0
    5.9612   -8.3203   17.2732 N   0  0  0  0  0  0  0  0  0  0  0  0
    8.5296   -5.9814   17.1841 C   0  0  0  0  0  0  0  0  0  0  0  0
    9.1527   -5.2118   16.2116 C   0  0  0  0  0  0  0  0  0  0  0  0
   10.3364   -3.8368   22.9255 O   0  0  0  0  0  0  0  0  0  0  0  0
    9.6947   -4.8407   18.8534 C   0  0  0  0  0  0  0  0  0  0  0  0
    9.1596    1.7042   24.1381 C   0  0  0  0  0  0  0  0  0  0  0  0
   11.0456   -2.9774   18.2694 N   0  0  0  0  0  0  0  0  0  0  0  0
   10.4788   -3.0457   21.8593 C   0  0  0  0  0  0  0  0  0  0  0  0
    8.8693   -5.8099   18.4657 N   0  0  0  0  0  0  0  0  0  0  0  0
    8.9892   -0.7926   25.4573 C   0  0  0  0  0  0  0  0  0  0  0  0
   10.5677   -3.4462   20.5323 C   0  0  0  0  0  0  0  0  0  0  0  0
  1  8  1  0
  1 12  4  0
  1 14  4  0
  2  3  4  0
  2 18  4  0
  3 20  4  0
  3 22  4  0
  4 11  4  0
  4 21  4  0
  5  9  4  0
  5 16  4  0
  6 15  4  0
  6 16  4  0
  7 22  4  0
  7 26  4  0
  8 10  4  0
  8 25  4  0
  9 15  4  0
  9 17  1  0
 10 21  4  0
 11 25  4  0
 12 23  4  0
 13 20  4  0
 13 26  4  0
 14 19  4  0
 17 18  4  0
 17 24  4  0
 19 23  4  0
 20 24  4  0
 23 26  1  0
M  END
$$$$

 Created by Python create_sdf_string function

 26 30  0  0  0  0  0  0  0  0999 V2000
   10.0084   -1.8019   23.4945 C   0  0  0  0  0  0  0  0  0  0  0  0
   10.0005   -4.2520   16.5631 C   0  0  0  0  0  0  0  0  0  0  0  0
   10.2759   -4.0036   17.8845 C   0  0  0  0  0  0  0  0  0  0  0  0
    8.5652    1.5478   25.3778 N   0  0  0  0  0  0  0  0  0  0  0  0
    6.8048   -7.5457   17.8752 C   0  0  0  0  0  0  0  0  0  0  0  0
    6.1721   -8.2186   15.9886 N   0  0  0  0  0  0  0  0  0  0  0  0
   11.1764   -2.6600   19.5604 C   0  0  0  0  0  0  0  0  0  0  0  0
    9.5491   -0.6380   24.1912 C   0  0  0  0  0  0  0  0  0  0  0  0
    7.5337   -6.9256   16.9519 C   0  0  0  0  0  0  0  0  0  0  0  0
    9.6782    0.5671   23.5143 C   0  0  0  0  0  0  0  0  0  0  0  0
    8.4532    0.3482   26.0821 C   0  0  0  0  0  0  0  0  0  0  0  0
   10.4239   -1.7677   22.2230 N   0  0  0  0  0  0  0  0  0  0  0  0
    9.9468   -4.5953   20.1709 C   0  0  0  0  0  0  0  0  0  0  0  0
   10.0366   -3.0590   23.9864 N   0  0  0  0  0  0  0  0  0  0  0  0
    7.1191   -7.3636   15.7739 C   0  0  0  0  0  0  0  0  0  0  0  0
    5.9612   -8.3203   17.2732 N   0  0  0  0  0  0  0  0  0  0  0  0
    8.5296   -5.9814   17.1841 C   0  0  0  0  0  0  0  0  0  0  0  0
    9.1527   -5.2118   16.2116 C   0  0  0  0  0  0  0  0  0  0  0  0
   10.3364   -3.8368   22.9255 O   0  0  0  0  0  0  0  0  0  0  0  0
    9.6947   -4.8407   18.8534 C   0  0  0  0  0  0  0  0  0  0  0  0
    9.1596    1.7042   24.1381 C   0  0  0  0  0  0  0  0  0  0  0  0
   11.0456   -2.9774   18.2694 N   0  0  0  0  0  0  0  0  0  0  0  0
   10.4788   -3.0457   21.8593 C   0  0  0  0  0  0  0  0  0  0  0  0
    8.8693   -5.8099   18.4657 N   0  0  0  0  0  0  0  0  0  0  0  0
    8.9892   -0.7926   25.4573 C   0  0  0  0  0  0  0  0  0  0  0  0
   10.5677   -3.4462   20.5323 C   0  0  0  0  0  0  0  0  0  0  0  0
  1  8  1  0
  1 12  4  0
  1 14  4  0
  2  3  4  0
  2 18  4  0
  3 20  4  0
  3 22  4  0
  4 11  4  0
  4 21  4  0
  5  9  4  0
  5 16  4  0
  6 15  4  0
  6 16  4  0
  7 22  4  0
  7 26  4  0
  8 10  4  0
  8 25  4  0
  9 15  4  0
  9 17  1  0
 10 21  4  0
 11 25  4  0
 12 23  4  0
 13 20  4  0
 13 26  4  0
 14 19  4  0
 17 18  4  0
 17 24  4  0
 19 23  4  0
 20 24  4  0
 23 26  1  0
M  END
$$$$

 Created by Python create_sdf_string function

 26 30  0  0  0  0  0  0  0  0999 V2000
   10.0084   -1.8019   23.4945 C   0  0  0  0  0  0  0  0  0  0  0  0
   10.0005   -4.2520   16.5631 C   0  0  0  0  0  0  0  0  0  0  0  0
   10.2759   -4.0036   17.8845 C   0  0  0  0  0  0  0  0  0  0  0  0
    8.5652    1.5478   25.3778 N   0  0  0  0  0  0  0  0  0  0  0  0
    6.8048   -7.5457   17.8752 C   0  0  0  0  0  0  0  0  0  0  0  0
    6.1721   -8.2186   15.9886 N   0  0  0  0  0  0  0  0  0  0  0  0
   11.1764   -2.6600   19.5604 C   0  0  0  0  0  0  0  0  0  0  0  0
    9.5491   -0.6380   24.1912 C   0  0  0  0  0  0  0  0  0  0  0  0
    7.5337   -6.9256   16.9519 C   0  0  0  0  0  0  0  0  0  0  0  0
    9.6782    0.5671   23.5143 C   0  0  0  0  0  0  0  0  0  0  0  0
    8.4532    0.3482   26.0821 C   0  0  0  0  0  0  0  0  0  0  0  0
   10.4239   -1.7677   22.2230 N   0  0  0  0  0  0  0  0  0  0  0  0
    9.9468   -4.5953   20.1709 C   0  0  0  0  0  0  0  0  0  0  0  0
   10.0366   -3.0590   23.9864 N   0  0  0  0  0  0  0  0  0  0  0  0
    7.1191   -7.3636   15.7739 C   0  0  0  0  0  0  0  0  0  0  0  0
    5.9612   -8.3203   17.2732 N   0  0  0  0  0  0  0  0  0  0  0  0
    8.5296   -5.9814   17.1841 C   0  0  0  0  0  0  0  0  0  0  0  0
    9.1527   -5.2118   16.2116 C   0  0  0  0  0  0  0  0  0  0  0  0
   10.3364   -3.8368   22.9255 O   0  0  0  0  0  0  0  0  0  0  0  0
    9.6947   -4.8407   18.8534 C   0  0  0  0  0  0  0  0  0  0  0  0
    9.1596    1.7042   24.1381 C   0  0  0  0  0  0  0  0  0  0  0  0
   11.0456   -2.9774   18.2694 N   0  0  0  0  0  0  0  0  0  0  0  0
   10.4788   -3.0457   21.8593 C   0  0  0  0  0  0  0  0  0  0  0  0
    8.8693   -5.8099   18.4657 N   0  0  0  0  0  0  0  0  0  0  0  0
    8.9892   -0.7926   25.4573 C   0  0  0  0  0  0  0  0  0  0  0  0
   10.5677   -3.4462   20.5323 C   0  0  0  0  0  0  0  0  0  0  0  0
  1  8  1  0
  1 12  4  0
  1 14  4  0
  2  3  4  0
  2 18  4  0
  3 20  4  0
  3 22  4  0
  4 11  4  0
  4 21  4  0
  5  9  4  0
  5 16  4  0
  6 15  4  0
  6 16  4  0
  7 22  4  0
  7 26  4  0
  8 10  4  0
  8 25  4  0
  9 15  4  0
  9 17  1  0
 10 21  4  0
 11 25  4  0
 12 23  4  0
 13 20  4  0
 13 26  4  0
 14 19  4  0
 17 18  4  0
 17 24  4  0
 19 23  4  0
 20 24  4  0
 23 26  1  0
M  END
$$$$

 Created by Python create_sdf_string function

 26 30  0  0  0  0  0  0  0  0999 V2000
   10.0084   -1.8019   23.4945 C   0  0  0  0  0  0  0  0  0  0  0  0
   10.0005   -4.2520   16.5631 C   0  0  0  0  0  0  0  0  0  0  0  0
   10.2759   -4.0036   17.8845 C   0  0  0  0  0  0  0  0  0  0  0  0
    8.5652    1.5478   25.3778 N   0  0  0  0  0  0  0  0  0  0  0  0
    6.8048   -7.5457   17.8752 C   0  0  0  0  0  0  0  0  0  0  0  0
    6.1721   -8.2186   15.9886 N   0  0  0  0  0  0  0  0  0  0  0  0
   11.1764   -2.6600   19.5604 C   0  0  0  0  0  0  0  0  0  0  0  0
    9.5491   -0.6380   24.1912 C   0  0  0  0  0  0  0  0  0  0  0  0
    7.5337   -6.9256   16.9519 C   0  0  0  0  0  0  0  0  0  0  0  0
    9.6782    0.5671   23.5143 C   0  0  0  0  0  0  0  0  0  0  0  0
    8.4532    0.3482   26.0821 C   0  0  0  0  0  0  0  0  0  0  0  0
   10.4239   -1.7677   22.2230 N   0  0  0  0  0  0  0  0  0  0  0  0
    9.9468   -4.5953   20.1709 C   0  0  0  0  0  0  0  0  0  0  0  0
   10.0366   -3.0590   23.9864 N   0  0  0  0  0  0  0  0  0  0  0  0
    7.1191   -7.3636   15.7739 C   0  0  0  0  0  0  0  0  0  0  0  0
    5.9612   -8.3203   17.2732 N   0  0  0  0  0  0  0  0  0  0  0  0
    8.5296   -5.9814   17.1841 C   0  0  0  0  0  0  0  0  0  0  0  0
    9.1527   -5.2118   16.2116 C   0  0  0  0  0  0  0  0  0  0  0  0
   10.3364   -3.8368   22.9255 O   0  0  0  0  0  0  0  0  0  0  0  0
    9.6947   -4.8407   18.8534 C   0  0  0  0  0  0  0  0  0  0  0  0
    9.1596    1.7042   24.1381 C   0  0  0  0  0  0  0  0  0  0  0  0
   11.0456   -2.9774   18.2694 N   0  0  0  0  0  0  0  0  0  0  0  0
   10.4788   -3.0457   21.8593 C   0  0  0  0  0  0  0  0  0  0  0  0
    8.8693   -5.8099   18.4657 N   0  0  0  0  0  0  0  0  0  0  0  0
    8.9892   -0.7926   25.4573 C   0  0  0  0  0  0  0  0  0  0  0  0
   10.5677   -3.4462   20.5323 C   0  0  0  0  0  0  0  0  0  0  0  0
  1  8  1  0
  1 12  4  0
  1 14  4  0
  2  3  4  0
  2 18  4  0
  3 20  4  0
  3 22  4  0
  4 11  4  0
  4 21  4  0
  5  9  4  0
  5 16  4  0
  6 15  4  0
  6 16  4  0
  7 22  4  0
  7 26  4  0
  8 10  4  0
  8 25  4  0
  9 15  4  0
  9 17  1  0
 10 21  4  0
 11 25  4  0
 12 23  4  0
 13 20  4  0
 13 26  4  0
 14 19  4  0
 17 18  4  0
 17 24  4  0
 19 23  4  0
 20 24  4  0
 23 26  1  0
M  END
$$$$

 Created by Python create_sdf_string function

 26 30  0  0  0  0  0  0  0  0999 V2000
   10.0084   -1.8019   23.4945 C   0  0  0  0  0  0  0  0  0  0  0  0
   10.0005   -4.2520   16.5631 C   0  0  0  0  0  0  0  0  0  0  0  0
   10.2759   -4.0036   17.8845 C   0  0  0  0  0  0  0  0  0  0  0  0
    8.5652    1.5478   25.3778 N   0  0  0  0  0  0  0  0  0  0  0  0
    6.8048   -7.5457   17.8752 C   0  0  0  0  0  0  0  0  0  0  0  0
    6.1721   -8.2186   15.9886 N   0  0  0  0  0  0  0  0  0  0  0  0
   11.1764   -2.6600   19.5604 C   0  0  0  0  0  0  0  0  0  0  0  0
    9.5491   -0.6380   24.1912 C   0  0  0  0  0  0  0  0  0  0  0  0
    7.5337   -6.9256   16.9519 C   0  0  0  0  0  0  0  0  0  0  0  0
    9.6782    0.5671   23.5143 C   0  0  0  0  0  0  0  0  0  0  0  0
    8.4532    0.3482   26.0821 C   0  0  0  0  0  0  0  0  0  0  0  0
   10.4239   -1.7677   22.2230 N   0  0  0  0  0  0  0  0  0  0  0  0
    9.9468   -4.5953   20.1709 C   0  0  0  0  0  0  0  0  0  0  0  0
   10.0366   -3.0590   23.9864 N   0  0  0  0  0  0  0  0  0  0  0  0
    7.1191   -7.3636   15.7739 C   0  0  0  0  0  0  0  0  0  0  0  0
    5.9612   -8.3203   17.2732 N   0  0  0  0  0  0  0  0  0  0  0  0
    8.5296   -5.9814   17.1841 C   0  0  0  0  0  0  0  0  0  0  0  0
    9.1527   -5.2118   16.2116 C   0  0  0  0  0  0  0  0  0  0  0  0
   10.3364   -3.8368   22.9255 O   0  0  0  0  0  0  0  0  0  0  0  0
    9.6947   -4.8407   18.8534 C   0  0  0  0  0  0  0  0  0  0  0  0
    9.1596    1.7042   24.1381 C   0  0  0  0  0  0  0  0  0  0  0  0
   11.0456   -2.9774   18.2694 N   0  0  0  0  0  0  0  0  0  0  0  0
   10.4788   -3.0457   21.8593 C   0  0  0  0  0  0  0  0  0  0  0  0
    8.8693   -5.8099   18.4657 N   0  0  0  0  0  0  0  0  0  0  0  0
    8.9892   -0.7926   25.4573 C   0  0  0  0  0  0  0  0  0  0  0  0
   10.5677   -3.4462   20.5323 C   0  0  0  0  0  0  0  0  0  0  0  0
  1  8  1  0
  1 12  4  0
  1 14  4  0
  2  3  4  0
  2 18  4  0
  3 20  4  0
  3 22  4  0
  4 11  4  0
  4 21  4  0
  5  9  4  0
  5 16  4  0
  6 15  4  0
  6 16  4  0
  7 22  4  0
  7 26  4  0
  8 10  4  0
  8 25  4  0
  9 15  4  0
  9 17  1  0
 10 21  4  0
 11 25  4  0
 12 23  4  0
 13 20  4  0
 13 26  4  0
 14 19  4  0
 17 18  4  0
 17 24  4  0
 19 23  4  0
 20 24  4  0
 23 26  1  0
M  END
$$$$

 Created by Python create_sdf_string function

 26 30  0  0  0  0  0  0  0  0999 V2000
   10.0084   -1.8019   23.4945 C   0  0  0  0  0  0  0  0  0  0  0  0
   10.0005   -4.2520   16.5631 C   0  0  0  0  0  0  0  0  0  0  0  0
   10.2759   -4.0036   17.8845 C   0  0  0  0  0  0  0  0  0  0  0  0
    8.5652    1.5478   25.3778 N   0  0  0  0  0  0  0  0  0  0  0  0
    6.8048   -7.5457   17.8752 C   0  0  0  0  0  0  0  0  0  0  0  0
    6.1721   -8.2186   15.9886 N   0  0  0  0  0  0  0  0  0  0  0  0
   11.1764   -2.6600   19.5604 C   0  0  0  0  0  0  0  0  0  0  0  0
    9.5491   -0.6380   24.1912 C   0  0  0  0  0  0  0  0  0  0  0  0
    7.5337   -6.9256   16.9519 C   0  0  0  0  0  0  0  0  0  0  0  0
    9.6782    0.5671   23.5143 C   0  0  0  0  0  0  0  0  0  0  0  0
    8.4532    0.3482   26.0821 C   0  0  0  0  0  0  0  0  0  0  0  0
   10.4239   -1.7677   22.2230 N   0  0  0  0  0  0  0  0  0  0  0  0
    9.9468   -4.5953   20.1709 C   0  0  0  0  0  0  0  0  0  0  0  0
   10.0366   -3.0590   23.9864 N   0  0  0  0  0  0  0  0  0  0  0  0
    7.1191   -7.3636   15.7739 C   0  0  0  0  0  0  0  0  0  0  0  0
    5.9612   -8.3203   17.2732 N   0  0  0  0  0  0  0  0  0  0  0  0
    8.5296   -5.9814   17.1841 C   0  0  0  0  0  0  0  0  0  0  0  0
    9.1527   -5.2118   16.2116 C   0  0  0  0  0  0  0  0  0  0  0  0
   10.3364   -3.8368   22.9255 O   0  0  0  0  0  0  0  0  0  0  0  0
    9.6947   -4.8407   18.8534 C   0  0  0  0  0  0  0  0  0  0  0  0
    9.1596    1.7042   24.1381 C   0  0  0  0  0  0  0  0  0  0  0  0
   11.0456   -2.9774   18.2694 N   0  0  0  0  0  0  0  0  0  0  0  0
   10.4788   -3.0457   21.8593 C   0  0  0  0  0  0  0  0  0  0  0  0
    8.8693   -5.8099   18.4657 N   0  0  0  0  0  0  0  0  0  0  0  0
    8.9892   -0.7926   25.4573 C   0  0  0  0  0  0  0  0  0  0  0  0
   10.5677   -3.4462   20.5323 C   0  0  0  0  0  0  0  0  0  0  0  0
  1  8  1  0
  1 12  4  0
  1 14  4  0
  2  3  4  0
  2 18  4  0
  3 20  4  0
  3 22  4  0
  4 11  4  0
  4 21  4  0
  5  9  4  0
  5 16  4  0
  6 15  4  0
  6 16  4  0
  7 22  4  0
  7 26  4  0
  8 10  4  0
  8 25  4  0
  9 15  4  0
  9 17  1  0
 10 21  4  0
 11 25  4  0
 12 23  4  0
 13 20  4  0
 13 26  4  0
 14 19  4  0
 17 18  4  0
 17 24  4  0
 19 23  4  0
 20 24  4  0
 23 26  1  0
M  END
$$$$

 Created by Python create_sdf_string function

 26 30  0  0  0  0  0  0  0  0999 V2000
   10.0084   -1.8019   23.4945 C   0  0  0  0  0  0  0  0  0  0  0  0
   10.0005   -4.2520   16.5631 C   0  0  0  0  0  0  0  0  0  0  0  0
   10.2759   -4.0036   17.8845 C   0  0  0  0  0  0  0  0  0  0  0  0
    8.5652    1.5478   25.3778 N   0  0  0  0  0  0  0  0  0  0  0  0
    6.8048   -7.5457   17.8752 C   0  0  0  0  0  0  0  0  0  0  0  0
    6.1721   -8.2186   15.9886 N   0  0  0  0  0  0  0  0  0  0  0  0
   11.1764   -2.6600   19.5604 C   0  0  0  0  0  0  0  0  0  0  0  0
    9.5491   -0.6380   24.1912 C   0  0  0  0  0  0  0  0  0  0  0  0
    7.5337   -6.9256   16.9519 C   0  0  0  0  0  0  0  0  0  0  0  0
    9.6782    0.5671   23.5143 C   0  0  0  0  0  0  0  0  0  0  0  0
    8.4532    0.3482   26.0821 C   0  0  0  0  0  0  0  0  0  0  0  0
   10.4239   -1.7677   22.2230 N   0  0  0  0  0  0  0  0  0  0  0  0
    9.9468   -4.5953   20.1709 C   0  0  0  0  0  0  0  0  0  0  0  0
   10.0366   -3.0590   23.9864 N   0  0  0  0  0  0  0  0  0  0  0  0
    7.1191   -7.3636   15.7739 C   0  0  0  0  0  0  0  0  0  0  0  0
    5.9612   -8.3203   17.2732 N   0  0  0  0  0  0  0  0  0  0  0  0
    8.5296   -5.9814   17.1841 C   0  0  0  0  0  0  0  0  0  0  0  0
    9.1527   -5.2118   16.2116 C   0  0  0  0  0  0  0  0  0  0  0  0
   10.3364   -3.8368   22.9255 O   0  0  0  0  0  0  0  0  0  0  0  0
    9.6947   -4.8407   18.8534 C   0  0  0  0  0  0  0  0  0  0  0  0
    9.1596    1.7042   24.1381 C   0  0  0  0  0  0  0  0  0  0  0  0
   11.0456   -2.9774   18.2694 N   0  0  0  0  0  0  0  0  0  0  0  0
   10.4788   -3.0457   21.8593 C   0  0  0  0  0  0  0  0  0  0  0  0
    8.8693   -5.8099   18.4657 N   0  0  0  0  0  0  0  0  0  0  0  0
    8.9892   -0.7926   25.4573 C   0  0  0  0  0  0  0  0  0  0  0  0
   10.5677   -3.4462   20.5323 C   0  0  0  0  0  0  0  0  0  0  0  0
  1  8  1  0
  1 12  4  0
  1 14  4  0
  2  3  4  0
  2 18  4  0
  3 20  4  0
  3 22  4  0
  4 11  4  0
  4 21  4  0
  5  9  4  0
  5 16  4  0
  6 15  4  0
  6 16  4  0
  7 22  4  0
  7 26  4  0
  8 10  4  0
  8 25  4  0
  9 15  4  0
  9 17  1  0
 10 21  4  0
 11 25  4  0
 12 23  4  0
 13 20  4  0
 13 26  4  0
 14 19  4  0
 17 18  4  0
 17 24  4  0
 19 23  4  0
 20 24  4  0
 23 26  1  0
M  END
$$$$

 Created by Python create_sdf_string function

 26 30  0  0  0  0  0  0  0  0999 V2000
   10.0084   -1.8019   23.4945 C   0  0  0  0  0  0  0  0  0  0  0  0
   10.0005   -4.2520   16.5631 C   0  0  0  0  0  0  0  0  0  0  0  0
   10.2759   -4.0036   17.8845 C   0  0  0  0  0  0  0  0  0  0  0  0
    8.5652    1.5478   25.3778 N   0  0  0  0  0  0  0  0  0  0  0  0
    6.8048   -7.5457   17.8752 C   0  0  0  0  0  0  0  0  0  0  0  0
    6.1721   -8.2186   15.9886 N   0  0  0  0  0  0  0  0  0  0  0  0
   11.1764   -2.6600   19.5604 C   0  0  0  0  0  0  0  0  0  0  0  0
    9.5491   -0.6380   24.1912 C   0  0  0  0  0  0  0  0  0  0  0  0
    7.5337   -6.9256   16.9519 C   0  0  0  0  0  0  0  0  0  0  0  0
    9.6782    0.5671   23.5143 C   0  0  0  0  0  0  0  0  0  0  0  0
    8.4532    0.3482   26.0821 C   0  0  0  0  0  0  0  0  0  0  0  0
   10.4239   -1.7677   22.2230 N   0  0  0  0  0  0  0  0  0  0  0  0
    9.9468   -4.5953   20.1709 C   0  0  0  0  0  0  0  0  0  0  0  0
   10.0366   -3.0590   23.9864 N   0  0  0  0  0  0  0  0  0  0  0  0
    7.1191   -7.3636   15.7739 C   0  0  0  0  0  0  0  0  0  0  0  0
    5.9612   -8.3203   17.2732 N   0  0  0  0  0  0  0  0  0  0  0  0
    8.5296   -5.9814   17.1841 C   0  0  0  0  0  0  0  0  0  0  0  0
    9.1527   -5.2118   16.2116 C   0  0  0  0  0  0  0  0  0  0  0  0
   10.3364   -3.8368   22.9255 O   0  0  0  0  0  0  0  0  0  0  0  0
    9.6947   -4.8407   18.8534 C   0  0  0  0  0  0  0  0  0  0  0  0
    9.1596    1.7042   24.1381 C   0  0  0  0  0  0  0  0  0  0  0  0
   11.0456   -2.9774   18.2694 N   0  0  0  0  0  0  0  0  0  0  0  0
   10.4788   -3.0457   21.8593 C   0  0  0  0  0  0  0  0  0  0  0  0
    8.8693   -5.8099   18.4657 N   0  0  0  0  0  0  0  0  0  0  0  0
    8.9892   -0.7926   25.4573 C   0  0  0  0  0  0  0  0  0  0  0  0
   10.5677   -3.4462   20.5323 C   0  0  0  0  0  0  0  0  0  0  0  0
  1  8  1  0
  1 12  4  0
  1 14  4  0
  2  3  4  0
  2 18  4  0
  3 20  4  0
  3 22  4  0
  4 11  4  0
  4 21  4  0
  5  9  4  0
  5 16  4  0
  6 15  4  0
  6 16  4  0
  7 22  4  0
  7 26  4  0
  8 10  4  0
  8 25  4  0
  9 15  4  0
  9 17  1  0
 10 21  4  0
 11 25  4  0
 12 23  4  0
 13 20  4  0
 13 26  4  0
 14 19  4  0
 17 18  4  0
 17 24  4  0
 19 23  4  0
 20 24  4  0
 23 26  1  0
M  END
$$$$

 Created by Python create_sdf_string function

 26 30  0  0  0  0  0  0  0  0999 V2000
   10.0084   -1.8019   23.4945 C   0  0  0  0  0  0  0  0  0  0  0  0
   10.0005   -4.2520   16.5631 C   0  0  0  0  0  0  0  0  0  0  0  0
   10.2759   -4.0036   17.8845 C   0  0  0  0  0  0  0  0  0  0  0  0
    8.5652    1.5478   25.3778 N   0  0  0  0  0  0  0  0  0  0  0  0
    6.8048   -7.5457   17.8752 C   0  0  0  0  0  0  0  0  0  0  0  0
    6.1721   -8.2186   15.9886 N   0  0  0  0  0  0  0  0  0  0  0  0
   11.1764   -2.6600   19.5604 C   0  0  0  0  0  0  0  0  0  0  0  0
    9.5491   -0.6380   24.1912 C   0  0  0  0  0  0  0  0  0  0  0  0
    7.5337   -6.9256   16.9519 C   0  0  0  0  0  0  0  0  0  0  0  0
    9.6782    0.5671   23.5143 C   0  0  0  0  0  0  0  0  0  0  0  0
    8.4532    0.3482   26.0821 C   0  0  0  0  0  0  0  0  0  0  0  0
   10.4239   -1.7677   22.2230 N   0  0  0  0  0  0  0  0  0  0  0  0
    9.9468   -4.5953   20.1709 C   0  0  0  0  0  0  0  0  0  0  0  0
   10.0366   -3.0590   23.9864 N   0  0  0  0  0  0  0  0  0  0  0  0
    7.1191   -7.3636   15.7739 C   0  0  0  0  0  0  0  0  0  0  0  0
    5.9612   -8.3203   17.2732 N   0  0  0  0  0  0  0  0  0  0  0  0
    8.5296   -5.9814   17.1841 C   0  0  0  0  0  0  0  0  0  0  0  0
    9.1527   -5.2118   16.2116 C   0  0  0  0  0  0  0  0  0  0  0  0
   10.3364   -3.8368   22.9255 O   0  0  0  0  0  0  0  0  0  0  0  0
    9.6947   -4.8407   18.8534 C   0  0  0  0  0  0  0  0  0  0  0  0
    9.1596    1.7042   24.1381 C   0  0  0  0  0  0  0  0  0  0  0  0
   11.0456   -2.9774   18.2694 N   0  0  0  0  0  0  0  0  0  0  0  0
   10.4788   -3.0457   21.8593 C   0  0  0  0  0  0  0  0  0  0  0  0
    8.8693   -5.8099   18.4657 N   0  0  0  0  0  0  0  0  0  0  0  0
    8.9892   -0.7926   25.4573 C   0  0  0  0  0  0  0  0  0  0  0  0
   10.5677   -3.4462   20.5323 C   0  0  0  0  0  0  0  0  0  0  0  0
  1  8  1  0
  1 12  4  0
  1 14  4  0
  2  3  4  0
  2 18  4  0
  3 20  4  0
  3 22  4  0
  4 11  4  0
  4 21  4  0
  5  9  4  0
  5 16  4  0
  6 15  4  0
  6 16  4  0
  7 22  4  0
  7 26  4  0
  8 10  4  0
  8 25  4  0
  9 15  4  0
  9 17  1  0
 10 21  4  0
 11 25  4  0
 12 23  4  0
 13 20  4  0
 13 26  4  0
 14 19  4  0
 17 18  4  0
 17 24  4  0
 19 23  4  0
 20 24  4  0
 23 26  1  0
M  END
$$$$

 Created by Python create_sdf_string function

 26 30  0  0  0  0  0  0  0  0999 V2000
   10.0084   -1.8019   23.4945 C   0  0  0  0  0  0  0  0  0  0  0  0
   10.0005   -4.2520   16.5631 C   0  0  0  0  0  0  0  0  0  0  0  0
   10.2759   -4.0036   17.8845 C   0  0  0  0  0  0  0  0  0  0  0  0
    8.5652    1.5478   25.3778 N   0  0  0  0  0  0  0  0  0  0  0  0
    6.8048   -7.5457   17.8752 C   0  0  0  0  0  0  0  0  0  0  0  0
    6.1721   -8.2186   15.9886 N   0  0  0  0  0  0  0  0  0  0  0  0
   11.1764   -2.6600   19.5604 C   0  0  0  0  0  0  0  0  0  0  0  0
    9.5491   -0.6380   24.1912 C   0  0  0  0  0  0  0  0  0  0  0  0
    7.5337   -6.9256   16.9519 C   0  0  0  0  0  0  0  0  0  0  0  0
    9.6782    0.5671   23.5143 C   0  0  0  0  0  0  0  0  0  0  0  0
    8.4532    0.3482   26.0821 C   0  0  0  0  0  0  0  0  0  0  0  0
   10.4239   -1.7677   22.2230 N   0  0  0  0  0  0  0  0  0  0  0  0
    9.9468   -4.5953   20.1709 C   0  0  0  0  0  0  0  0  0  0  0  0
   10.0366   -3.0590   23.9864 N   0  0  0  0  0  0  0  0  0  0  0  0
    7.1191   -7.3636   15.7739 C   0  0  0  0  0  0  0  0  0  0  0  0
    5.9612   -8.3203   17.2732 N   0  0  0  0  0  0  0  0  0  0  0  0
    8.5296   -5.9814   17.1841 C   0  0  0  0  0  0  0  0  0  0  0  0
    9.1527   -5.2118   16.2116 C   0  0  0  0  0  0  0  0  0  0  0  0
   10.3364   -3.8368   22.9255 O   0  0  0  0  0  0  0  0  0  0  0  0
    9.6947   -4.8407   18.8534 C   0  0  0  0  0  0  0  0  0  0  0  0
    9.1596    1.7042   24.1381 C   0  0  0  0  0  0  0  0  0  0  0  0
   11.0456   -2.9774   18.2694 N   0  0  0  0  0  0  0  0  0  0  0  0
   10.4788   -3.0457   21.8593 C   0  0  0  0  0  0  0  0  0  0  0  0
    8.8693   -5.8099   18.4657 N   0  0  0  0  0  0  0  0  0  0  0  0
    8.9892   -0.7926   25.4573 C   0  0  0  0  0  0  0  0  0  0  0  0
   10.5677   -3.4462   20.5323 C   0  0  0  0  0  0  0  0  0  0  0  0
  1  8  1  0
  1 12  4  0
  1 14  4  0
  2  3  4  0
  2 18  4  0
  3 20  4  0
  3 22  4  0
  4 11  4  0
  4 21  4  0
  5  9  4  0
  5 16  4  0
  6 15  4  0
  6 16  4  0
  7 22  4  0
  7 26  4  0
  8 10  4  0
  8 25  4  0
  9 15  4  0
  9 17  1  0
 10 21  4  0
 11 25  4  0
 12 23  4  0
 13 20  4  0
 13 26  4  0
 14 19  4  0
 17 18  4  0
 17 24  4  0
 19 23  4  0
 20 24  4  0
 23 26  1  0
M  END
$$$$

 Created by Python create_sdf_string function

 26 30  0  0  0  0  0  0  0  0999 V2000
   10.0084   -1.8019   23.4945 C   0  0  0  0  0  0  0  0  0  0  0  0
   10.0005   -4.2520   16.5631 C   0  0  0  0  0  0  0  0  0  0  0  0
   10.2759   -4.0036   17.8845 C   0  0  0  0  0  0  0  0  0  0  0  0
    8.5652    1.5478   25.3778 N   0  0  0  0  0  0  0  0  0  0  0  0
    6.8048   -7.5457   17.8752 C   0  0  0  0  0  0  0  0  0  0  0  0
    6.1721   -8.2186   15.9886 N   0  0  0  0  0  0  0  0  0  0  0  0
   11.1764   -2.6600   19.5604 C   0  0  0  0  0  0  0  0  0  0  0  0
    9.5491   -0.6380   24.1912 C   0  0  0  0  0  0  0  0  0  0  0  0
    7.5337   -6.9256   16.9519 C   0  0  0  0  0  0  0  0  0  0  0  0
    9.6782    0.5671   23.5143 C   0  0  0  0  0  0  0  0  0  0  0  0
    8.4532    0.3482   26.0821 C   0  0  0  0  0  0  0  0  0  0  0  0
   10.4239   -1.7677   22.2230 N   0  0  0  0  0  0  0  0  0  0  0  0
    9.9468   -4.5953   20.1709 C   0  0  0  0  0  0  0  0  0  0  0  0
   10.0366   -3.0590   23.9864 N   0  0  0  0  0  0  0  0  0  0  0  0
    7.1191   -7.3636   15.7739 C   0  0  0  0  0  0  0  0  0  0  0  0
    5.9612   -8.3203   17.2732 N   0  0  0  0  0  0  0  0  0  0  0  0
    8.5296   -5.9814   17.1841 C   0  0  0  0  0  0  0  0  0  0  0  0
    9.1527   -5.2118   16.2116 C   0  0  0  0  0  0  0  0  0  0  0  0
   10.3364   -3.8368   22.9255 O   0  0  0  0  0  0  0  0  0  0  0  0
    9.6947   -4.8407   18.8534 C   0  0  0  0  0  0  0  0  0  0  0  0
    9.1596    1.7042   24.1381 C   0  0  0  0  0  0  0  0  0  0  0  0
   11.0456   -2.9774   18.2694 N   0  0  0  0  0  0  0  0  0  0  0  0
   10.4788   -3.0457   21.8593 C   0  0  0  0  0  0  0  0  0  0  0  0
    8.8693   -5.8099   18.4657 N   0  0  0  0  0  0  0  0  0  0  0  0
    8.9892   -0.7926   25.4573 C   0  0  0  0  0  0  0  0  0  0  0  0
   10.5677   -3.4462   20.5323 C   0  0  0  0  0  0  0  0  0  0  0  0
  1  8  1  0
  1 12  4  0
  1 14  4  0
  2  3  4  0
  2 18  4  0
  3 20  4  0
  3 22  4  0
  4 11  4  0
  4 21  4  0
  5  9  4  0
  5 16  4  0
  6 15  4  0
  6 16  4  0
  7 22  4  0
  7 26  4  0
  8 10  4  0
  8 25  4  0
  9 15  4  0
  9 17  1  0
 10 21  4  0
 11 25  4  0
 12 23  4  0
 13 20  4  0
 13 26  4  0
 14 19  4  0
 17 18  4  0
 17 24  4  0
 19 23  4  0
 20 24  4  0
 23 26  1  0
M  END
$$$$

 Created by Python create_sdf_string function

 26 30  0  0  0  0  0  0  0  0999 V2000
   10.0084   -1.8019   23.4945 C   0  0  0  0  0  0  0  0  0  0  0  0
   10.0005   -4.2520   16.5631 C   0  0  0  0  0  0  0  0  0  0  0  0
   10.2759   -4.0036   17.8845 C   0  0  0  0  0  0  0  0  0  0  0  0
    8.5652    1.5478   25.3778 N   0  0  0  0  0  0  0  0  0  0  0  0
    6.8048   -7.5457   17.8752 C   0  0  0  0  0  0  0  0  0  0  0  0
    6.1721   -8.2186   15.9886 N   0  0  0  0  0  0  0  0  0  0  0  0
   11.1764   -2.6600   19.5604 C   0  0  0  0  0  0  0  0  0  0  0  0
    9.5491   -0.6380   24.1912 C   0  0  0  0  0  0  0  0  0  0  0  0
    7.5337   -6.9256   16.9519 C   0  0  0  0  0  0  0  0  0  0  0  0
    9.6782    0.5671   23.5143 C   0  0  0  0  0  0  0  0  0  0  0  0
    8.4532    0.3482   26.0821 C   0  0  0  0  0  0  0  0  0  0  0  0
   10.4239   -1.7677   22.2230 N   0  0  0  0  0  0  0  0  0  0  0  0
    9.9468   -4.5953   20.1709 C   0  0  0  0  0  0  0  0  0  0  0  0
   10.0366   -3.0590   23.9864 N   0  0  0  0  0  0  0  0  0  0  0  0
    7.1191   -7.3636   15.7739 C   0  0  0  0  0  0  0  0  0  0  0  0
    5.9612   -8.3203   17.2732 N   0  0  0  0  0  0  0  0  0  0  0  0
    8.5296   -5.9814   17.1841 C   0  0  0  0  0  0  0  0  0  0  0  0
    9.1527   -5.2118   16.2116 C   0  0  0  0  0  0  0  0  0  0  0  0
   10.3364   -3.8368   22.9255 O   0  0  0  0  0  0  0  0  0  0  0  0
    9.6947   -4.8407   18.8534 C   0  0  0  0  0  0  0  0  0  0  0  0
    9.1596    1.7042   24.1381 C   0  0  0  0  0  0  0  0  0  0  0  0
   11.0456   -2.9774   18.2694 N   0  0  0  0  0  0  0  0  0  0  0  0
   10.4788   -3.0457   21.8593 C   0  0  0  0  0  0  0  0  0  0  0  0
    8.8693   -5.8099   18.4657 N   0  0  0  0  0  0  0  0  0  0  0  0
    8.9892   -0.7926   25.4573 C   0  0  0  0  0  0  0  0  0  0  0  0
   10.5677   -3.4462   20.5323 C   0  0  0  0  0  0  0  0  0  0  0  0
  1  8  1  0
  1 12  4  0
  1 14  4  0
  2  3  4  0
  2 18  4  0
  3 20  4  0
  3 22  4  0
  4 11  4  0
  4 21  4  0
  5  9  4  0
  5 16  4  0
  6 15  4  0
  6 16  4  0
  7 22  4  0
  7 26  4  0
  8 10  4  0
  8 25  4  0
  9 15  4  0
  9 17  1  0
 10 21  4  0
 11 25  4  0
 12 23  4  0
 13 20  4  0
 13 26  4  0
 14 19  4  0
 17 18  4  0
 17 24  4  0
 19 23  4  0
 20 24  4  0
 23 26  1  0
M  END
$$$$

 Created by Python create_sdf_string function

 26 30  0  0  0  0  0  0  0  0999 V2000
   10.0084   -1.8019   23.4945 C   0  0  0  0  0  0  0  0  0  0  0  0
   10.0005   -4.2520   16.5631 C   0  0  0  0  0  0  0  0  0  0  0  0
   10.2759   -4.0036   17.8845 C   0  0  0  0  0  0  0  0  0  0  0  0
    8.5652    1.5478   25.3778 N   0  0  0  0  0  0  0  0  0  0  0  0
    6.8048   -7.5457   17.8752 C   0  0  0  0  0  0  0  0  0  0  0  0
    6.1721   -8.2186   15.9886 N   0  0  0  0  0  0  0  0  0  0  0  0
   11.1764   -2.6600   19.5604 C   0  0  0  0  0  0  0  0  0  0  0  0
    9.5491   -0.6380   24.1912 C   0  0  0  0  0  0  0  0  0  0  0  0
    7.5337   -6.9256   16.9519 C   0  0  0  0  0  0  0  0  0  0  0  0
    9.6782    0.5671   23.5143 C   0  0  0  0  0  0  0  0  0  0  0  0
    8.4532    0.3482   26.0821 C   0  0  0  0  0  0  0  0  0  0  0  0
   10.4239   -1.7677   22.2230 N   0  0  0  0  0  0  0  0  0  0  0  0
    9.9468   -4.5953   20.1709 C   0  0  0  0  0  0  0  0  0  0  0  0
   10.0366   -3.0590   23.9864 N   0  0  0  0  0  0  0  0  0  0  0  0
    7.1191   -7.3636   15.7739 C   0  0  0  0  0  0  0  0  0  0  0  0
    5.9612   -8.3203   17.2732 N   0  0  0  0  0  0  0  0  0  0  0  0
    8.5296   -5.9814   17.1841 C   0  0  0  0  0  0  0  0  0  0  0  0
    9.1527   -5.2118   16.2116 C   0  0  0  0  0  0  0  0  0  0  0  0
   10.3364   -3.8368   22.9255 O   0  0  0  0  0  0  0  0  0  0  0  0
    9.6947   -4.8407   18.8534 C   0  0  0  0  0  0  0  0  0  0  0  0
    9.1596    1.7042   24.1381 C   0  0  0  0  0  0  0  0  0  0  0  0
   11.0456   -2.9774   18.2694 N   0  0  0  0  0  0  0  0  0  0  0  0
   10.4788   -3.0457   21.8593 C   0  0  0  0  0  0  0  0  0  0  0  0
    8.8693   -5.8099   18.4657 N   0  0  0  0  0  0  0  0  0  0  0  0
    8.9892   -0.7926   25.4573 C   0  0  0  0  0  0  0  0  0  0  0  0
   10.5677   -3.4462   20.5323 C   0  0  0  0  0  0  0  0  0  0  0  0
  1  8  1  0
  1 12  4  0
  1 14  4  0
  2  3  4  0
  2 18  4  0
  3 20  4  0
  3 22  4  0
  4 11  4  0
  4 21  4  0
  5  9  4  0
  5 16  4  0
  6 15  4  0
  6 16  4  0
  7 22  4  0
  7 26  4  0
  8 10  4  0
  8 25  4  0
  9 15  4  0
  9 17  1  0
 10 21  4  0
 11 25  4  0
 12 23  4  0
 13 20  4  0
 13 26  4  0
 14 19  4  0
 17 18  4  0
 17 24  4  0
 19 23  4  0
 20 24  4  0
 23 26  1  0
M  END
$$$$

 Created by Python create_sdf_string function

 26 30  0  0  0  0  0  0  0  0999 V2000
   10.0084   -1.8019   23.4945 C   0  0  0  0  0  0  0  0  0  0  0  0
   10.0005   -4.2520   16.5631 C   0  0  0  0  0  0  0  0  0  0  0  0
   10.2759   -4.0036   17.8845 C   0  0  0  0  0  0  0  0  0  0  0  0
    8.5652    1.5478   25.3778 N   0  0  0  0  0  0  0  0  0  0  0  0
    6.8048   -7.5457   17.8752 C   0  0  0  0  0  0  0  0  0  0  0  0
    6.1721   -8.2186   15.9886 N   0  0  0  0  0  0  0  0  0  0  0  0
   11.1764   -2.6600   19.5604 C   0  0  0  0  0  0  0  0  0  0  0  0
    9.5491   -0.6380   24.1912 C   0  0  0  0  0  0  0  0  0  0  0  0
    7.5337   -6.9256   16.9519 C   0  0  0  0  0  0  0  0  0  0  0  0
    9.6782    0.5671   23.5143 C   0  0  0  0  0  0  0  0  0  0  0  0
    8.4532    0.3482   26.0821 C   0  0  0  0  0  0  0  0  0  0  0  0
   10.4239   -1.7677   22.2230 N   0  0  0  0  0  0  0  0  0  0  0  0
    9.9468   -4.5953   20.1709 C   0  0  0  0  0  0  0  0  0  0  0  0
   10.0366   -3.0590   23.9864 N   0  0  0  0  0  0  0  0  0  0  0  0
    7.1191   -7.3636   15.7739 C   0  0  0  0  0  0  0  0  0  0  0  0
    5.9612   -8.3203   17.2732 N   0  0  0  0  0  0  0  0  0  0  0  0
    8.5296   -5.9814   17.1841 C   0  0  0  0  0  0  0  0  0  0  0  0
    9.1527   -5.2118   16.2116 C   0  0  0  0  0  0  0  0  0  0  0  0
   10.3364   -3.8368   22.9255 O   0  0  0  0  0  0  0  0  0  0  0  0
    9.6947   -4.8407   18.8534 C   0  0  0  0  0  0  0  0  0  0  0  0
    9.1596    1.7042   24.1381 C   0  0  0  0  0  0  0  0  0  0  0  0
   11.0456   -2.9774   18.2694 N   0  0  0  0  0  0  0  0  0  0  0  0
   10.4788   -3.0457   21.8593 C   0  0  0  0  0  0  0  0  0  0  0  0
    8.8693   -5.8099   18.4657 N   0  0  0  0  0  0  0  0  0  0  0  0
    8.9892   -0.7926   25.4573 C   0  0  0  0  0  0  0  0  0  0  0  0
   10.5677   -3.4462   20.5323 C   0  0  0  0  0  0  0  0  0  0  0  0
  1  8  1  0
  1 12  4  0
  1 14  4  0
  2  3  4  0
  2 18  4  0
  3 20  4  0
  3 22  4  0
  4 11  4  0
  4 21  4  0
  5  9  4  0
  5 16  4  0
  6 15  4  0
  6 16  4  0
  7 22  4  0
  7 26  4  0
  8 10  4  0
  8 25  4  0
  9 15  4  0
  9 17  1  0
 10 21  4  0
 11 25  4  0
 12 23  4  0
 13 20  4  0
 13 26  4  0
 14 19  4  0
 17 18  4  0
 17 24  4  0
 19 23  4  0
 20 24  4  0
 23 26  1  0
M  END
$$$$

 Created by Python create_sdf_string function

 26 30  0  0  0  0  0  0  0  0999 V2000
   10.0084   -1.8019   23.4945 C   0  0  0  0  0  0  0  0  0  0  0  0
   10.0005   -4.2520   16.5631 C   0  0  0  0  0  0  0  0  0  0  0  0
   10.2759   -4.0036   17.8845 C   0  0  0  0  0  0  0  0  0  0  0  0
    8.5652    1.5478   25.3778 N   0  0  0  0  0  0  0  0  0  0  0  0
    6.8048   -7.5457   17.8752 C   0  0  0  0  0  0  0  0  0  0  0  0
    6.1721   -8.2186   15.9886 N   0  0  0  0  0  0  0  0  0  0  0  0
   11.1764   -2.6600   19.5604 C   0  0  0  0  0  0  0  0  0  0  0  0
    9.5491   -0.6380   24.1912 C   0  0  0  0  0  0  0  0  0  0  0  0
    7.5337   -6.9256   16.9519 C   0  0  0  0  0  0  0  0  0  0  0  0
    9.6782    0.5671   23.5143 C   0  0  0  0  0  0  0  0  0  0  0  0
    8.4532    0.3482   26.0821 C   0  0  0  0  0  0  0  0  0  0  0  0
   10.4239   -1.7677   22.2230 N   0  0  0  0  0  0  0  0  0  0  0  0
    9.9468   -4.5953   20.1709 C   0  0  0  0  0  0  0  0  0  0  0  0
   10.0366   -3.0590   23.9864 N   0  0  0  0  0  0  0  0  0  0  0  0
    7.1191   -7.3636   15.7739 C   0  0  0  0  0  0  0  0  0  0  0  0
    5.9612   -8.3203   17.2732 N   0  0  0  0  0  0  0  0  0  0  0  0
    8.5296   -5.9814   17.1841 C   0  0  0  0  0  0  0  0  0  0  0  0
    9.1527   -5.2118   16.2116 C   0  0  0  0  0  0  0  0  0  0  0  0
   10.3364   -3.8368   22.9255 O   0  0  0  0  0  0  0  0  0  0  0  0
    9.6947   -4.8407   18.8534 C   0  0  0  0  0  0  0  0  0  0  0  0
    9.1596    1.7042   24.1381 C   0  0  0  0  0  0  0  0  0  0  0  0
   11.0456   -2.9774   18.2694 N   0  0  0  0  0  0  0  0  0  0  0  0
   10.4788   -3.0457   21.8593 C   0  0  0  0  0  0  0  0  0  0  0  0
    8.8693   -5.8099   18.4657 N   0  0  0  0  0  0  0  0  0  0  0  0
    8.9892   -0.7926   25.4573 C   0  0  0  0  0  0  0  0  0  0  0  0
   10.5677   -3.4462   20.5323 C   0  0  0  0  0  0  0  0  0  0  0  0
  1  8  1  0
  1 12  4  0
  1 14  4  0
  2  3  4  0
  2 18  4  0
  3 20  4  0
  3 22  4  0
  4 11  4  0
  4 21  4  0
  5  9  4  0
  5 16  4  0
  6 15  4  0
  6 16  4  0
  7 22  4  0
  7 26  4  0
  8 10  4  0
  8 25  4  0
  9 15  4  0
  9 17  1  0
 10 21  4  0
 11 25  4  0
 12 23  4  0
 13 20  4  0
 13 26  4  0
 14 19  4  0
 17 18  4  0
 17 24  4  0
 19 23  4  0
 20 24  4  0
 23 26  1  0
M  END
$$$$

 Created by Python create_sdf_string function

 26 30  0  0  0  0  0  0  0  0999 V2000
   10.0084   -1.8019   23.4945 C   0  0  0  0  0  0  0  0  0  0  0  0
   10.0005   -4.2520   16.5631 C   0  0  0  0  0  0  0  0  0  0  0  0
   10.2759   -4.0036   17.8845 C   0  0  0  0  0  0  0  0  0  0  0  0
    8.5652    1.5478   25.3778 N   0  0  0  0  0  0  0  0  0  0  0  0
    6.8048   -7.5457   17.8752 C   0  0  0  0  0  0  0  0  0  0  0  0
    6.1721   -8.2186   15.9886 N   0  0  0  0  0  0  0  0  0  0  0  0
   11.1764   -2.6600   19.5604 C   0  0  0  0  0  0  0  0  0  0  0  0
    9.5491   -0.6380   24.1912 C   0  0  0  0  0  0  0  0  0  0  0  0
    7.5337   -6.9256   16.9519 C   0  0  0  0  0  0  0  0  0  0  0  0
    9.6782    0.5671   23.5143 C   0  0  0  0  0  0  0  0  0  0  0  0
    8.4532    0.3482   26.0821 C   0  0  0  0  0  0  0  0  0  0  0  0
   10.4239   -1.7677   22.2230 N   0  0  0  0  0  0  0  0  0  0  0  0
    9.9468   -4.5953   20.1709 C   0  0  0  0  0  0  0  0  0  0  0  0
   10.0366   -3.0590   23.9864 N   0  0  0  0  0  0  0  0  0  0  0  0
    7.1191   -7.3636   15.7739 C   0  0  0  0  0  0  0  0  0  0  0  0
    5.9612   -8.3203   17.2732 N   0  0  0  0  0  0  0  0  0  0  0  0
    8.5296   -5.9814   17.1841 C   0  0  0  0  0  0  0  0  0  0  0  0
    9.1527   -5.2118   16.2116 C   0  0  0  0  0  0  0  0  0  0  0  0
   10.3364   -3.8368   22.9255 O   0  0  0  0  0  0  0  0  0  0  0  0
    9.6947   -4.8407   18.8534 C   0  0  0  0  0  0  0  0  0  0  0  0
    9.1596    1.7042   24.1381 C   0  0  0  0  0  0  0  0  0  0  0  0
   11.0456   -2.9774   18.2694 N   0  0  0  0  0  0  0  0  0  0  0  0
   10.4788   -3.0457   21.8593 C   0  0  0  0  0  0  0  0  0  0  0  0
    8.8693   -5.8099   18.4657 N   0  0  0  0  0  0  0  0  0  0  0  0
    8.9892   -0.7926   25.4573 C   0  0  0  0  0  0  0  0  0  0  0  0
   10.5677   -3.4462   20.5323 C   0  0  0  0  0  0  0  0  0  0  0  0
  1  8  1  0
  1 12  4  0
  1 14  4  0
  2  3  4  0
  2 18  4  0
  3 20  4  0
  3 22  4  0
  4 11  4  0
  4 21  4  0
  5  9  4  0
  5 16  4  0
  6 15  4  0
  6 16  4  0
  7 22  4  0
  7 26  4  0
  8 10  4  0
  8 25  4  0
  9 15  4  0
  9 17  1  0
 10 21  4  0
 11 25  4  0
 12 23  4  0
 13 20  4  0
 13 26  4  0
 14 19  4  0
 17 18  4  0
 17 24  4  0
 19 23  4  0
 20 24  4  0
 23 26  1  0
M  END
$$$$

 Created by Python create_sdf_string function

 26 30  0  0  0  0  0  0  0  0999 V2000
   10.0084   -1.8019   23.4945 C   0  0  0  0  0  0  0  0  0  0  0  0
   10.0005   -4.2520   16.5631 C   0  0  0  0  0  0  0  0  0  0  0  0
   10.2759   -4.0036   17.8845 C   0  0  0  0  0  0  0  0  0  0  0  0
    8.5652    1.5478   25.3778 N   0  0  0  0  0  0  0  0  0  0  0  0
    6.8048   -7.5457   17.8752 C   0  0  0  0  0  0  0  0  0  0  0  0
    6.1721   -8.2186   15.9886 N   0  0  0  0  0  0  0  0  0  0  0  0
   11.1764   -2.6600   19.5604 C   0  0  0  0  0  0  0  0  0  0  0  0
    9.5491   -0.6380   24.1912 C   0  0  0  0  0  0  0  0  0  0  0  0
    7.5337   -6.9256   16.9519 C   0  0  0  0  0  0  0  0  0  0  0  0
    9.6782    0.5671   23.5143 C   0  0  0  0  0  0  0  0  0  0  0  0
    8.4532    0.3482   26.0821 C   0  0  0  0  0  0  0  0  0  0  0  0
   10.4239   -1.7677   22.2230 N   0  0  0  0  0  0  0  0  0  0  0  0
    9.9468   -4.5953   20.1709 C   0  0  0  0  0  0  0  0  0  0  0  0
   10.0366   -3.0590   23.9864 N   0  0  0  0  0  0  0  0  0  0  0  0
    7.1191   -7.3636   15.7739 C   0  0  0  0  0  0  0  0  0  0  0  0
    5.9612   -8.3203   17.2732 N   0  0  0  0  0  0  0  0  0  0  0  0
    8.5296   -5.9814   17.1841 C   0  0  0  0  0  0  0  0  0  0  0  0
    9.1527   -5.2118   16.2116 C   0  0  0  0  0  0  0  0  0  0  0  0
   10.3364   -3.8368   22.9255 O   0  0  0  0  0  0  0  0  0  0  0  0
    9.6947   -4.8407   18.8534 C   0  0  0  0  0  0  0  0  0  0  0  0
    9.1596    1.7042   24.1381 C   0  0  0  0  0  0  0  0  0  0  0  0
   11.0456   -2.9774   18.2694 N   0  0  0  0  0  0  0  0  0  0  0  0
   10.4788   -3.0457   21.8593 C   0  0  0  0  0  0  0  0  0  0  0  0
    8.8693   -5.8099   18.4657 N   0  0  0  0  0  0  0  0  0  0  0  0
    8.9892   -0.7926   25.4573 C   0  0  0  0  0  0  0  0  0  0  0  0
   10.5677   -3.4462   20.5323 C   0  0  0  0  0  0  0  0  0  0  0  0
  1  8  1  0
  1 12  4  0
  1 14  4  0
  2  3  4  0
  2 18  4  0
  3 20  4  0
  3 22  4  0
  4 11  4  0
  4 21  4  0
  5  9  4  0
  5 16  4  0
  6 15  4  0
  6 16  4  0
  7 22  4  0
  7 26  4  0
  8 10  4  0
  8 25  4  0
  9 15  4  0
  9 17  1  0
 10 21  4  0
 11 25  4  0
 12 23  4  0
 13 20  4  0
 13 26  4  0
 14 19  4  0
 17 18  4  0
 17 24  4  0
 19 23  4  0
 20 24  4  0
 23 26  1  0
M  END
$$$$

 Created by Python create_sdf_string function

 26 30  0  0  0  0  0  0  0  0999 V2000
   10.0084   -1.8019   23.4945 C   0  0  0  0  0  0  0  0  0  0  0  0
   10.0005   -4.2520   16.5631 C   0  0  0  0  0  0  0  0  0  0  0  0
   10.2759   -4.0036   17.8845 C   0  0  0  0  0  0  0  0  0  0  0  0
    8.5652    1.5478   25.3778 N   0  0  0  0  0  0  0  0  0  0  0  0
    6.8048   -7.5457   17.8752 C   0  0  0  0  0  0  0  0  0  0  0  0
    6.1721   -8.2186   15.9886 N   0  0  0  0  0  0  0  0  0  0  0  0
   11.1764   -2.6600   19.5604 C   0  0  0  0  0  0  0  0  0  0  0  0
    9.5491   -0.6380   24.1912 C   0  0  0  0  0  0  0  0  0  0  0  0
    7.5337   -6.9256   16.9519 C   0  0  0  0  0  0  0  0  0  0  0  0
    9.6782    0.5671   23.5143 C   0  0  0  0  0  0  0  0  0  0  0  0
    8.4532    0.3482   26.0821 C   0  0  0  0  0  0  0  0  0  0  0  0
   10.4239   -1.7677   22.2230 N   0  0  0  0  0  0  0  0  0  0  0  0
    9.9468   -4.5953   20.1709 C   0  0  0  0  0  0  0  0  0  0  0  0
   10.0366   -3.0590   23.9864 N   0  0  0  0  0  0  0  0  0  0  0  0
    7.1191   -7.3636   15.7739 C   0  0  0  0  0  0  0  0  0  0  0  0
    5.9612   -8.3203   17.2732 N   0  0  0  0  0  0  0  0  0  0  0  0
    8.5296   -5.9814   17.1841 C   0  0  0  0  0  0  0  0  0  0  0  0
    9.1527   -5.2118   16.2116 C   0  0  0  0  0  0  0  0  0  0  0  0
   10.3364   -3.8368   22.9255 O   0  0  0  0  0  0  0  0  0  0  0  0
    9.6947   -4.8407   18.8534 C   0  0  0  0  0  0  0  0  0  0  0  0
    9.1596    1.7042   24.1381 C   0  0  0  0  0  0  0  0  0  0  0  0
   11.0456   -2.9774   18.2694 N   0  0  0  0  0  0  0  0  0  0  0  0
   10.4788   -3.0457   21.8593 C   0  0  0  0  0  0  0  0  0  0  0  0
    8.8693   -5.8099   18.4657 N   0  0  0  0  0  0  0  0  0  0  0  0
    8.9892   -0.7926   25.4573 C   0  0  0  0  0  0  0  0  0  0  0  0
   10.5677   -3.4462   20.5323 C   0  0  0  0  0  0  0  0  0  0  0  0
  1  8  1  0
  1 12  4  0
  1 14  4  0
  2  3  4  0
  2 18  4  0
  3 20  4  0
  3 22  4  0
  4 11  4  0
  4 21  4  0
  5  9  4  0
  5 16  4  0
  6 15  4  0
  6 16  4  0
  7 22  4  0
  7 26  4  0
  8 10  4  0
  8 25  4  0
  9 15  4  0
  9 17  1  0
 10 21  4  0
 11 25  4  0
 12 23  4  0
 13 20  4  0
 13 26  4  0
 14 19  4  0
 17 18  4  0
 17 24  4  0
 19 23  4  0
 20 24  4  0
 23 26  1  0
M  END
$$$$

 Created by Python create_sdf_string function

 26 30  0  0  0  0  0  0  0  0999 V2000
   10.0084   -1.8019   23.4945 C   0  0  0  0  0  0  0  0  0  0  0  0
   10.0005   -4.2520   16.5631 C   0  0  0  0  0  0  0  0  0  0  0  0
   10.2759   -4.0036   17.8845 C   0  0  0  0  0  0  0  0  0  0  0  0
    8.5652    1.5478   25.3778 N   0  0  0  0  0  0  0  0  0  0  0  0
    6.8048   -7.5457   17.8752 C   0  0  0  0  0  0  0  0  0  0  0  0
    6.1721   -8.2186   15.9886 N   0  0  0  0  0  0  0  0  0  0  0  0
   11.1764   -2.6600   19.5604 C   0  0  0  0  0  0  0  0  0  0  0  0
    9.5491   -0.6380   24.1912 C   0  0  0  0  0  0  0  0  0  0  0  0
    7.5337   -6.9256   16.9519 C   0  0  0  0  0  0  0  0  0  0  0  0
    9.6782    0.5671   23.5143 C   0  0  0  0  0  0  0  0  0  0  0  0
    8.4532    0.3482   26.0821 C   0  0  0  0  0  0  0  0  0  0  0  0
   10.4239   -1.7677   22.2230 N   0  0  0  0  0  0  0  0  0  0  0  0
    9.9468   -4.5953   20.1709 C   0  0  0  0  0  0  0  0  0  0  0  0
   10.0366   -3.0590   23.9864 N   0  0  0  0  0  0  0  0  0  0  0  0
    7.1191   -7.3636   15.7739 C   0  0  0  0  0  0  0  0  0  0  0  0
    5.9612   -8.3203   17.2732 N   0  0  0  0  0  0  0  0  0  0  0  0
    8.5296   -5.9814   17.1841 C   0  0  0  0  0  0  0  0  0  0  0  0
    9.1527   -5.2118   16.2116 C   0  0  0  0  0  0  0  0  0  0  0  0
   10.3364   -3.8368   22.9255 O   0  0  0  0  0  0  0  0  0  0  0  0
    9.6947   -4.8407   18.8534 C   0  0  0  0  0  0  0  0  0  0  0  0
    9.1596    1.7042   24.1381 C   0  0  0  0  0  0  0  0  0  0  0  0
   11.0456   -2.9774   18.2694 N   0  0  0  0  0  0  0  0  0  0  0  0
   10.4788   -3.0457   21.8593 C   0  0  0  0  0  0  0  0  0  0  0  0
    8.8693   -5.8099   18.4657 N   0  0  0  0  0  0  0  0  0  0  0  0
    8.9892   -0.7926   25.4573 C   0  0  0  0  0  0  0  0  0  0  0  0
   10.5677   -3.4462   20.5323 C   0  0  0  0  0  0  0  0  0  0  0  0
  1  8  1  0
  1 12  4  0
  1 14  4  0
  2  3  4  0
  2 18  4  0
  3 20  4  0
  3 22  4  0
  4 11  4  0
  4 21  4  0
  5  9  4  0
  5 16  4  0
  6 15  4  0
  6 16  4  0
  7 22  4  0
  7 26  4  0
  8 10  4  0
  8 25  4  0
  9 15  4  0
  9 17  1  0
 10 21  4  0
 11 25  4  0
 12 23  4  0
 13 20  4  0
 13 26  4  0
 14 19  4  0
 17 18  4  0
 17 24  4  0
 19 23  4  0
 20 24  4  0
 23 26  1  0
M  END
$$$$

 Created by Python create_sdf_string function

 26 30  0  0  0  0  0  0  0  0999 V2000
   10.0084   -1.8019   23.4945 C   0  0  0  0  0  0  0  0  0  0  0  0
   10.0005   -4.2520   16.5631 C   0  0  0  0  0  0  0  0  0  0  0  0
   10.2759   -4.0036   17.8845 C   0  0  0  0  0  0  0  0  0  0  0  0
    8.5652    1.5478   25.3778 N   0  0  0  0  0  0  0  0  0  0  0  0
    6.8048   -7.5457   17.8752 C   0  0  0  0  0  0  0  0  0  0  0  0
    6.1721   -8.2186   15.9886 N   0  0  0  0  0  0  0  0  0  0  0  0
   11.1764   -2.6600   19.5604 C   0  0  0  0  0  0  0  0  0  0  0  0
    9.5491   -0.6380   24.1912 C   0  0  0  0  0  0  0  0  0  0  0  0
    7.5337   -6.9256   16.9519 C   0  0  0  0  0  0  0  0  0  0  0  0
    9.6782    0.5671   23.5143 C   0  0  0  0  0  0  0  0  0  0  0  0
    8.4532    0.3482   26.0821 C   0  0  0  0  0  0  0  0  0  0  0  0
   10.4239   -1.7677   22.2230 N   0  0  0  0  0  0  0  0  0  0  0  0
    9.9468   -4.5953   20.1709 C   0  0  0  0  0  0  0  0  0  0  0  0
   10.0366   -3.0590   23.9864 N   0  0  0  0  0  0  0  0  0  0  0  0
    7.1191   -7.3636   15.7739 C   0  0  0  0  0  0  0  0  0  0  0  0
    5.9612   -8.3203   17.2732 N   0  0  0  0  0  0  0  0  0  0  0  0
    8.5296   -5.9814   17.1841 C   0  0  0  0  0  0  0  0  0  0  0  0
    9.1527   -5.2118   16.2116 C   0  0  0  0  0  0  0  0  0  0  0  0
   10.3364   -3.8368   22.9255 O   0  0  0  0  0  0  0  0  0  0  0  0
    9.6947   -4.8407   18.8534 C   0  0  0  0  0  0  0  0  0  0  0  0
    9.1596    1.7042   24.1381 C   0  0  0  0  0  0  0  0  0  0  0  0
   11.0456   -2.9774   18.2694 N   0  0  0  0  0  0  0  0  0  0  0  0
   10.4788   -3.0457   21.8593 C   0  0  0  0  0  0  0  0  0  0  0  0
    8.8693   -5.8099   18.4657 N   0  0  0  0  0  0  0  0  0  0  0  0
    8.9892   -0.7926   25.4573 C   0  0  0  0  0  0  0  0  0  0  0  0
   10.5677   -3.4462   20.5323 C   0  0  0  0  0  0  0  0  0  0  0  0
  1  8  1  0
  1 12  4  0
  1 14  4  0
  2  3  4  0
  2 18  4  0
  3 20  4  0
  3 22  4  0
  4 11  4  0
  4 21  4  0
  5  9  4  0
  5 16  4  0
  6 15  4  0
  6 16  4  0
  7 22  4  0
  7 26  4  0
  8 10  4  0
  8 25  4  0
  9 15  4  0
  9 17  1  0
 10 21  4  0
 11 25  4  0
 12 23  4  0
 13 20  4  0
 13 26  4  0
 14 19  4  0
 17 18  4  0
 17 24  4  0
 19 23  4  0
 20 24  4  0
 23 26  1  0
M  END
$$$$

 Created by Python create_sdf_string function

 26 30  0  0  0  0  0  0  0  0999 V2000
   10.0084   -1.8019   23.4945 C   0  0  0  0  0  0  0  0  0  0  0  0
   10.0005   -4.2520   16.5631 C   0  0  0  0  0  0  0  0  0  0  0  0
   10.2759   -4.0036   17.8845 C   0  0  0  0  0  0  0  0  0  0  0  0
    8.5652    1.5478   25.3778 N   0  0  0  0  0  0  0  0  0  0  0  0
    6.8048   -7.5457   17.8752 C   0  0  0  0  0  0  0  0  0  0  0  0
    6.1721   -8.2186   15.9886 N   0  0  0  0  0  0  0  0  0  0  0  0
   11.1764   -2.6600   19.5604 C   0  0  0  0  0  0  0  0  0  0  0  0
    9.5491   -0.6380   24.1912 C   0  0  0  0  0  0  0  0  0  0  0  0
    7.5337   -6.9256   16.9519 C   0  0  0  0  0  0  0  0  0  0  0  0
    9.6782    0.5671   23.5143 C   0  0  0  0  0  0  0  0  0  0  0  0
    8.4532    0.3482   26.0821 C   0  0  0  0  0  0  0  0  0  0  0  0
   10.4239   -1.7677   22.2230 N   0  0  0  0  0  0  0  0  0  0  0  0
    9.9468   -4.5953   20.1709 C   0  0  0  0  0  0  0  0  0  0  0  0
   10.0366   -3.0590   23.9864 N   0  0  0  0  0  0  0  0  0  0  0  0
    7.1191   -7.3636   15.7739 C   0  0  0  0  0  0  0  0  0  0  0  0
    5.9612   -8.3203   17.2732 N   0  0  0  0  0  0  0  0  0  0  0  0
    8.5296   -5.9814   17.1841 C   0  0  0  0  0  0  0  0  0  0  0  0
    9.1527   -5.2118   16.2116 C   0  0  0  0  0  0  0  0  0  0  0  0
   10.3364   -3.8368   22.9255 O   0  0  0  0  0  0  0  0  0  0  0  0
    9.6947   -4.8407   18.8534 C   0  0  0  0  0  0  0  0  0  0  0  0
    9.1596    1.7042   24.1381 C   0  0  0  0  0  0  0  0  0  0  0  0
   11.0456   -2.9774   18.2694 N   0  0  0  0  0  0  0  0  0  0  0  0
   10.4788   -3.0457   21.8593 C   0  0  0  0  0  0  0  0  0  0  0  0
    8.8693   -5.8099   18.4657 N   0  0  0  0  0  0  0  0  0  0  0  0
    8.9892   -0.7926   25.4573 C   0  0  0  0  0  0  0  0  0  0  0  0
   10.5677   -3.4462   20.5323 C   0  0  0  0  0  0  0  0  0  0  0  0
  1  8  1  0
  1 12  4  0
  1 14  4  0
  2  3  4  0
  2 18  4  0
  3 20  4  0
  3 22  4  0
  4 11  4  0
  4 21  4  0
  5  9  4  0
  5 16  4  0
  6 15  4  0
  6 16  4  0
  7 22  4  0
  7 26  4  0
  8 10  4  0
  8 25  4  0
  9 15  4  0
  9 17  1  0
 10 21  4  0
 11 25  4  0
 12 23  4  0
 13 20  4  0
 13 26  4  0
 14 19  4  0
 17 18  4  0
 17 24  4  0
 19 23  4  0
 20 24  4  0
 23 26  1  0
M  END
$$$$

 Created by Python create_sdf_string function

 26 30  0  0  0  0  0  0  0  0999 V2000
   10.0084   -1.8019   23.4945 C   0  0  0  0  0  0  0  0  0  0  0  0
   10.0005   -4.2520   16.5631 C   0  0  0  0  0  0  0  0  0  0  0  0
   10.2759   -4.0036   17.8845 C   0  0  0  0  0  0  0  0  0  0  0  0
    8.5652    1.5478   25.3778 N   0  0  0  0  0  0  0  0  0  0  0  0
    6.8048   -7.5457   17.8752 C   0  0  0  0  0  0  0  0  0  0  0  0
    6.1721   -8.2186   15.9886 N   0  0  0  0  0  0  0  0  0  0  0  0
   11.1764   -2.6600   19.5604 C   0  0  0  0  0  0  0  0  0  0  0  0
    9.5491   -0.6380   24.1912 C   0  0  0  0  0  0  0  0  0  0  0  0
    7.5337   -6.9256   16.9519 C   0  0  0  0  0  0  0  0  0  0  0  0
    9.6782    0.5671   23.5143 C   0  0  0  0  0  0  0  0  0  0  0  0
    8.4532    0.3482   26.0821 C   0  0  0  0  0  0  0  0  0  0  0  0
   10.4239   -1.7677   22.2230 N   0  0  0  0  0  0  0  0  0  0  0  0
    9.9468   -4.5953   20.1709 C   0  0  0  0  0  0  0  0  0  0  0  0
   10.0366   -3.0590   23.9864 N   0  0  0  0  0  0  0  0  0  0  0  0
    7.1191   -7.3636   15.7739 C   0  0  0  0  0  0  0  0  0  0  0  0
    5.9612   -8.3203   17.2732 N   0  0  0  0  0  0  0  0  0  0  0  0
    8.5296   -5.9814   17.1841 C   0  0  0  0  0  0  0  0  0  0  0  0
    9.1527   -5.2118   16.2116 C   0  0  0  0  0  0  0  0  0  0  0  0
   10.3364   -3.8368   22.9255 O   0  0  0  0  0  0  0  0  0  0  0  0
    9.6947   -4.8407   18.8534 C   0  0  0  0  0  0  0  0  0  0  0  0
    9.1596    1.7042   24.1381 C   0  0  0  0  0  0  0  0  0  0  0  0
   11.0456   -2.9774   18.2694 N   0  0  0  0  0  0  0  0  0  0  0  0
   10.4788   -3.0457   21.8593 C   0  0  0  0  0  0  0  0  0  0  0  0
    8.8693   -5.8099   18.4657 N   0  0  0  0  0  0  0  0  0  0  0  0
    8.9892   -0.7926   25.4573 C   0  0  0  0  0  0  0  0  0  0  0  0
   10.5677   -3.4462   20.5323 C   0  0  0  0  0  0  0  0  0  0  0  0
  1  8  1  0
  1 12  4  0
  1 14  4  0
  2  3  4  0
  2 18  4  0
  3 20  4  0
  3 22  4  0
  4 11  4  0
  4 21  4  0
  5  9  4  0
  5 16  4  0
  6 15  4  0
  6 16  4  0
  7 22  4  0
  7 26  4  0
  8 10  4  0
  8 25  4  0
  9 15  4  0
  9 17  1  0
 10 21  4  0
 11 25  4  0
 12 23  4  0
 13 20  4  0
 13 26  4  0
 14 19  4  0
 17 18  4  0
 17 24  4  0
 19 23  4  0
 20 24  4  0
 23 26  1  0
M  END
$$$$

 Created by Python create_sdf_string function

 26 30  0  0  0  0  0  0  0  0999 V2000
   10.0084   -1.8019   23.4945 C   0  0  0  0  0  0  0  0  0  0  0  0
   10.0005   -4.2520   16.5631 C   0  0  0  0  0  0  0  0  0  0  0  0
   10.2759   -4.0036   17.8845 C   0  0  0  0  0  0  0  0  0  0  0  0
    8.5652    1.5478   25.3778 N   0  0  0  0  0  0  0  0  0  0  0  0
    6.8048   -7.5457   17.8752 C   0  0  0  0  0  0  0  0  0  0  0  0
    6.1721   -8.2186   15.9886 N   0  0  0  0  0  0  0  0  0  0  0  0
   11.1764   -2.6600   19.5604 C   0  0  0  0  0  0  0  0  0  0  0  0
    9.5491   -0.6380   24.1912 C   0  0  0  0  0  0  0  0  0  0  0  0
    7.5337   -6.9256   16.9519 C   0  0  0  0  0  0  0  0  0  0  0  0
    9.6782    0.5671   23.5143 C   0  0  0  0  0  0  0  0  0  0  0  0
    8.4532    0.3482   26.0821 C   0  0  0  0  0  0  0  0  0  0  0  0
   10.4239   -1.7677   22.2230 N   0  0  0  0  0  0  0  0  0  0  0  0
    9.9468   -4.5953   20.1709 C   0  0  0  0  0  0  0  0  0  0  0  0
   10.0366   -3.0590   23.9864 N   0  0  0  0  0  0  0  0  0  0  0  0
    7.1191   -7.3636   15.7739 C   0  0  0  0  0  0  0  0  0  0  0  0
    5.9612   -8.3203   17.2732 N   0  0  0  0  0  0  0  0  0  0  0  0
    8.5296   -5.9814   17.1841 C   0  0  0  0  0  0  0  0  0  0  0  0
    9.1527   -5.2118   16.2116 C   0  0  0  0  0  0  0  0  0  0  0  0
   10.3364   -3.8368   22.9255 O   0  0  0  0  0  0  0  0  0  0  0  0
    9.6947   -4.8407   18.8534 C   0  0  0  0  0  0  0  0  0  0  0  0
    9.1596    1.7042   24.1381 C   0  0  0  0  0  0  0  0  0  0  0  0
   11.0456   -2.9774   18.2694 N   0  0  0  0  0  0  0  0  0  0  0  0
   10.4788   -3.0457   21.8593 C   0  0  0  0  0  0  0  0  0  0  0  0
    8.8693   -5.8099   18.4657 N   0  0  0  0  0  0  0  0  0  0  0  0
    8.9892   -0.7926   25.4573 C   0  0  0  0  0  0  0  0  0  0  0  0
   10.5677   -3.4462   20.5323 C   0  0  0  0  0  0  0  0  0  0  0  0
  1  8  1  0
  1 12  4  0
  1 14  4  0
  2  3  4  0
  2 18  4  0
  3 20  4  0
  3 22  4  0
  4 11  4  0
  4 21  4  0
  5  9  4  0
  5 16  4  0
  6 15  4  0
  6 16  4  0
  7 22  4  0
  7 26  4  0
  8 10  4  0
  8 25  4  0
  9 15  4  0
  9 17  1  0
 10 21  4  0
 11 25  4  0
 12 23  4  0
 13 20  4  0
 13 26  4  0
 14 19  4  0
 17 18  4  0
 17 24  4  0
 19 23  4  0
 20 24  4  0
 23 26  1  0
M  END
$$$$

 Created by Python create_sdf_string function

 26 30  0  0  0  0  0  0  0  0999 V2000
   10.0084   -1.8019   23.4945 C   0  0  0  0  0  0  0  0  0  0  0  0
   10.0005   -4.2520   16.5631 C   0  0  0  0  0  0  0  0  0  0  0  0
   10.2759   -4.0036   17.8845 C   0  0  0  0  0  0  0  0  0  0  0  0
    8.5652    1.5478   25.3778 N   0  0  0  0  0  0  0  0  0  0  0  0
    6.8048   -7.5457   17.8752 C   0  0  0  0  0  0  0  0  0  0  0  0
    6.1721   -8.2186   15.9886 N   0  0  0  0  0  0  0  0  0  0  0  0
   11.1764   -2.6600   19.5604 C   0  0  0  0  0  0  0  0  0  0  0  0
    9.5491   -0.6380   24.1912 C   0  0  0  0  0  0  0  0  0  0  0  0
    7.5337   -6.9256   16.9519 C   0  0  0  0  0  0  0  0  0  0  0  0
    9.6782    0.5671   23.5143 C   0  0  0  0  0  0  0  0  0  0  0  0
    8.4532    0.3482   26.0821 C   0  0  0  0  0  0  0  0  0  0  0  0
   10.4239   -1.7677   22.2230 N   0  0  0  0  0  0  0  0  0  0  0  0
    9.9468   -4.5953   20.1709 C   0  0  0  0  0  0  0  0  0  0  0  0
   10.0366   -3.0590   23.9864 N   0  0  0  0  0  0  0  0  0  0  0  0
    7.1191   -7.3636   15.7739 C   0  0  0  0  0  0  0  0  0  0  0  0
    5.9612   -8.3203   17.2732 N   0  0  0  0  0  0  0  0  0  0  0  0
    8.5296   -5.9814   17.1841 C   0  0  0  0  0  0  0  0  0  0  0  0
    9.1527   -5.2118   16.2116 C   0  0  0  0  0  0  0  0  0  0  0  0
   10.3364   -3.8368   22.9255 O   0  0  0  0  0  0  0  0  0  0  0  0
    9.6947   -4.8407   18.8534 C   0  0  0  0  0  0  0  0  0  0  0  0
    9.1596    1.7042   24.1381 C   0  0  0  0  0  0  0  0  0  0  0  0
   11.0456   -2.9774   18.2694 N   0  0  0  0  0  0  0  0  0  0  0  0
   10.4788   -3.0457   21.8593 C   0  0  0  0  0  0  0  0  0  0  0  0
    8.8693   -5.8099   18.4657 N   0  0  0  0  0  0  0  0  0  0  0  0
    8.9892   -0.7926   25.4573 C   0  0  0  0  0  0  0  0  0  0  0  0
   10.5677   -3.4462   20.5323 C   0  0  0  0  0  0  0  0  0  0  0  0
  1  8  1  0
  1 12  4  0
  1 14  4  0
  2  3  4  0
  2 18  4  0
  3 20  4  0
  3 22  4  0
  4 11  4  0
  4 21  4  0
  5  9  4  0
  5 16  4  0
  6 15  4  0
  6 16  4  0
  7 22  4  0
  7 26  4  0
  8 10  4  0
  8 25  4  0
  9 15  4  0
  9 17  1  0
 10 21  4  0
 11 25  4  0
 12 23  4  0
 13 20  4  0
 13 26  4  0
 14 19  4  0
 17 18  4  0
 17 24  4  0
 19 23  4  0
 20 24  4  0
 23 26  1  0
M  END
$$$$

 Created by Python create_sdf_string function

 26 30  0  0  0  0  0  0  0  0999 V2000
   10.0084   -1.8019   23.4945 C   0  0  0  0  0  0  0  0  0  0  0  0
   10.0005   -4.2520   16.5631 C   0  0  0  0  0  0  0  0  0  0  0  0
   10.2759   -4.0036   17.8845 C   0  0  0  0  0  0  0  0  0  0  0  0
    8.5652    1.5478   25.3778 N   0  0  0  0  0  0  0  0  0  0  0  0
    6.8048   -7.5457   17.8752 C   0  0  0  0  0  0  0  0  0  0  0  0
    6.1721   -8.2186   15.9886 N   0  0  0  0  0  0  0  0  0  0  0  0
   11.1764   -2.6600   19.5604 C   0  0  0  0  0  0  0  0  0  0  0  0
    9.5491   -0.6380   24.1912 C   0  0  0  0  0  0  0  0  0  0  0  0
    7.5337   -6.9256   16.9519 C   0  0  0  0  0  0  0  0  0  0  0  0
    9.6782    0.5671   23.5143 C   0  0  0  0  0  0  0  0  0  0  0  0
    8.4532    0.3482   26.0821 C   0  0  0  0  0  0  0  0  0  0  0  0
   10.4239   -1.7677   22.2230 N   0  0  0  0  0  0  0  0  0  0  0  0
    9.9468   -4.5953   20.1709 C   0  0  0  0  0  0  0  0  0  0  0  0
   10.0366   -3.0590   23.9864 N   0  0  0  0  0  0  0  0  0  0  0  0
    7.1191   -7.3636   15.7739 C   0  0  0  0  0  0  0  0  0  0  0  0
    5.9612   -8.3203   17.2732 N   0  0  0  0  0  0  0  0  0  0  0  0
    8.5296   -5.9814   17.1841 C   0  0  0  0  0  0  0  0  0  0  0  0
    9.1527   -5.2118   16.2116 C   0  0  0  0  0  0  0  0  0  0  0  0
   10.3364   -3.8368   22.9255 O   0  0  0  0  0  0  0  0  0  0  0  0
    9.6947   -4.8407   18.8534 C   0  0  0  0  0  0  0  0  0  0  0  0
    9.1596    1.7042   24.1381 C   0  0  0  0  0  0  0  0  0  0  0  0
   11.0456   -2.9774   18.2694 N   0  0  0  0  0  0  0  0  0  0  0  0
   10.4788   -3.0457   21.8593 C   0  0  0  0  0  0  0  0  0  0  0  0
    8.8693   -5.8099   18.4657 N   0  0  0  0  0  0  0  0  0  0  0  0
    8.9892   -0.7926   25.4573 C   0  0  0  0  0  0  0  0  0  0  0  0
   10.5677   -3.4462   20.5323 C   0  0  0  0  0  0  0  0  0  0  0  0
  1  8  1  0
  1 12  4  0
  1 14  4  0
  2  3  4  0
  2 18  4  0
  3 20  4  0
  3 22  4  0
  4 11  4  0
  4 21  4  0
  5  9  4  0
  5 16  4  0
  6 15  4  0
  6 16  4  0
  7 22  4  0
  7 26  4  0
  8 10  4  0
  8 25  4  0
  9 15  4  0
  9 17  1  0
 10 21  4  0
 11 25  4  0
 12 23  4  0
 13 20  4  0
 13 26  4  0
 14 19  4  0
 17 18  4  0
 17 24  4  0
 19 23  4  0
 20 24  4  0
 23 26  1  0
M  END
$$$$

 Created by Python create_sdf_string function

 26 30  0  0  0  0  0  0  0  0999 V2000
   10.0084   -1.8019   23.4945 C   0  0  0  0  0  0  0  0  0  0  0  0
   10.0005   -4.2520   16.5631 C   0  0  0  0  0  0  0  0  0  0  0  0
   10.2759   -4.0036   17.8845 C   0  0  0  0  0  0  0  0  0  0  0  0
    8.5652    1.5478   25.3778 N   0  0  0  0  0  0  0  0  0  0  0  0
    6.8048   -7.5457   17.8752 C   0  0  0  0  0  0  0  0  0  0  0  0
    6.1721   -8.2186   15.9886 N   0  0  0  0  0  0  0  0  0  0  0  0
   11.1764   -2.6600   19.5604 C   0  0  0  0  0  0  0  0  0  0  0  0
    9.5491   -0.6380   24.1912 C   0  0  0  0  0  0  0  0  0  0  0  0
    7.5337   -6.9256   16.9519 C   0  0  0  0  0  0  0  0  0  0  0  0
    9.6782    0.5671   23.5143 C   0  0  0  0  0  0  0  0  0  0  0  0
    8.4532    0.3482   26.0821 C   0  0  0  0  0  0  0  0  0  0  0  0
   10.4239   -1.7677   22.2230 N   0  0  0  0  0  0  0  0  0  0  0  0
    9.9468   -4.5953   20.1709 C   0  0  0  0  0  0  0  0  0  0  0  0
   10.0366   -3.0590   23.9864 N   0  0  0  0  0  0  0  0  0  0  0  0
    7.1191   -7.3636   15.7739 C   0  0  0  0  0  0  0  0  0  0  0  0
    5.9612   -8.3203   17.2732 N   0  0  0  0  0  0  0  0  0  0  0  0
    8.5296   -5.9814   17.1841 C   0  0  0  0  0  0  0  0  0  0  0  0
    9.1527   -5.2118   16.2116 C   0  0  0  0  0  0  0  0  0  0  0  0
   10.3364   -3.8368   22.9255 O   0  0  0  0  0  0  0  0  0  0  0  0
    9.6947   -4.8407   18.8534 C   0  0  0  0  0  0  0  0  0  0  0  0
    9.1596    1.7042   24.1381 C   0  0  0  0  0  0  0  0  0  0  0  0
   11.0456   -2.9774   18.2694 N   0  0  0  0  0  0  0  0  0  0  0  0
   10.4788   -3.0457   21.8593 C   0  0  0  0  0  0  0  0  0  0  0  0
    8.8693   -5.8099   18.4657 N   0  0  0  0  0  0  0  0  0  0  0  0
    8.9892   -0.7926   25.4573 C   0  0  0  0  0  0  0  0  0  0  0  0
   10.5677   -3.4462   20.5323 C   0  0  0  0  0  0  0  0  0  0  0  0
  1  8  1  0
  1 12  4  0
  1 14  4  0
  2  3  4  0
  2 18  4  0
  3 20  4  0
  3 22  4  0
  4 11  4  0
  4 21  4  0
  5  9  4  0
  5 16  4  0
  6 15  4  0
  6 16  4  0
  7 22  4  0
  7 26  4  0
  8 10  4  0
  8 25  4  0
  9 15  4  0
  9 17  1  0
 10 21  4  0
 11 25  4  0
 12 23  4  0
 13 20  4  0
 13 26  4  0
 14 19  4  0
 17 18  4  0
 17 24  4  0
 19 23  4  0
 20 24  4  0
 23 26  1  0
M  END
$$$$

 Created by Python create_sdf_string function

 26 30  0  0  0  0  0  0  0  0999 V2000
   10.0084   -1.8019   23.4945 C   0  0  0  0  0  0  0  0  0  0  0  0
   10.0005   -4.2520   16.5631 C   0  0  0  0  0  0  0  0  0  0  0  0
   10.2759   -4.0036   17.8845 C   0  0  0  0  0  0  0  0  0  0  0  0
    8.5652    1.5478   25.3778 N   0  0  0  0  0  0  0  0  0  0  0  0
    6.8048   -7.5457   17.8752 C   0  0  0  0  0  0  0  0  0  0  0  0
    6.1721   -8.2186   15.9886 N   0  0  0  0  0  0  0  0  0  0  0  0
   11.1764   -2.6600   19.5604 C   0  0  0  0  0  0  0  0  0  0  0  0
    9.5491   -0.6380   24.1912 C   0  0  0  0  0  0  0  0  0  0  0  0
    7.5337   -6.9256   16.9519 C   0  0  0  0  0  0  0  0  0  0  0  0
    9.6782    0.5671   23.5143 C   0  0  0  0  0  0  0  0  0  0  0  0
    8.4532    0.3482   26.0821 C   0  0  0  0  0  0  0  0  0  0  0  0
   10.4239   -1.7677   22.2230 N   0  0  0  0  0  0  0  0  0  0  0  0
    9.9468   -4.5953   20.1709 C   0  0  0  0  0  0  0  0  0  0  0  0
   10.0366   -3.0590   23.9864 N   0  0  0  0  0  0  0  0  0  0  0  0
    7.1191   -7.3636   15.7739 C   0  0  0  0  0  0  0  0  0  0  0  0
    5.9612   -8.3203   17.2732 N   0  0  0  0  0  0  0  0  0  0  0  0
    8.5296   -5.9814   17.1841 C   0  0  0  0  0  0  0  0  0  0  0  0
    9.1527   -5.2118   16.2116 C   0  0  0  0  0  0  0  0  0  0  0  0
   10.3364   -3.8368   22.9255 O   0  0  0  0  0  0  0  0  0  0  0  0
    9.6947   -4.8407   18.8534 C   0  0  0  0  0  0  0  0  0  0  0  0
    9.1596    1.7042   24.1381 C   0  0  0  0  0  0  0  0  0  0  0  0
   11.0456   -2.9774   18.2694 N   0  0  0  0  0  0  0  0  0  0  0  0
   10.4788   -3.0457   21.8593 C   0  0  0  0  0  0  0  0  0  0  0  0
    8.8693   -5.8099   18.4657 N   0  0  0  0  0  0  0  0  0  0  0  0
    8.9892   -0.7926   25.4573 C   0  0  0  0  0  0  0  0  0  0  0  0
   10.5677   -3.4462   20.5323 C   0  0  0  0  0  0  0  0  0  0  0  0
  1  8  1  0
  1 12  4  0
  1 14  4  0
  2  3  4  0
  2 18  4  0
  3 20  4  0
  3 22  4  0
  4 11  4  0
  4 21  4  0
  5  9  4  0
  5 16  4  0
  6 15  4  0
  6 16  4  0
  7 22  4  0
  7 26  4  0
  8 10  4  0
  8 25  4  0
  9 15  4  0
  9 17  1  0
 10 21  4  0
 11 25  4  0
 12 23  4  0
 13 20  4  0
 13 26  4  0
 14 19  4  0
 17 18  4  0
 17 24  4  0
 19 23  4  0
 20 24  4  0
 23 26  1  0
M  END
$$$$

 Created by Python create_sdf_string function

 26 30  0  0  0  0  0  0  0  0999 V2000
   10.0084   -1.8019   23.4945 C   0  0  0  0  0  0  0  0  0  0  0  0
   10.0005   -4.2520   16.5631 C   0  0  0  0  0  0  0  0  0  0  0  0
   10.2759   -4.0036   17.8845 C   0  0  0  0  0  0  0  0  0  0  0  0
    8.5652    1.5478   25.3778 N   0  0  0  0  0  0  0  0  0  0  0  0
    6.8048   -7.5457   17.8752 C   0  0  0  0  0  0  0  0  0  0  0  0
    6.1721   -8.2186   15.9886 N   0  0  0  0  0  0  0  0  0  0  0  0
   11.1764   -2.6600   19.5604 C   0  0  0  0  0  0  0  0  0  0  0  0
    9.5491   -0.6380   24.1912 C   0  0  0  0  0  0  0  0  0  0  0  0
    7.5337   -6.9256   16.9519 C   0  0  0  0  0  0  0  0  0  0  0  0
    9.6782    0.5671   23.5143 C   0  0  0  0  0  0  0  0  0  0  0  0
    8.4532    0.3482   26.0821 C   0  0  0  0  0  0  0  0  0  0  0  0
   10.4239   -1.7677   22.2230 N   0  0  0  0  0  0  0  0  0  0  0  0
    9.9468   -4.5953   20.1709 C   0  0  0  0  0  0  0  0  0  0  0  0
   10.0366   -3.0590   23.9864 N   0  0  0  0  0  0  0  0  0  0  0  0
    7.1191   -7.3636   15.7739 C   0  0  0  0  0  0  0  0  0  0  0  0
    5.9612   -8.3203   17.2732 N   0  0  0  0  0  0  0  0  0  0  0  0
    8.5296   -5.9814   17.1841 C   0  0  0  0  0  0  0  0  0  0  0  0
    9.1527   -5.2118   16.2116 C   0  0  0  0  0  0  0  0  0  0  0  0
   10.3364   -3.8368   22.9255 O   0  0  0  0  0  0  0  0  0  0  0  0
    9.6947   -4.8407   18.8534 C   0  0  0  0  0  0  0  0  0  0  0  0
    9.1596    1.7042   24.1381 C   0  0  0  0  0  0  0  0  0  0  0  0
   11.0456   -2.9774   18.2694 N   0  0  0  0  0  0  0  0  0  0  0  0
   10.4788   -3.0457   21.8593 C   0  0  0  0  0  0  0  0  0  0  0  0
    8.8693   -5.8099   18.4657 N   0  0  0  0  0  0  0  0  0  0  0  0
    8.9892   -0.7926   25.4573 C   0  0  0  0  0  0  0  0  0  0  0  0
   10.5677   -3.4462   20.5323 C   0  0  0  0  0  0  0  0  0  0  0  0
  1  8  1  0
  1 12  4  0
  1 14  4  0
  2  3  4  0
  2 18  4  0
  3 20  4  0
  3 22  4  0
  4 11  4  0
  4 21  4  0
  5  9  4  0
  5 16  4  0
  6 15  4  0
  6 16  4  0
  7 22  4  0
  7 26  4  0
  8 10  4  0
  8 25  4  0
  9 15  4  0
  9 17  1  0
 10 21  4  0
 11 25  4  0
 12 23  4  0
 13 20  4  0
 13 26  4  0
 14 19  4  0
 17 18  4  0
 17 24  4  0
 19 23  4  0
 20 24  4  0
 23 26  1  0
M  END
$$$$

 Created by Python create_sdf_string function

 26 30  0  0  0  0  0  0  0  0999 V2000
   10.0084   -1.8019   23.4945 C   0  0  0  0  0  0  0  0  0  0  0  0
   10.0005   -4.2520   16.5631 C   0  0  0  0  0  0  0  0  0  0  0  0
   10.2759   -4.0036   17.8845 C   0  0  0  0  0  0  0  0  0  0  0  0
    8.5652    1.5478   25.3778 N   0  0  0  0  0  0  0  0  0  0  0  0
    6.8048   -7.5457   17.8752 C   0  0  0  0  0  0  0  0  0  0  0  0
    6.1721   -8.2186   15.9886 N   0  0  0  0  0  0  0  0  0  0  0  0
   11.1764   -2.6600   19.5604 C   0  0  0  0  0  0  0  0  0  0  0  0
    9.5491   -0.6380   24.1912 C   0  0  0  0  0  0  0  0  0  0  0  0
    7.5337   -6.9256   16.9519 C   0  0  0  0  0  0  0  0  0  0  0  0
    9.6782    0.5671   23.5143 C   0  0  0  0  0  0  0  0  0  0  0  0
    8.4532    0.3482   26.0821 C   0  0  0  0  0  0  0  0  0  0  0  0
   10.4239   -1.7677   22.2230 N   0  0  0  0  0  0  0  0  0  0  0  0
    9.9468   -4.5953   20.1709 C   0  0  0  0  0  0  0  0  0  0  0  0
   10.0366   -3.0590   23.9864 N   0  0  0  0  0  0  0  0  0  0  0  0
    7.1191   -7.3636   15.7739 C   0  0  0  0  0  0  0  0  0  0  0  0
    5.9612   -8.3203   17.2732 N   0  0  0  0  0  0  0  0  0  0  0  0
    8.5296   -5.9814   17.1841 C   0  0  0  0  0  0  0  0  0  0  0  0
    9.1527   -5.2118   16.2116 C   0  0  0  0  0  0  0  0  0  0  0  0
   10.3364   -3.8368   22.9255 O   0  0  0  0  0  0  0  0  0  0  0  0
    9.6947   -4.8407   18.8534 C   0  0  0  0  0  0  0  0  0  0  0  0
    9.1596    1.7042   24.1381 C   0  0  0  0  0  0  0  0  0  0  0  0
   11.0456   -2.9774   18.2694 N   0  0  0  0  0  0  0  0  0  0  0  0
   10.4788   -3.0457   21.8593 C   0  0  0  0  0  0  0  0  0  0  0  0
    8.8693   -5.8099   18.4657 N   0  0  0  0  0  0  0  0  0  0  0  0
    8.9892   -0.7926   25.4573 C   0  0  0  0  0  0  0  0  0  0  0  0
   10.5677   -3.4462   20.5323 C   0  0  0  0  0  0  0  0  0  0  0  0
  1  8  1  0
  1 12  4  0
  1 14  4  0
  2  3  4  0
  2 18  4  0
  3 20  4  0
  3 22  4  0
  4 11  4  0
  4 21  4  0
  5  9  4  0
  5 16  4  0
  6 15  4  0
  6 16  4  0
  7 22  4  0
  7 26  4  0
  8 10  4  0
  8 25  4  0
  9 15  4  0
  9 17  1  0
 10 21  4  0
 11 25  4  0
 12 23  4  0
 13 20  4  0
 13 26  4  0
 14 19  4  0
 17 18  4  0
 17 24  4  0
 19 23  4  0
 20 24  4  0
 23 26  1  0
M  END
$$$$

 Created by Python create_sdf_string function

 26 30  0  0  0  0  0  0  0  0999 V2000
   10.0084   -1.8019   23.4945 C   0  0  0  0  0  0  0  0  0  0  0  0
   10.0005   -4.2520   16.5631 C   0  0  0  0  0  0  0  0  0  0  0  0
   10.2759   -4.0036   17.8845 C   0  0  0  0  0  0  0  0  0  0  0  0
    8.5652    1.5478   25.3778 N   0  0  0  0  0  0  0  0  0  0  0  0
    6.8048   -7.5457   17.8752 C   0  0  0  0  0  0  0  0  0  0  0  0
    6.1721   -8.2186   15.9886 N   0  0  0  0  0  0  0  0  0  0  0  0
   11.1764   -2.6600   19.5604 C   0  0  0  0  0  0  0  0  0  0  0  0
    9.5491   -0.6380   24.1912 C   0  0  0  0  0  0  0  0  0  0  0  0
    7.5337   -6.9256   16.9519 C   0  0  0  0  0  0  0  0  0  0  0  0
    9.6782    0.5671   23.5143 C   0  0  0  0  0  0  0  0  0  0  0  0
    8.4532    0.3482   26.0821 C   0  0  0  0  0  0  0  0  0  0  0  0
   10.4239   -1.7677   22.2230 N   0  0  0  0  0  0  0  0  0  0  0  0
    9.9468   -4.5953   20.1709 C   0  0  0  0  0  0  0  0  0  0  0  0
   10.0366   -3.0590   23.9864 N   0  0  0  0  0  0  0  0  0  0  0  0
    7.1191   -7.3636   15.7739 C   0  0  0  0  0  0  0  0  0  0  0  0
    5.9612   -8.3203   17.2732 N   0  0  0  0  0  0  0  0  0  0  0  0
    8.5296   -5.9814   17.1841 C   0  0  0  0  0  0  0  0  0  0  0  0
    9.1527   -5.2118   16.2116 C   0  0  0  0  0  0  0  0  0  0  0  0
   10.3364   -3.8368   22.9255 O   0  0  0  0  0  0  0  0  0  0  0  0
    9.6947   -4.8407   18.8534 C   0  0  0  0  0  0  0  0  0  0  0  0
    9.1596    1.7042   24.1381 C   0  0  0  0  0  0  0  0  0  0  0  0
   11.0456   -2.9774   18.2694 N   0  0  0  0  0  0  0  0  0  0  0  0
   10.4788   -3.0457   21.8593 C   0  0  0  0  0  0  0  0  0  0  0  0
    8.8693   -5.8099   18.4657 N   0  0  0  0  0  0  0  0  0  0  0  0
    8.9892   -0.7926   25.4573 C   0  0  0  0  0  0  0  0  0  0  0  0
   10.5677   -3.4462   20.5323 C   0  0  0  0  0  0  0  0  0  0  0  0
  1  8  1  0
  1 12  4  0
  1 14  4  0
  2  3  4  0
  2 18  4  0
  3 20  4  0
  3 22  4  0
  4 11  4  0
  4 21  4  0
  5  9  4  0
  5 16  4  0
  6 15  4  0
  6 16  4  0
  7 22  4  0
  7 26  4  0
  8 10  4  0
  8 25  4  0
  9 15  4  0
  9 17  1  0
 10 21  4  0
 11 25  4  0
 12 23  4  0
 13 20  4  0
 13 26  4  0
 14 19  4  0
 17 18  4  0
 17 24  4  0
 19 23  4  0
 20 24  4  0
 23 26  1  0
M  END
$$$$

 Created by Python create_sdf_string function

 26 30  0  0  0  0  0  0  0  0999 V2000
   10.0084   -1.8019   23.4945 C   0  0  0  0  0  0  0  0  0  0  0  0
   10.0005   -4.2520   16.5631 C   0  0  0  0  0  0  0  0  0  0  0  0
   10.2759   -4.0036   17.8845 C   0  0  0  0  0  0  0  0  0  0  0  0
    8.5652    1.5478   25.3778 N   0  0  0  0  0  0  0  0  0  0  0  0
    6.8048   -7.5457   17.8752 C   0  0  0  0  0  0  0  0  0  0  0  0
    6.1721   -8.2186   15.9886 N   0  0  0  0  0  0  0  0  0  0  0  0
   11.1764   -2.6600   19.5604 C   0  0  0  0  0  0  0  0  0  0  0  0
    9.5491   -0.6380   24.1912 C   0  0  0  0  0  0  0  0  0  0  0  0
    7.5337   -6.9256   16.9519 C   0  0  0  0  0  0  0  0  0  0  0  0
    9.6782    0.5671   23.5143 C   0  0  0  0  0  0  0  0  0  0  0  0
    8.4532    0.3482   26.0821 C   0  0  0  0  0  0  0  0  0  0  0  0
   10.4239   -1.7677   22.2230 N   0  0  0  0  0  0  0  0  0  0  0  0
    9.9468   -4.5953   20.1709 C   0  0  0  0  0  0  0  0  0  0  0  0
   10.0366   -3.0590   23.9864 N   0  0  0  0  0  0  0  0  0  0  0  0
    7.1191   -7.3636   15.7739 C   0  0  0  0  0  0  0  0  0  0  0  0
    5.9612   -8.3203   17.2732 N   0  0  0  0  0  0  0  0  0  0  0  0
    8.5296   -5.9814   17.1841 C   0  0  0  0  0  0  0  0  0  0  0  0
    9.1527   -5.2118   16.2116 C   0  0  0  0  0  0  0  0  0  0  0  0
   10.3364   -3.8368   22.9255 O   0  0  0  0  0  0  0  0  0  0  0  0
    9.6947   -4.8407   18.8534 C   0  0  0  0  0  0  0  0  0  0  0  0
    9.1596    1.7042   24.1381 C   0  0  0  0  0  0  0  0  0  0  0  0
   11.0456   -2.9774   18.2694 N   0  0  0  0  0  0  0  0  0  0  0  0
   10.4788   -3.0457   21.8593 C   0  0  0  0  0  0  0  0  0  0  0  0
    8.8693   -5.8099   18.4657 N   0  0  0  0  0  0  0  0  0  0  0  0
    8.9892   -0.7926   25.4573 C   0  0  0  0  0  0  0  0  0  0  0  0
   10.5677   -3.4462   20.5323 C   0  0  0  0  0  0  0  0  0  0  0  0
  1  8  1  0
  1 12  4  0
  1 14  4  0
  2  3  4  0
  2 18  4  0
  3 20  4  0
  3 22  4  0
  4 11  4  0
  4 21  4  0
  5  9  4  0
  5 16  4  0
  6 15  4  0
  6 16  4  0
  7 22  4  0
  7 26  4  0
  8 10  4  0
  8 25  4  0
  9 15  4  0
  9 17  1  0
 10 21  4  0
 11 25  4  0
 12 23  4  0
 13 20  4  0
 13 26  4  0
 14 19  4  0
 17 18  4  0
 17 24  4  0
 19 23  4  0
 20 24  4  0
 23 26  1  0
M  END
$$$$

 Created by Python create_sdf_string function

 26 30  0  0  0  0  0  0  0  0999 V2000
   10.0084   -1.8019   23.4945 C   0  0  0  0  0  0  0  0  0  0  0  0
   10.0005   -4.2520   16.5631 C   0  0  0  0  0  0  0  0  0  0  0  0
   10.2759   -4.0036   17.8845 C   0  0  0  0  0  0  0  0  0  0  0  0
    8.5652    1.5478   25.3778 N   0  0  0  0  0  0  0  0  0  0  0  0
    6.8048   -7.5457   17.8752 C   0  0  0  0  0  0  0  0  0  0  0  0
    6.1721   -8.2186   15.9886 N   0  0  0  0  0  0  0  0  0  0  0  0
   11.1764   -2.6600   19.5604 C   0  0  0  0  0  0  0  0  0  0  0  0
    9.5491   -0.6380   24.1912 C   0  0  0  0  0  0  0  0  0  0  0  0
    7.5337   -6.9256   16.9519 C   0  0  0  0  0  0  0  0  0  0  0  0
    9.6782    0.5671   23.5143 C   0  0  0  0  0  0  0  0  0  0  0  0
    8.4532    0.3482   26.0821 C   0  0  0  0  0  0  0  0  0  0  0  0
   10.4239   -1.7677   22.2230 N   0  0  0  0  0  0  0  0  0  0  0  0
    9.9468   -4.5953   20.1709 C   0  0  0  0  0  0  0  0  0  0  0  0
   10.0366   -3.0590   23.9864 N   0  0  0  0  0  0  0  0  0  0  0  0
    7.1191   -7.3636   15.7739 C   0  0  0  0  0  0  0  0  0  0  0  0
    5.9612   -8.3203   17.2732 N   0  0  0  0  0  0  0  0  0  0  0  0
    8.5296   -5.9814   17.1841 C   0  0  0  0  0  0  0  0  0  0  0  0
    9.1527   -5.2118   16.2116 C   0  0  0  0  0  0  0  0  0  0  0  0
   10.3364   -3.8368   22.9255 O   0  0  0  0  0  0  0  0  0  0  0  0
    9.6947   -4.8407   18.8534 C   0  0  0  0  0  0  0  0  0  0  0  0
    9.1596    1.7042   24.1381 C   0  0  0  0  0  0  0  0  0  0  0  0
   11.0456   -2.9774   18.2694 N   0  0  0  0  0  0  0  0  0  0  0  0
   10.4788   -3.0457   21.8593 C   0  0  0  0  0  0  0  0  0  0  0  0
    8.8693   -5.8099   18.4657 N   0  0  0  0  0  0  0  0  0  0  0  0
    8.9892   -0.7926   25.4573 C   0  0  0  0  0  0  0  0  0  0  0  0
   10.5677   -3.4462   20.5323 C   0  0  0  0  0  0  0  0  0  0  0  0
  1  8  1  0
  1 12  4  0
  1 14  4  0
  2  3  4  0
  2 18  4  0
  3 20  4  0
  3 22  4  0
  4 11  4  0
  4 21  4  0
  5  9  4  0
  5 16  4  0
  6 15  4  0
  6 16  4  0
  7 22  4  0
  7 26  4  0
  8 10  4  0
  8 25  4  0
  9 15  4  0
  9 17  1  0
 10 21  4  0
 11 25  4  0
 12 23  4  0
 13 20  4  0
 13 26  4  0
 14 19  4  0
 17 18  4  0
 17 24  4  0
 19 23  4  0
 20 24  4  0
 23 26  1  0
M  END
$$$$

 Created by Python create_sdf_string function

 26 30  0  0  0  0  0  0  0  0999 V2000
   10.0084   -1.8019   23.4945 C   0  0  0  0  0  0  0  0  0  0  0  0
   10.0005   -4.2520   16.5631 C   0  0  0  0  0  0  0  0  0  0  0  0
   10.2759   -4.0036   17.8845 C   0  0  0  0  0  0  0  0  0  0  0  0
    8.5652    1.5478   25.3778 N   0  0  0  0  0  0  0  0  0  0  0  0
    6.8048   -7.5457   17.8752 C   0  0  0  0  0  0  0  0  0  0  0  0
    6.1721   -8.2186   15.9886 N   0  0  0  0  0  0  0  0  0  0  0  0
   11.1764   -2.6600   19.5604 C   0  0  0  0  0  0  0  0  0  0  0  0
    9.5491   -0.6380   24.1912 C   0  0  0  0  0  0  0  0  0  0  0  0
    7.5337   -6.9256   16.9519 C   0  0  0  0  0  0  0  0  0  0  0  0
    9.6782    0.5671   23.5143 C   0  0  0  0  0  0  0  0  0  0  0  0
    8.4532    0.3482   26.0821 C   0  0  0  0  0  0  0  0  0  0  0  0
   10.4239   -1.7677   22.2230 N   0  0  0  0  0  0  0  0  0  0  0  0
    9.9468   -4.5953   20.1709 C   0  0  0  0  0  0  0  0  0  0  0  0
   10.0366   -3.0590   23.9864 N   0  0  0  0  0  0  0  0  0  0  0  0
    7.1191   -7.3636   15.7739 C   0  0  0  0  0  0  0  0  0  0  0  0
    5.9612   -8.3203   17.2732 N   0  0  0  0  0  0  0  0  0  0  0  0
    8.5296   -5.9814   17.1841 C   0  0  0  0  0  0  0  0  0  0  0  0
    9.1527   -5.2118   16.2116 C   0  0  0  0  0  0  0  0  0  0  0  0
   10.3364   -3.8368   22.9255 O   0  0  0  0  0  0  0  0  0  0  0  0
    9.6947   -4.8407   18.8534 C   0  0  0  0  0  0  0  0  0  0  0  0
    9.1596    1.7042   24.1381 C   0  0  0  0  0  0  0  0  0  0  0  0
   11.0456   -2.9774   18.2694 N   0  0  0  0  0  0  0  0  0  0  0  0
   10.4788   -3.0457   21.8593 C   0  0  0  0  0  0  0  0  0  0  0  0
    8.8693   -5.8099   18.4657 N   0  0  0  0  0  0  0  0  0  0  0  0
    8.9892   -0.7926   25.4573 C   0  0  0  0  0  0  0  0  0  0  0  0
   10.5677   -3.4462   20.5323 C   0  0  0  0  0  0  0  0  0  0  0  0
  1  8  1  0
  1 12  4  0
  1 14  4  0
  2  3  4  0
  2 18  4  0
  3 20  4  0
  3 22  4  0
  4 11  4  0
  4 21  4  0
  5  9  4  0
  5 16  4  0
  6 15  4  0
  6 16  4  0
  7 22  4  0
  7 26  4  0
  8 10  4  0
  8 25  4  0
  9 15  4  0
  9 17  1  0
 10 21  4  0
 11 25  4  0
 12 23  4  0
 13 20  4  0
 13 26  4  0
 14 19  4  0
 17 18  4  0
 17 24  4  0
 19 23  4  0
 20 24  4  0
 23 26  1  0
M  END
$$$$

 Created by Python create_sdf_string function

 26 30  0  0  0  0  0  0  0  0999 V2000
   10.0084   -1.8019   23.4945 C   0  0  0  0  0  0  0  0  0  0  0  0
   10.0005   -4.2520   16.5631 C   0  0  0  0  0  0  0  0  0  0  0  0
   10.2759   -4.0036   17.8845 C   0  0  0  0  0  0  0  0  0  0  0  0
    8.5652    1.5478   25.3778 N   0  0  0  0  0  0  0  0  0  0  0  0
    6.8048   -7.5457   17.8752 C   0  0  0  0  0  0  0  0  0  0  0  0
    6.1721   -8.2186   15.9886 N   0  0  0  0  0  0  0  0  0  0  0  0
   11.1764   -2.6600   19.5604 C   0  0  0  0  0  0  0  0  0  0  0  0
    9.5491   -0.6380   24.1912 C   0  0  0  0  0  0  0  0  0  0  0  0
    7.5337   -6.9256   16.9519 C   0  0  0  0  0  0  0  0  0  0  0  0
    9.6782    0.5671   23.5143 C   0  0  0  0  0  0  0  0  0  0  0  0
    8.4532    0.3482   26.0821 C   0  0  0  0  0  0  0  0  0  0  0  0
   10.4239   -1.7677   22.2230 N   0  0  0  0  0  0  0  0  0  0  0  0
    9.9468   -4.5953   20.1709 C   0  0  0  0  0  0  0  0  0  0  0  0
   10.0366   -3.0590   23.9864 N   0  0  0  0  0  0  0  0  0  0  0  0
    7.1191   -7.3636   15.7739 C   0  0  0  0  0  0  0  0  0  0  0  0
    5.9612   -8.3203   17.2732 N   0  0  0  0  0  0  0  0  0  0  0  0
    8.5296   -5.9814   17.1841 C   0  0  0  0  0  0  0  0  0  0  0  0
    9.1527   -5.2118   16.2116 C   0  0  0  0  0  0  0  0  0  0  0  0
   10.3364   -3.8368   22.9255 O   0  0  0  0  0  0  0  0  0  0  0  0
    9.6947   -4.8407   18.8534 C   0  0  0  0  0  0  0  0  0  0  0  0
    9.1596    1.7042   24.1381 C   0  0  0  0  0  0  0  0  0  0  0  0
   11.0456   -2.9774   18.2694 N   0  0  0  0  0  0  0  0  0  0  0  0
   10.4788   -3.0457   21.8593 C   0  0  0  0  0  0  0  0  0  0  0  0
    8.8693   -5.8099   18.4657 N   0  0  0  0  0  0  0  0  0  0  0  0
    8.9892   -0.7926   25.4573 C   0  0  0  0  0  0  0  0  0  0  0  0
   10.5677   -3.4462   20.5323 C   0  0  0  0  0  0  0  0  0  0  0  0
  1  8  1  0
  1 12  4  0
  1 14  4  0
  2  3  4  0
  2 18  4  0
  3 20  4  0
  3 22  4  0
  4 11  4  0
  4 21  4  0
  5  9  4  0
  5 16  4  0
  6 15  4  0
  6 16  4  0
  7 22  4  0
  7 26  4  0
  8 10  4  0
  8 25  4  0
  9 15  4  0
  9 17  1  0
 10 21  4  0
 11 25  4  0
 12 23  4  0
 13 20  4  0
 13 26  4  0
 14 19  4  0
 17 18  4  0
 17 24  4  0
 19 23  4  0
 20 24  4  0
 23 26  1  0
M  END
$$$$

 Created by Python create_sdf_string function

 26 30  0  0  0  0  0  0  0  0999 V2000
   10.0084   -1.8019   23.4945 C   0  0  0  0  0  0  0  0  0  0  0  0
   10.0005   -4.2520   16.5631 C   0  0  0  0  0  0  0  0  0  0  0  0
   10.2759   -4.0036   17.8845 C   0  0  0  0  0  0  0  0  0  0  0  0
    8.5652    1.5478   25.3778 N   0  0  0  0  0  0  0  0  0  0  0  0
    6.8048   -7.5457   17.8752 C   0  0  0  0  0  0  0  0  0  0  0  0
    6.1721   -8.2186   15.9886 N   0  0  0  0  0  0  0  0  0  0  0  0
   11.1764   -2.6600   19.5604 C   0  0  0  0  0  0  0  0  0  0  0  0
    9.5491   -0.6380   24.1912 C   0  0  0  0  0  0  0  0  0  0  0  0
    7.5337   -6.9256   16.9519 C   0  0  0  0  0  0  0  0  0  0  0  0
    9.6782    0.5671   23.5143 C   0  0  0  0  0  0  0  0  0  0  0  0
    8.4532    0.3482   26.0821 C   0  0  0  0  0  0  0  0  0  0  0  0
   10.4239   -1.7677   22.2230 N   0  0  0  0  0  0  0  0  0  0  0  0
    9.9468   -4.5953   20.1709 C   0  0  0  0  0  0  0  0  0  0  0  0
   10.0366   -3.0590   23.9864 N   0  0  0  0  0  0  0  0  0  0  0  0
    7.1191   -7.3636   15.7739 C   0  0  0  0  0  0  0  0  0  0  0  0
    5.9612   -8.3203   17.2732 N   0  0  0  0  0  0  0  0  0  0  0  0
    8.5296   -5.9814   17.1841 C   0  0  0  0  0  0  0  0  0  0  0  0
    9.1527   -5.2118   16.2116 C   0  0  0  0  0  0  0  0  0  0  0  0
   10.3364   -3.8368   22.9255 O   0  0  0  0  0  0  0  0  0  0  0  0
    9.6947   -4.8407   18.8534 C   0  0  0  0  0  0  0  0  0  0  0  0
    9.1596    1.7042   24.1381 C   0  0  0  0  0  0  0  0  0  0  0  0
   11.0456   -2.9774   18.2694 N   0  0  0  0  0  0  0  0  0  0  0  0
   10.4788   -3.0457   21.8593 C   0  0  0  0  0  0  0  0  0  0  0  0
    8.8693   -5.8099   18.4657 N   0  0  0  0  0  0  0  0  0  0  0  0
    8.9892   -0.7926   25.4573 C   0  0  0  0  0  0  0  0  0  0  0  0
   10.5677   -3.4462   20.5323 C   0  0  0  0  0  0  0  0  0  0  0  0
  1  8  1  0
  1 12  4  0
  1 14  4  0
  2  3  4  0
  2 18  4  0
  3 20  4  0
  3 22  4  0
  4 11  4  0
  4 21  4  0
  5  9  4  0
  5 16  4  0
  6 15  4  0
  6 16  4  0
  7 22  4  0
  7 26  4  0
  8 10  4  0
  8 25  4  0
  9 15  4  0
  9 17  1  0
 10 21  4  0
 11 25  4  0
 12 23  4  0
 13 20  4  0
 13 26  4  0
 14 19  4  0
 17 18  4  0
 17 24  4  0
 19 23  4  0
 20 24  4  0
 23 26  1  0
M  END
$$$$

 Created by Python create_sdf_string function

 26 30  0  0  0  0  0  0  0  0999 V2000
   10.0084   -1.8019   23.4945 C   0  0  0  0  0  0  0  0  0  0  0  0
   10.0005   -4.2520   16.5631 C   0  0  0  0  0  0  0  0  0  0  0  0
   10.2759   -4.0036   17.8845 C   0  0  0  0  0  0  0  0  0  0  0  0
    8.5652    1.5478   25.3778 N   0  0  0  0  0  0  0  0  0  0  0  0
    6.8048   -7.5457   17.8752 C   0  0  0  0  0  0  0  0  0  0  0  0
    6.1721   -8.2186   15.9886 N   0  0  0  0  0  0  0  0  0  0  0  0
   11.1764   -2.6600   19.5604 C   0  0  0  0  0  0  0  0  0  0  0  0
    9.5491   -0.6380   24.1912 C   0  0  0  0  0  0  0  0  0  0  0  0
    7.5337   -6.9256   16.9519 C   0  0  0  0  0  0  0  0  0  0  0  0
    9.6782    0.5671   23.5143 C   0  0  0  0  0  0  0  0  0  0  0  0
    8.4532    0.3482   26.0821 C   0  0  0  0  0  0  0  0  0  0  0  0
   10.4239   -1.7677   22.2230 N   0  0  0  0  0  0  0  0  0  0  0  0
    9.9468   -4.5953   20.1709 C   0  0  0  0  0  0  0  0  0  0  0  0
   10.0366   -3.0590   23.9864 N   0  0  0  0  0  0  0  0  0  0  0  0
    7.1191   -7.3636   15.7739 C   0  0  0  0  0  0  0  0  0  0  0  0
    5.9612   -8.3203   17.2732 N   0  0  0  0  0  0  0  0  0  0  0  0
    8.5296   -5.9814   17.1841 C   0  0  0  0  0  0  0  0  0  0  0  0
    9.1527   -5.2118   16.2116 C   0  0  0  0  0  0  0  0  0  0  0  0
   10.3364   -3.8368   22.9255 O   0  0  0  0  0  0  0  0  0  0  0  0
    9.6947   -4.8407   18.8534 C   0  0  0  0  0  0  0  0  0  0  0  0
    9.1596    1.7042   24.1381 C   0  0  0  0  0  0  0  0  0  0  0  0
   11.0456   -2.9774   18.2694 N   0  0  0  0  0  0  0  0  0  0  0  0
   10.4788   -3.0457   21.8593 C   0  0  0  0  0  0  0  0  0  0  0  0
    8.8693   -5.8099   18.4657 N   0  0  0  0  0  0  0  0  0  0  0  0
    8.9892   -0.7926   25.4573 C   0  0  0  0  0  0  0  0  0  0  0  0
   10.5677   -3.4462   20.5323 C   0  0  0  0  0  0  0  0  0  0  0  0
  1  8  1  0
  1 12  4  0
  1 14  4  0
  2  3  4  0
  2 18  4  0
  3 20  4  0
  3 22  4  0
  4 11  4  0
  4 21  4  0
  5  9  4  0
  5 16  4  0
  6 15  4  0
  6 16  4  0
  7 22  4  0
  7 26  4  0
  8 10  4  0
  8 25  4  0
  9 15  4  0
  9 17  1  0
 10 21  4  0
 11 25  4  0
 12 23  4  0
 13 20  4  0
 13 26  4  0
 14 19  4  0
 17 18  4  0
 17 24  4  0
 19 23  4  0
 20 24  4  0
 23 26  1  0
M  END
$$$$

 Created by Python create_sdf_string function

 26 30  0  0  0  0  0  0  0  0999 V2000
   10.0084   -1.8019   23.4945 C   0  0  0  0  0  0  0  0  0  0  0  0
   10.0005   -4.2520   16.5631 C   0  0  0  0  0  0  0  0  0  0  0  0
   10.2759   -4.0036   17.8845 C   0  0  0  0  0  0  0  0  0  0  0  0
    8.5652    1.5478   25.3778 N   0  0  0  0  0  0  0  0  0  0  0  0
    6.8048   -7.5457   17.8752 C   0  0  0  0  0  0  0  0  0  0  0  0
    6.1721   -8.2186   15.9886 N   0  0  0  0  0  0  0  0  0  0  0  0
   11.1764   -2.6600   19.5604 C   0  0  0  0  0  0  0  0  0  0  0  0
    9.5491   -0.6380   24.1912 C   0  0  0  0  0  0  0  0  0  0  0  0
    7.5337   -6.9256   16.9519 C   0  0  0  0  0  0  0  0  0  0  0  0
    9.6782    0.5671   23.5143 C   0  0  0  0  0  0  0  0  0  0  0  0
    8.4532    0.3482   26.0821 C   0  0  0  0  0  0  0  0  0  0  0  0
   10.4239   -1.7677   22.2230 N   0  0  0  0  0  0  0  0  0  0  0  0
    9.9468   -4.5953   20.1709 C   0  0  0  0  0  0  0  0  0  0  0  0
   10.0366   -3.0590   23.9864 N   0  0  0  0  0  0  0  0  0  0  0  0
    7.1191   -7.3636   15.7739 C   0  0  0  0  0  0  0  0  0  0  0  0
    5.9612   -8.3203   17.2732 N   0  0  0  0  0  0  0  0  0  0  0  0
    8.5296   -5.9814   17.1841 C   0  0  0  0  0  0  0  0  0  0  0  0
    9.1527   -5.2118   16.2116 C   0  0  0  0  0  0  0  0  0  0  0  0
   10.3364   -3.8368   22.9255 O   0  0  0  0  0  0  0  0  0  0  0  0
    9.6947   -4.8407   18.8534 C   0  0  0  0  0  0  0  0  0  0  0  0
    9.1596    1.7042   24.1381 C   0  0  0  0  0  0  0  0  0  0  0  0
   11.0456   -2.9774   18.2694 N   0  0  0  0  0  0  0  0  0  0  0  0
   10.4788   -3.0457   21.8593 C   0  0  0  0  0  0  0  0  0  0  0  0
    8.8693   -5.8099   18.4657 N   0  0  0  0  0  0  0  0  0  0  0  0
    8.9892   -0.7926   25.4573 C   0  0  0  0  0  0  0  0  0  0  0  0
   10.5677   -3.4462   20.5323 C   0  0  0  0  0  0  0  0  0  0  0  0
  1  8  1  0
  1 12  4  0
  1 14  4  0
  2  3  4  0
  2 18  4  0
  3 20  4  0
  3 22  4  0
  4 11  4  0
  4 21  4  0
  5  9  4  0
  5 16  4  0
  6 15  4  0
  6 16  4  0
  7 22  4  0
  7 26  4  0
  8 10  4  0
  8 25  4  0
  9 15  4  0
  9 17  1  0
 10 21  4  0
 11 25  4  0
 12 23  4  0
 13 20  4  0
 13 26  4  0
 14 19  4  0
 17 18  4  0
 17 24  4  0
 19 23  4  0
 20 24  4  0
 23 26  1  0
M  END
$$$$

 Created by Python create_sdf_string function

 26 30  0  0  0  0  0  0  0  0999 V2000
   10.0084   -1.8019   23.4945 C   0  0  0  0  0  0  0  0  0  0  0  0
   10.0005   -4.2520   16.5631 C   0  0  0  0  0  0  0  0  0  0  0  0
   10.2759   -4.0036   17.8845 C   0  0  0  0  0  0  0  0  0  0  0  0
    8.5652    1.5478   25.3778 N   0  0  0  0  0  0  0  0  0  0  0  0
    6.8048   -7.5457   17.8752 C   0  0  0  0  0  0  0  0  0  0  0  0
    6.1721   -8.2186   15.9886 N   0  0  0  0  0  0  0  0  0  0  0  0
   11.1764   -2.6600   19.5604 C   0  0  0  0  0  0  0  0  0  0  0  0
    9.5491   -0.6380   24.1912 C   0  0  0  0  0  0  0  0  0  0  0  0
    7.5337   -6.9256   16.9519 C   0  0  0  0  0  0  0  0  0  0  0  0
    9.6782    0.5671   23.5143 C   0  0  0  0  0  0  0  0  0  0  0  0
    8.4532    0.3482   26.0821 C   0  0  0  0  0  0  0  0  0  0  0  0
   10.4239   -1.7677   22.2230 N   0  0  0  0  0  0  0  0  0  0  0  0
    9.9468   -4.5953   20.1709 C   0  0  0  0  0  0  0  0  0  0  0  0
   10.0366   -3.0590   23.9864 N   0  0  0  0  0  0  0  0  0  0  0  0
    7.1191   -7.3636   15.7739 C   0  0  0  0  0  0  0  0  0  0  0  0
    5.9612   -8.3203   17.2732 N   0  0  0  0  0  0  0  0  0  0  0  0
    8.5296   -5.9814   17.1841 C   0  0  0  0  0  0  0  0  0  0  0  0
    9.1527   -5.2118   16.2116 C   0  0  0  0  0  0  0  0  0  0  0  0
   10.3364   -3.8368   22.9255 O   0  0  0  0  0  0  0  0  0  0  0  0
    9.6947   -4.8407   18.8534 C   0  0  0  0  0  0  0  0  0  0  0  0
    9.1596    1.7042   24.1381 C   0  0  0  0  0  0  0  0  0  0  0  0
   11.0456   -2.9774   18.2694 N   0  0  0  0  0  0  0  0  0  0  0  0
   10.4788   -3.0457   21.8593 C   0  0  0  0  0  0  0  0  0  0  0  0
    8.8693   -5.8099   18.4657 N   0  0  0  0  0  0  0  0  0  0  0  0
    8.9892   -0.7926   25.4573 C   0  0  0  0  0  0  0  0  0  0  0  0
   10.5677   -3.4462   20.5323 C   0  0  0  0  0  0  0  0  0  0  0  0
  1  8  1  0
  1 12  4  0
  1 14  4  0
  2  3  4  0
  2 18  4  0
  3 20  4  0
  3 22  4  0
  4 11  4  0
  4 21  4  0
  5  9  4  0
  5 16  4  0
  6 15  4  0
  6 16  4  0
  7 22  4  0
  7 26  4  0
  8 10  4  0
  8 25  4  0
  9 15  4  0
  9 17  1  0
 10 21  4  0
 11 25  4  0
 12 23  4  0
 13 20  4  0
 13 26  4  0
 14 19  4  0
 17 18  4  0
 17 24  4  0
 19 23  4  0
 20 24  4  0
 23 26  1  0
M  END
$$$$

 Created by Python create_sdf_string function

 26 30  0  0  0  0  0  0  0  0999 V2000
   10.0084   -1.8019   23.4945 C   0  0  0  0  0  0  0  0  0  0  0  0
   10.0005   -4.2520   16.5631 C   0  0  0  0  0  0  0  0  0  0  0  0
   10.2759   -4.0036   17.8845 C   0  0  0  0  0  0  0  0  0  0  0  0
    8.5652    1.5478   25.3778 N   0  0  0  0  0  0  0  0  0  0  0  0
    6.8048   -7.5457   17.8752 C   0  0  0  0  0  0  0  0  0  0  0  0
    6.1721   -8.2186   15.9886 N   0  0  0  0  0  0  0  0  0  0  0  0
   11.1764   -2.6600   19.5604 C   0  0  0  0  0  0  0  0  0  0  0  0
    9.5491   -0.6380   24.1912 C   0  0  0  0  0  0  0  0  0  0  0  0
    7.5337   -6.9256   16.9519 C   0  0  0  0  0  0  0  0  0  0  0  0
    9.6782    0.5671   23.5143 C   0  0  0  0  0  0  0  0  0  0  0  0
    8.4532    0.3482   26.0821 C   0  0  0  0  0  0  0  0  0  0  0  0
   10.4239   -1.7677   22.2230 N   0  0  0  0  0  0  0  0  0  0  0  0
    9.9468   -4.5953   20.1709 C   0  0  0  0  0  0  0  0  0  0  0  0
   10.0366   -3.0590   23.9864 N   0  0  0  0  0  0  0  0  0  0  0  0
    7.1191   -7.3636   15.7739 C   0  0  0  0  0  0  0  0  0  0  0  0
    5.9612   -8.3203   17.2732 N   0  0  0  0  0  0  0  0  0  0  0  0
    8.5296   -5.9814   17.1841 C   0  0  0  0  0  0  0  0  0  0  0  0
    9.1527   -5.2118   16.2116 C   0  0  0  0  0  0  0  0  0  0  0  0
   10.3364   -3.8368   22.9255 O   0  0  0  0  0  0  0  0  0  0  0  0
    9.6947   -4.8407   18.8534 C   0  0  0  0  0  0  0  0  0  0  0  0
    9.1596    1.7042   24.1381 C   0  0  0  0  0  0  0  0  0  0  0  0
   11.0456   -2.9774   18.2694 N   0  0  0  0  0  0  0  0  0  0  0  0
   10.4788   -3.0457   21.8593 C   0  0  0  0  0  0  0  0  0  0  0  0
    8.8693   -5.8099   18.4657 N   0  0  0  0  0  0  0  0  0  0  0  0
    8.9892   -0.7926   25.4573 C   0  0  0  0  0  0  0  0  0  0  0  0
   10.5677   -3.4462   20.5323 C   0  0  0  0  0  0  0  0  0  0  0  0
  1  8  1  0
  1 12  4  0
  1 14  4  0
  2  3  4  0
  2 18  4  0
  3 20  4  0
  3 22  4  0
  4 11  4  0
  4 21  4  0
  5  9  4  0
  5 16  4  0
  6 15  4  0
  6 16  4  0
  7 22  4  0
  7 26  4  0
  8 10  4  0
  8 25  4  0
  9 15  4  0
  9 17  1  0
 10 21  4  0
 11 25  4  0
 12 23  4  0
 13 20  4  0
 13 26  4  0
 14 19  4  0
 17 18  4  0
 17 24  4  0
 19 23  4  0
 20 24  4  0
 23 26  1  0
M  END
$$$$

 Created by Python create_sdf_string function

 26 30  0  0  0  0  0  0  0  0999 V2000
   10.0084   -1.8019   23.4945 C   0  0  0  0  0  0  0  0  0  0  0  0
   10.0005   -4.2520   16.5631 C   0  0  0  0  0  0  0  0  0  0  0  0
   10.2759   -4.0036   17.8845 C   0  0  0  0  0  0  0  0  0  0  0  0
    8.5652    1.5478   25.3778 N   0  0  0  0  0  0  0  0  0  0  0  0
    6.8048   -7.5457   17.8752 C   0  0  0  0  0  0  0  0  0  0  0  0
    6.1721   -8.2186   15.9886 N   0  0  0  0  0  0  0  0  0  0  0  0
   11.1764   -2.6600   19.5604 C   0  0  0  0  0  0  0  0  0  0  0  0
    9.5491   -0.6380   24.1912 C   0  0  0  0  0  0  0  0  0  0  0  0
    7.5337   -6.9256   16.9519 C   0  0  0  0  0  0  0  0  0  0  0  0
    9.6782    0.5671   23.5143 C   0  0  0  0  0  0  0  0  0  0  0  0
    8.4532    0.3482   26.0821 C   0  0  0  0  0  0  0  0  0  0  0  0
   10.4239   -1.7677   22.2230 N   0  0  0  0  0  0  0  0  0  0  0  0
    9.9468   -4.5953   20.1709 C   0  0  0  0  0  0  0  0  0  0  0  0
   10.0366   -3.0590   23.9864 N   0  0  0  0  0  0  0  0  0  0  0  0
    7.1191   -7.3636   15.7739 C   0  0  0  0  0  0  0  0  0  0  0  0
    5.9612   -8.3203   17.2732 N   0  0  0  0  0  0  0  0  0  0  0  0
    8.5296   -5.9814   17.1841 C   0  0  0  0  0  0  0  0  0  0  0  0
    9.1527   -5.2118   16.2116 C   0  0  0  0  0  0  0  0  0  0  0  0
   10.3364   -3.8368   22.9255 O   0  0  0  0  0  0  0  0  0  0  0  0
    9.6947   -4.8407   18.8534 C   0  0  0  0  0  0  0  0  0  0  0  0
    9.1596    1.7042   24.1381 C   0  0  0  0  0  0  0  0  0  0  0  0
   11.0456   -2.9774   18.2694 N   0  0  0  0  0  0  0  0  0  0  0  0
   10.4788   -3.0457   21.8593 C   0  0  0  0  0  0  0  0  0  0  0  0
    8.8693   -5.8099   18.4657 N   0  0  0  0  0  0  0  0  0  0  0  0
    8.9892   -0.7926   25.4573 C   0  0  0  0  0  0  0  0  0  0  0  0
   10.5677   -3.4462   20.5323 C   0  0  0  0  0  0  0  0  0  0  0  0
  1  8  1  0
  1 12  4  0
  1 14  4  0
  2  3  4  0
  2 18  4  0
  3 20  4  0
  3 22  4  0
  4 11  4  0
  4 21  4  0
  5  9  4  0
  5 16  4  0
  6 15  4  0
  6 16  4  0
  7 22  4  0
  7 26  4  0
  8 10  4  0
  8 25  4  0
  9 15  4  0
  9 17  1  0
 10 21  4  0
 11 25  4  0
 12 23  4  0
 13 20  4  0
 13 26  4  0
 14 19  4  0
 17 18  4  0
 17 24  4  0
 19 23  4  0
 20 24  4  0
 23 26  1  0
M  END
$$$$

 Created by Python create_sdf_string function

 26 30  0  0  0  0  0  0  0  0999 V2000
   10.0084   -1.8019   23.4945 C   0  0  0  0  0  0  0  0  0  0  0  0
   10.0005   -4.2520   16.5631 C   0  0  0  0  0  0  0  0  0  0  0  0
   10.2759   -4.0036   17.8845 C   0  0  0  0  0  0  0  0  0  0  0  0
    8.5652    1.5478   25.3778 N   0  0  0  0  0  0  0  0  0  0  0  0
    6.8048   -7.5457   17.8752 C   0  0  0  0  0  0  0  0  0  0  0  0
    6.1721   -8.2186   15.9886 N   0  0  0  0  0  0  0  0  0  0  0  0
   11.1764   -2.6600   19.5604 C   0  0  0  0  0  0  0  0  0  0  0  0
    9.5491   -0.6380   24.1912 C   0  0  0  0  0  0  0  0  0  0  0  0
    7.5337   -6.9256   16.9519 C   0  0  0  0  0  0  0  0  0  0  0  0
    9.6782    0.5671   23.5143 C   0  0  0  0  0  0  0  0  0  0  0  0
    8.4532    0.3482   26.0821 C   0  0  0  0  0  0  0  0  0  0  0  0
   10.4239   -1.7677   22.2230 N   0  0  0  0  0  0  0  0  0  0  0  0
    9.9468   -4.5953   20.1709 C   0  0  0  0  0  0  0  0  0  0  0  0
   10.0366   -3.0590   23.9864 N   0  0  0  0  0  0  0  0  0  0  0  0
    7.1191   -7.3636   15.7739 C   0  0  0  0  0  0  0  0  0  0  0  0
    5.9612   -8.3203   17.2732 N   0  0  0  0  0  0  0  0  0  0  0  0
    8.5296   -5.9814   17.1841 C   0  0  0  0  0  0  0  0  0  0  0  0
    9.1527   -5.2118   16.2116 C   0  0  0  0  0  0  0  0  0  0  0  0
   10.3364   -3.8368   22.9255 O   0  0  0  0  0  0  0  0  0  0  0  0
    9.6947   -4.8407   18.8534 C   0  0  0  0  0  0  0  0  0  0  0  0
    9.1596    1.7042   24.1381 C   0  0  0  0  0  0  0  0  0  0  0  0
   11.0456   -2.9774   18.2694 N   0  0  0  0  0  0  0  0  0  0  0  0
   10.4788   -3.0457   21.8593 C   0  0  0  0  0  0  0  0  0  0  0  0
    8.8693   -5.8099   18.4657 N   0  0  0  0  0  0  0  0  0  0  0  0
    8.9892   -0.7926   25.4573 C   0  0  0  0  0  0  0  0  0  0  0  0
   10.5677   -3.4462   20.5323 C   0  0  0  0  0  0  0  0  0  0  0  0
  1  8  1  0
  1 12  4  0
  1 14  4  0
  2  3  4  0
  2 18  4  0
  3 20  4  0
  3 22  4  0
  4 11  4  0
  4 21  4  0
  5  9  4  0
  5 16  4  0
  6 15  4  0
  6 16  4  0
  7 22  4  0
  7 26  4  0
  8 10  4  0
  8 25  4  0
  9 15  4  0
  9 17  1  0
 10 21  4  0
 11 25  4  0
 12 23  4  0
 13 20  4  0
 13 26  4  0
 14 19  4  0
 17 18  4  0
 17 24  4  0
 19 23  4  0
 20 24  4  0
 23 26  1  0
M  END
$$$$

 Created by Python create_sdf_string function

 26 30  0  0  0  0  0  0  0  0999 V2000
   10.0084   -1.8019   23.4945 C   0  0  0  0  0  0  0  0  0  0  0  0
   10.0005   -4.2520   16.5631 C   0  0  0  0  0  0  0  0  0  0  0  0
   10.2759   -4.0036   17.8845 C   0  0  0  0  0  0  0  0  0  0  0  0
    8.5652    1.5478   25.3778 N   0  0  0  0  0  0  0  0  0  0  0  0
    6.8048   -7.5457   17.8752 C   0  0  0  0  0  0  0  0  0  0  0  0
    6.1721   -8.2186   15.9886 N   0  0  0  0  0  0  0  0  0  0  0  0
   11.1764   -2.6600   19.5604 C   0  0  0  0  0  0  0  0  0  0  0  0
    9.5491   -0.6380   24.1912 C   0  0  0  0  0  0  0  0  0  0  0  0
    7.5337   -6.9256   16.9519 C   0  0  0  0  0  0  0  0  0  0  0  0
    9.6782    0.5671   23.5143 C   0  0  0  0  0  0  0  0  0  0  0  0
    8.4532    0.3482   26.0821 C   0  0  0  0  0  0  0  0  0  0  0  0
   10.4239   -1.7677   22.2230 N   0  0  0  0  0  0  0  0  0  0  0  0
    9.9468   -4.5953   20.1709 C   0  0  0  0  0  0  0  0  0  0  0  0
   10.0366   -3.0590   23.9864 N   0  0  0  0  0  0  0  0  0  0  0  0
    7.1191   -7.3636   15.7739 C   0  0  0  0  0  0  0  0  0  0  0  0
    5.9612   -8.3203   17.2732 N   0  0  0  0  0  0  0  0  0  0  0  0
    8.5296   -5.9814   17.1841 C   0  0  0  0  0  0  0  0  0  0  0  0
    9.1527   -5.2118   16.2116 C   0  0  0  0  0  0  0  0  0  0  0  0
   10.3364   -3.8368   22.9255 O   0  0  0  0  0  0  0  0  0  0  0  0
    9.6947   -4.8407   18.8534 C   0  0  0  0  0  0  0  0  0  0  0  0
    9.1596    1.7042   24.1381 C   0  0  0  0  0  0  0  0  0  0  0  0
   11.0456   -2.9774   18.2694 N   0  0  0  0  0  0  0  0  0  0  0  0
   10.4788   -3.0457   21.8593 C   0  0  0  0  0  0  0  0  0  0  0  0
    8.8693   -5.8099   18.4657 N   0  0  0  0  0  0  0  0  0  0  0  0
    8.9892   -0.7926   25.4573 C   0  0  0  0  0  0  0  0  0  0  0  0
   10.5677   -3.4462   20.5323 C   0  0  0  0  0  0  0  0  0  0  0  0
  1  8  1  0
  1 12  4  0
  1 14  4  0
  2  3  4  0
  2 18  4  0
  3 20  4  0
  3 22  4  0
  4 11  4  0
  4 21  4  0
  5  9  4  0
  5 16  4  0
  6 15  4  0
  6 16  4  0
  7 22  4  0
  7 26  4  0
  8 10  4  0
  8 25  4  0
  9 15  4  0
  9 17  1  0
 10 21  4  0
 11 25  4  0
 12 23  4  0
 13 20  4  0
 13 26  4  0
 14 19  4  0
 17 18  4  0
 17 24  4  0
 19 23  4  0
 20 24  4  0
 23 26  1  0
M  END
$$$$

 Created by Python create_sdf_string function

 26 30  0  0  0  0  0  0  0  0999 V2000
   10.0084   -1.8019   23.4945 C   0  0  0  0  0  0  0  0  0  0  0  0
   10.0005   -4.2520   16.5631 C   0  0  0  0  0  0  0  0  0  0  0  0
   10.2759   -4.0036   17.8845 C   0  0  0  0  0  0  0  0  0  0  0  0
    8.5652    1.5478   25.3778 N   0  0  0  0  0  0  0  0  0  0  0  0
    6.8048   -7.5457   17.8752 C   0  0  0  0  0  0  0  0  0  0  0  0
    6.1721   -8.2186   15.9886 N   0  0  0  0  0  0  0  0  0  0  0  0
   11.1764   -2.6600   19.5604 C   0  0  0  0  0  0  0  0  0  0  0  0
    9.5491   -0.6380   24.1912 C   0  0  0  0  0  0  0  0  0  0  0  0
    7.5337   -6.9256   16.9519 C   0  0  0  0  0  0  0  0  0  0  0  0
    9.6782    0.5671   23.5143 C   0  0  0  0  0  0  0  0  0  0  0  0
    8.4532    0.3482   26.0821 C   0  0  0  0  0  0  0  0  0  0  0  0
   10.4239   -1.7677   22.2230 N   0  0  0  0  0  0  0  0  0  0  0  0
    9.9468   -4.5953   20.1709 C   0  0  0  0  0  0  0  0  0  0  0  0
   10.0366   -3.0590   23.9864 N   0  0  0  0  0  0  0  0  0  0  0  0
    7.1191   -7.3636   15.7739 C   0  0  0  0  0  0  0  0  0  0  0  0
    5.9612   -8.3203   17.2732 N   0  0  0  0  0  0  0  0  0  0  0  0
    8.5296   -5.9814   17.1841 C   0  0  0  0  0  0  0  0  0  0  0  0
    9.1527   -5.2118   16.2116 C   0  0  0  0  0  0  0  0  0  0  0  0
   10.3364   -3.8368   22.9255 O   0  0  0  0  0  0  0  0  0  0  0  0
    9.6947   -4.8407   18.8534 C   0  0  0  0  0  0  0  0  0  0  0  0
    9.1596    1.7042   24.1381 C   0  0  0  0  0  0  0  0  0  0  0  0
   11.0456   -2.9774   18.2694 N   0  0  0  0  0  0  0  0  0  0  0  0
   10.4788   -3.0457   21.8593 C   0  0  0  0  0  0  0  0  0  0  0  0
    8.8693   -5.8099   18.4657 N   0  0  0  0  0  0  0  0  0  0  0  0
    8.9892   -0.7926   25.4573 C   0  0  0  0  0  0  0  0  0  0  0  0
   10.5677   -3.4462   20.5323 C   0  0  0  0  0  0  0  0  0  0  0  0
  1  8  1  0
  1 12  4  0
  1 14  4  0
  2  3  4  0
  2 18  4  0
  3 20  4  0
  3 22  4  0
  4 11  4  0
  4 21  4  0
  5  9  4  0
  5 16  4  0
  6 15  4  0
  6 16  4  0
  7 22  4  0
  7 26  4  0
  8 10  4  0
  8 25  4  0
  9 15  4  0
  9 17  1  0
 10 21  4  0
 11 25  4  0
 12 23  4  0
 13 20  4  0
 13 26  4  0
 14 19  4  0
 17 18  4  0
 17 24  4  0
 19 23  4  0
 20 24  4  0
 23 26  1  0
M  END
$$$$

 Created by Python create_sdf_string function

 26 30  0  0  0  0  0  0  0  0999 V2000
   10.0084   -1.8019   23.4945 C   0  0  0  0  0  0  0  0  0  0  0  0
   10.0005   -4.2520   16.5631 C   0  0  0  0  0  0  0  0  0  0  0  0
   10.2759   -4.0036   17.8845 C   0  0  0  0  0  0  0  0  0  0  0  0
    8.5652    1.5478   25.3778 N   0  0  0  0  0  0  0  0  0  0  0  0
    6.8048   -7.5457   17.8752 C   0  0  0  0  0  0  0  0  0  0  0  0
    6.1721   -8.2186   15.9886 N   0  0  0  0  0  0  0  0  0  0  0  0
   11.1764   -2.6600   19.5604 C   0  0  0  0  0  0  0  0  0  0  0  0
    9.5491   -0.6380   24.1912 C   0  0  0  0  0  0  0  0  0  0  0  0
    7.5337   -6.9256   16.9519 C   0  0  0  0  0  0  0  0  0  0  0  0
    9.6782    0.5671   23.5143 C   0  0  0  0  0  0  0  0  0  0  0  0
    8.4532    0.3482   26.0821 C   0  0  0  0  0  0  0  0  0  0  0  0
   10.4239   -1.7677   22.2230 N   0  0  0  0  0  0  0  0  0  0  0  0
    9.9468   -4.5953   20.1709 C   0  0  0  0  0  0  0  0  0  0  0  0
   10.0366   -3.0590   23.9864 N   0  0  0  0  0  0  0  0  0  0  0  0
    7.1191   -7.3636   15.7739 C   0  0  0  0  0  0  0  0  0  0  0  0
    5.9612   -8.3203   17.2732 N   0  0  0  0  0  0  0  0  0  0  0  0
    8.5296   -5.9814   17.1841 C   0  0  0  0  0  0  0  0  0  0  0  0
    9.1527   -5.2118   16.2116 C   0  0  0  0  0  0  0  0  0  0  0  0
   10.3364   -3.8368   22.9255 O   0  0  0  0  0  0  0  0  0  0  0  0
    9.6947   -4.8407   18.8534 C   0  0  0  0  0  0  0  0  0  0  0  0
    9.1596    1.7042   24.1381 C   0  0  0  0  0  0  0  0  0  0  0  0
   11.0456   -2.9774   18.2694 N   0  0  0  0  0  0  0  0  0  0  0  0
   10.4788   -3.0457   21.8593 C   0  0  0  0  0  0  0  0  0  0  0  0
    8.8693   -5.8099   18.4657 N   0  0  0  0  0  0  0  0  0  0  0  0
    8.9892   -0.7926   25.4573 C   0  0  0  0  0  0  0  0  0  0  0  0
   10.5677   -3.4462   20.5323 C   0  0  0  0  0  0  0  0  0  0  0  0
  1  8  1  0
  1 12  4  0
  1 14  4  0
  2  3  4  0
  2 18  4  0
  3 20  4  0
  3 22  4  0
  4 11  4  0
  4 21  4  0
  5  9  4  0
  5 16  4  0
  6 15  4  0
  6 16  4  0
  7 22  4  0
  7 26  4  0
  8 10  4  0
  8 25  4  0
  9 15  4  0
  9 17  1  0
 10 21  4  0
 11 25  4  0
 12 23  4  0
 13 20  4  0
 13 26  4  0
 14 19  4  0
 17 18  4  0
 17 24  4  0
 19 23  4  0
 20 24  4  0
 23 26  1  0
M  END
$$$$

 Created by Python create_sdf_string function

 26 30  0  0  0  0  0  0  0  0999 V2000
   10.0084   -1.8019   23.4945 C   0  0  0  0  0  0  0  0  0  0  0  0
   10.0005   -4.2520   16.5631 C   0  0  0  0  0  0  0  0  0  0  0  0
   10.2759   -4.0036   17.8845 C   0  0  0  0  0  0  0  0  0  0  0  0
    8.5652    1.5478   25.3778 N   0  0  0  0  0  0  0  0  0  0  0  0
    6.8048   -7.5457   17.8752 C   0  0  0  0  0  0  0  0  0  0  0  0
    6.1721   -8.2186   15.9886 N   0  0  0  0  0  0  0  0  0  0  0  0
   11.1764   -2.6600   19.5604 C   0  0  0  0  0  0  0  0  0  0  0  0
    9.5491   -0.6380   24.1912 C   0  0  0  0  0  0  0  0  0  0  0  0
    7.5337   -6.9256   16.9519 C   0  0  0  0  0  0  0  0  0  0  0  0
    9.6782    0.5671   23.5143 C   0  0  0  0  0  0  0  0  0  0  0  0
    8.4532    0.3482   26.0821 C   0  0  0  0  0  0  0  0  0  0  0  0
   10.4239   -1.7677   22.2230 N   0  0  0  0  0  0  0  0  0  0  0  0
    9.9468   -4.5953   20.1709 C   0  0  0  0  0  0  0  0  0  0  0  0
   10.0366   -3.0590   23.9864 N   0  0  0  0  0  0  0  0  0  0  0  0
    7.1191   -7.3636   15.7739 C   0  0  0  0  0  0  0  0  0  0  0  0
    5.9612   -8.3203   17.2732 N   0  0  0  0  0  0  0  0  0  0  0  0
    8.5296   -5.9814   17.1841 C   0  0  0  0  0  0  0  0  0  0  0  0
    9.1527   -5.2118   16.2116 C   0  0  0  0  0  0  0  0  0  0  0  0
   10.3364   -3.8368   22.9255 O   0  0  0  0  0  0  0  0  0  0  0  0
    9.6947   -4.8407   18.8534 C   0  0  0  0  0  0  0  0  0  0  0  0
    9.1596    1.7042   24.1381 C   0  0  0  0  0  0  0  0  0  0  0  0
   11.0456   -2.9774   18.2694 N   0  0  0  0  0  0  0  0  0  0  0  0
   10.4788   -3.0457   21.8593 C   0  0  0  0  0  0  0  0  0  0  0  0
    8.8693   -5.8099   18.4657 N   0  0  0  0  0  0  0  0  0  0  0  0
    8.9892   -0.7926   25.4573 C   0  0  0  0  0  0  0  0  0  0  0  0
   10.5677   -3.4462   20.5323 C   0  0  0  0  0  0  0  0  0  0  0  0
  1  8  1  0
  1 12  4  0
  1 14  4  0
  2  3  4  0
  2 18  4  0
  3 20  4  0
  3 22  4  0
  4 11  4  0
  4 21  4  0
  5  9  4  0
  5 16  4  0
  6 15  4  0
  6 16  4  0
  7 22  4  0
  7 26  4  0
  8 10  4  0
  8 25  4  0
  9 15  4  0
  9 17  1  0
 10 21  4  0
 11 25  4  0
 12 23  4  0
 13 20  4  0
 13 26  4  0
 14 19  4  0
 17 18  4  0
 17 24  4  0
 19 23  4  0
 20 24  4  0
 23 26  1  0
M  END
$$$$

 Created by Python create_sdf_string function

 26 30  0  0  0  0  0  0  0  0999 V2000
   10.0084   -1.8019   23.4945 C   0  0  0  0  0  0  0  0  0  0  0  0
   10.0005   -4.2520   16.5631 C   0  0  0  0  0  0  0  0  0  0  0  0
   10.2759   -4.0036   17.8845 C   0  0  0  0  0  0  0  0  0  0  0  0
    8.5652    1.5478   25.3778 N   0  0  0  0  0  0  0  0  0  0  0  0
    6.8048   -7.5457   17.8752 C   0  0  0  0  0  0  0  0  0  0  0  0
    6.1721   -8.2186   15.9886 N   0  0  0  0  0  0  0  0  0  0  0  0
   11.1764   -2.6600   19.5604 C   0  0  0  0  0  0  0  0  0  0  0  0
    9.5491   -0.6380   24.1912 C   0  0  0  0  0  0  0  0  0  0  0  0
    7.5337   -6.9256   16.9519 C   0  0  0  0  0  0  0  0  0  0  0  0
    9.6782    0.5671   23.5143 C   0  0  0  0  0  0  0  0  0  0  0  0
    8.4532    0.3482   26.0821 C   0  0  0  0  0  0  0  0  0  0  0  0
   10.4239   -1.7677   22.2230 N   0  0  0  0  0  0  0  0  0  0  0  0
    9.9468   -4.5953   20.1709 C   0  0  0  0  0  0  0  0  0  0  0  0
   10.0366   -3.0590   23.9864 N   0  0  0  0  0  0  0  0  0  0  0  0
    7.1191   -7.3636   15.7739 C   0  0  0  0  0  0  0  0  0  0  0  0
    5.9612   -8.3203   17.2732 N   0  0  0  0  0  0  0  0  0  0  0  0
    8.5296   -5.9814   17.1841 C   0  0  0  0  0  0  0  0  0  0  0  0
    9.1527   -5.2118   16.2116 C   0  0  0  0  0  0  0  0  0  0  0  0
   10.3364   -3.8368   22.9255 O   0  0  0  0  0  0  0  0  0  0  0  0
    9.6947   -4.8407   18.8534 C   0  0  0  0  0  0  0  0  0  0  0  0
    9.1596    1.7042   24.1381 C   0  0  0  0  0  0  0  0  0  0  0  0
   11.0456   -2.9774   18.2694 N   0  0  0  0  0  0  0  0  0  0  0  0
   10.4788   -3.0457   21.8593 C   0  0  0  0  0  0  0  0  0  0  0  0
    8.8693   -5.8099   18.4657 N   0  0  0  0  0  0  0  0  0  0  0  0
    8.9892   -0.7926   25.4573 C   0  0  0  0  0  0  0  0  0  0  0  0
   10.5677   -3.4462   20.5323 C   0  0  0  0  0  0  0  0  0  0  0  0
  1  8  1  0
  1 12  4  0
  1 14  4  0
  2  3  4  0
  2 18  4  0
  3 20  4  0
  3 22  4  0
  4 11  4  0
  4 21  4  0
  5  9  4  0
  5 16  4  0
  6 15  4  0
  6 16  4  0
  7 22  4  0
  7 26  4  0
  8 10  4  0
  8 25  4  0
  9 15  4  0
  9 17  1  0
 10 21  4  0
 11 25  4  0
 12 23  4  0
 13 20  4  0
 13 26  4  0
 14 19  4  0
 17 18  4  0
 17 24  4  0
 19 23  4  0
 20 24  4  0
 23 26  1  0
M  END
$$$$

 Created by Python create_sdf_string function

 26 30  0  0  0  0  0  0  0  0999 V2000
   10.0084   -1.8019   23.4945 C   0  0  0  0  0  0  0  0  0  0  0  0
   10.0005   -4.2520   16.5631 C   0  0  0  0  0  0  0  0  0  0  0  0
   10.2759   -4.0036   17.8845 C   0  0  0  0  0  0  0  0  0  0  0  0
    8.5652    1.5478   25.3778 N   0  0  0  0  0  0  0  0  0  0  0  0
    6.8048   -7.5457   17.8752 C   0  0  0  0  0  0  0  0  0  0  0  0
    6.1721   -8.2186   15.9886 N   0  0  0  0  0  0  0  0  0  0  0  0
   11.1764   -2.6600   19.5604 C   0  0  0  0  0  0  0  0  0  0  0  0
    9.5491   -0.6380   24.1912 C   0  0  0  0  0  0  0  0  0  0  0  0
    7.5337   -6.9256   16.9519 C   0  0  0  0  0  0  0  0  0  0  0  0
    9.6782    0.5671   23.5143 C   0  0  0  0  0  0  0  0  0  0  0  0
    8.4532    0.3482   26.0821 C   0  0  0  0  0  0  0  0  0  0  0  0
   10.4239   -1.7677   22.2230 N   0  0  0  0  0  0  0  0  0  0  0  0
    9.9468   -4.5953   20.1709 C   0  0  0  0  0  0  0  0  0  0  0  0
   10.0366   -3.0590   23.9864 N   0  0  0  0  0  0  0  0  0  0  0  0
    7.1191   -7.3636   15.7739 C   0  0  0  0  0  0  0  0  0  0  0  0
    5.9612   -8.3203   17.2732 N   0  0  0  0  0  0  0  0  0  0  0  0
    8.5296   -5.9814   17.1841 C   0  0  0  0  0  0  0  0  0  0  0  0
    9.1527   -5.2118   16.2116 C   0  0  0  0  0  0  0  0  0  0  0  0
   10.3364   -3.8368   22.9255 O   0  0  0  0  0  0  0  0  0  0  0  0
    9.6947   -4.8407   18.8534 C   0  0  0  0  0  0  0  0  0  0  0  0
    9.1596    1.7042   24.1381 C   0  0  0  0  0  0  0  0  0  0  0  0
   11.0456   -2.9774   18.2694 N   0  0  0  0  0  0  0  0  0  0  0  0
   10.4788   -3.0457   21.8593 C   0  0  0  0  0  0  0  0  0  0  0  0
    8.8693   -5.8099   18.4657 N   0  0  0  0  0  0  0  0  0  0  0  0
    8.9892   -0.7926   25.4573 C   0  0  0  0  0  0  0  0  0  0  0  0
   10.5677   -3.4462   20.5323 C   0  0  0  0  0  0  0  0  0  0  0  0
  1  8  1  0
  1 12  4  0
  1 14  4  0
  2  3  4  0
  2 18  4  0
  3 20  4  0
  3 22  4  0
  4 11  4  0
  4 21  4  0
  5  9  4  0
  5 16  4  0
  6 15  4  0
  6 16  4  0
  7 22  4  0
  7 26  4  0
  8 10  4  0
  8 25  4  0
  9 15  4  0
  9 17  1  0
 10 21  4  0
 11 25  4  0
 12 23  4  0
 13 20  4  0
 13 26  4  0
 14 19  4  0
 17 18  4  0
 17 24  4  0
 19 23  4  0
 20 24  4  0
 23 26  1  0
M  END
$$$$

 Created by Python create_sdf_string function

 26 30  0  0  0  0  0  0  0  0999 V2000
   10.0084   -1.8019   23.4945 C   0  0  0  0  0  0  0  0  0  0  0  0
   10.0005   -4.2520   16.5631 C   0  0  0  0  0  0  0  0  0  0  0  0
   10.2759   -4.0036   17.8845 C   0  0  0  0  0  0  0  0  0  0  0  0
    8.5652    1.5478   25.3778 N   0  0  0  0  0  0  0  0  0  0  0  0
    6.8048   -7.5457   17.8752 C   0  0  0  0  0  0  0  0  0  0  0  0
    6.1721   -8.2186   15.9886 N   0  0  0  0  0  0  0  0  0  0  0  0
   11.1764   -2.6600   19.5604 C   0  0  0  0  0  0  0  0  0  0  0  0
    9.5491   -0.6380   24.1912 C   0  0  0  0  0  0  0  0  0  0  0  0
    7.5337   -6.9256   16.9519 C   0  0  0  0  0  0  0  0  0  0  0  0
    9.6782    0.5671   23.5143 C   0  0  0  0  0  0  0  0  0  0  0  0
    8.4532    0.3482   26.0821 C   0  0  0  0  0  0  0  0  0  0  0  0
   10.4239   -1.7677   22.2230 N   0  0  0  0  0  0  0  0  0  0  0  0
    9.9468   -4.5953   20.1709 C   0  0  0  0  0  0  0  0  0  0  0  0
   10.0366   -3.0590   23.9864 N   0  0  0  0  0  0  0  0  0  0  0  0
    7.1191   -7.3636   15.7739 C   0  0  0  0  0  0  0  0  0  0  0  0
    5.9612   -8.3203   17.2732 N   0  0  0  0  0  0  0  0  0  0  0  0
    8.5296   -5.9814   17.1841 C   0  0  0  0  0  0  0  0  0  0  0  0
    9.1527   -5.2118   16.2116 C   0  0  0  0  0  0  0  0  0  0  0  0
   10.3364   -3.8368   22.9255 O   0  0  0  0  0  0  0  0  0  0  0  0
    9.6947   -4.8407   18.8534 C   0  0  0  0  0  0  0  0  0  0  0  0
    9.1596    1.7042   24.1381 C   0  0  0  0  0  0  0  0  0  0  0  0
   11.0456   -2.9774   18.2694 N   0  0  0  0  0  0  0  0  0  0  0  0
   10.4788   -3.0457   21.8593 C   0  0  0  0  0  0  0  0  0  0  0  0
    8.8693   -5.8099   18.4657 N   0  0  0  0  0  0  0  0  0  0  0  0
    8.9892   -0.7926   25.4573 C   0  0  0  0  0  0  0  0  0  0  0  0
   10.5677   -3.4462   20.5323 C   0  0  0  0  0  0  0  0  0  0  0  0
  1  8  1  0
  1 12  4  0
  1 14  4  0
  2  3  4  0
  2 18  4  0
  3 20  4  0
  3 22  4  0
  4 11  4  0
  4 21  4  0
  5  9  4  0
  5 16  4  0
  6 15  4  0
  6 16  4  0
  7 22  4  0
  7 26  4  0
  8 10  4  0
  8 25  4  0
  9 15  4  0
  9 17  1  0
 10 21  4  0
 11 25  4  0
 12 23  4  0
 13 20  4  0
 13 26  4  0
 14 19  4  0
 17 18  4  0
 17 24  4  0
 19 23  4  0
 20 24  4  0
 23 26  1  0
M  END
$$$$

 Created by Python create_sdf_string function

 26 30  0  0  0  0  0  0  0  0999 V2000
   10.0084   -1.8019   23.4945 C   0  0  0  0  0  0  0  0  0  0  0  0
   10.0005   -4.2520   16.5631 C   0  0  0  0  0  0  0  0  0  0  0  0
   10.2759   -4.0036   17.8845 C   0  0  0  0  0  0  0  0  0  0  0  0
    8.5652    1.5478   25.3778 N   0  0  0  0  0  0  0  0  0  0  0  0
    6.8048   -7.5457   17.8752 C   0  0  0  0  0  0  0  0  0  0  0  0
    6.1721   -8.2186   15.9886 N   0  0  0  0  0  0  0  0  0  0  0  0
   11.1764   -2.6600   19.5604 C   0  0  0  0  0  0  0  0  0  0  0  0
    9.5491   -0.6380   24.1912 C   0  0  0  0  0  0  0  0  0  0  0  0
    7.5337   -6.9256   16.9519 C   0  0  0  0  0  0  0  0  0  0  0  0
    9.6782    0.5671   23.5143 C   0  0  0  0  0  0  0  0  0  0  0  0
    8.4532    0.3482   26.0821 C   0  0  0  0  0  0  0  0  0  0  0  0
   10.4239   -1.7677   22.2230 N   0  0  0  0  0  0  0  0  0  0  0  0
    9.9468   -4.5953   20.1709 C   0  0  0  0  0  0  0  0  0  0  0  0
   10.0366   -3.0590   23.9864 N   0  0  0  0  0  0  0  0  0  0  0  0
    7.1191   -7.3636   15.7739 C   0  0  0  0  0  0  0  0  0  0  0  0
    5.9612   -8.3203   17.2732 N   0  0  0  0  0  0  0  0  0  0  0  0
    8.5296   -5.9814   17.1841 C   0  0  0  0  0  0  0  0  0  0  0  0
    9.1527   -5.2118   16.2116 C   0  0  0  0  0  0  0  0  0  0  0  0
   10.3364   -3.8368   22.9255 O   0  0  0  0  0  0  0  0  0  0  0  0
    9.6947   -4.8407   18.8534 C   0  0  0  0  0  0  0  0  0  0  0  0
    9.1596    1.7042   24.1381 C   0  0  0  0  0  0  0  0  0  0  0  0
   11.0456   -2.9774   18.2694 N   0  0  0  0  0  0  0  0  0  0  0  0
   10.4788   -3.0457   21.8593 C   0  0  0  0  0  0  0  0  0  0  0  0
    8.8693   -5.8099   18.4657 N   0  0  0  0  0  0  0  0  0  0  0  0
    8.9892   -0.7926   25.4573 C   0  0  0  0  0  0  0  0  0  0  0  0
   10.5677   -3.4462   20.5323 C   0  0  0  0  0  0  0  0  0  0  0  0
  1  8  1  0
  1 12  4  0
  1 14  4  0
  2  3  4  0
  2 18  4  0
  3 20  4  0
  3 22  4  0
  4 11  4  0
  4 21  4  0
  5  9  4  0
  5 16  4  0
  6 15  4  0
  6 16  4  0
  7 22  4  0
  7 26  4  0
  8 10  4  0
  8 25  4  0
  9 15  4  0
  9 17  1  0
 10 21  4  0
 11 25  4  0
 12 23  4  0
 13 20  4  0
 13 26  4  0
 14 19  4  0
 17 18  4  0
 17 24  4  0
 19 23  4  0
 20 24  4  0
 23 26  1  0
M  END
$$$$

 Created by Python create_sdf_string function

 26 30  0  0  0  0  0  0  0  0999 V2000
   10.0084   -1.8019   23.4945 C   0  0  0  0  0  0  0  0  0  0  0  0
   10.0005   -4.2520   16.5631 C   0  0  0  0  0  0  0  0  0  0  0  0
   10.2759   -4.0036   17.8845 C   0  0  0  0  0  0  0  0  0  0  0  0
    8.5652    1.5478   25.3778 N   0  0  0  0  0  0  0  0  0  0  0  0
    6.8048   -7.5457   17.8752 C   0  0  0  0  0  0  0  0  0  0  0  0
    6.1721   -8.2186   15.9886 N   0  0  0  0  0  0  0  0  0  0  0  0
   11.1764   -2.6600   19.5604 C   0  0  0  0  0  0  0  0  0  0  0  0
    9.5491   -0.6380   24.1912 C   0  0  0  0  0  0  0  0  0  0  0  0
    7.5337   -6.9256   16.9519 C   0  0  0  0  0  0  0  0  0  0  0  0
    9.6782    0.5671   23.5143 C   0  0  0  0  0  0  0  0  0  0  0  0
    8.4532    0.3482   26.0821 C   0  0  0  0  0  0  0  0  0  0  0  0
   10.4239   -1.7677   22.2230 N   0  0  0  0  0  0  0  0  0  0  0  0
    9.9468   -4.5953   20.1709 C   0  0  0  0  0  0  0  0  0  0  0  0
   10.0366   -3.0590   23.9864 N   0  0  0  0  0  0  0  0  0  0  0  0
    7.1191   -7.3636   15.7739 C   0  0  0  0  0  0  0  0  0  0  0  0
    5.9612   -8.3203   17.2732 N   0  0  0  0  0  0  0  0  0  0  0  0
    8.5296   -5.9814   17.1841 C   0  0  0  0  0  0  0  0  0  0  0  0
    9.1527   -5.2118   16.2116 C   0  0  0  0  0  0  0  0  0  0  0  0
   10.3364   -3.8368   22.9255 O   0  0  0  0  0  0  0  0  0  0  0  0
    9.6947   -4.8407   18.8534 C   0  0  0  0  0  0  0  0  0  0  0  0
    9.1596    1.7042   24.1381 C   0  0  0  0  0  0  0  0  0  0  0  0
   11.0456   -2.9774   18.2694 N   0  0  0  0  0  0  0  0  0  0  0  0
   10.4788   -3.0457   21.8593 C   0  0  0  0  0  0  0  0  0  0  0  0
    8.8693   -5.8099   18.4657 N   0  0  0  0  0  0  0  0  0  0  0  0
    8.9892   -0.7926   25.4573 C   0  0  0  0  0  0  0  0  0  0  0  0
   10.5677   -3.4462   20.5323 C   0  0  0  0  0  0  0  0  0  0  0  0
  1  8  1  0
  1 12  4  0
  1 14  4  0
  2  3  4  0
  2 18  4  0
  3 20  4  0
  3 22  4  0
  4 11  4  0
  4 21  4  0
  5  9  4  0
  5 16  4  0
  6 15  4  0
  6 16  4  0
  7 22  4  0
  7 26  4  0
  8 10  4  0
  8 25  4  0
  9 15  4  0
  9 17  1  0
 10 21  4  0
 11 25  4  0
 12 23  4  0
 13 20  4  0
 13 26  4  0
 14 19  4  0
 17 18  4  0
 17 24  4  0
 19 23  4  0
 20 24  4  0
 23 26  1  0
M  END
$$$$

 Created by Python create_sdf_string function

 26 30  0  0  0  0  0  0  0  0999 V2000
   10.0084   -1.8019   23.4945 C   0  0  0  0  0  0  0  0  0  0  0  0
   10.0005   -4.2520   16.5631 C   0  0  0  0  0  0  0  0  0  0  0  0
   10.2759   -4.0036   17.8845 C   0  0  0  0  0  0  0  0  0  0  0  0
    8.5652    1.5478   25.3778 N   0  0  0  0  0  0  0  0  0  0  0  0
    6.8048   -7.5457   17.8752 C   0  0  0  0  0  0  0  0  0  0  0  0
    6.1721   -8.2186   15.9886 N   0  0  0  0  0  0  0  0  0  0  0  0
   11.1764   -2.6600   19.5604 C   0  0  0  0  0  0  0  0  0  0  0  0
    9.5491   -0.6380   24.1912 C   0  0  0  0  0  0  0  0  0  0  0  0
    7.5337   -6.9256   16.9519 C   0  0  0  0  0  0  0  0  0  0  0  0
    9.6782    0.5671   23.5143 C   0  0  0  0  0  0  0  0  0  0  0  0
    8.4532    0.3482   26.0821 C   0  0  0  0  0  0  0  0  0  0  0  0
   10.4239   -1.7677   22.2230 N   0  0  0  0  0  0  0  0  0  0  0  0
    9.9468   -4.5953   20.1709 C   0  0  0  0  0  0  0  0  0  0  0  0
   10.0366   -3.0590   23.9864 N   0  0  0  0  0  0  0  0  0  0  0  0
    7.1191   -7.3636   15.7739 C   0  0  0  0  0  0  0  0  0  0  0  0
    5.9612   -8.3203   17.2732 N   0  0  0  0  0  0  0  0  0  0  0  0
    8.5296   -5.9814   17.1841 C   0  0  0  0  0  0  0  0  0  0  0  0
    9.1527   -5.2118   16.2116 C   0  0  0  0  0  0  0  0  0  0  0  0
   10.3364   -3.8368   22.9255 O   0  0  0  0  0  0  0  0  0  0  0  0
    9.6947   -4.8407   18.8534 C   0  0  0  0  0  0  0  0  0  0  0  0
    9.1596    1.7042   24.1381 C   0  0  0  0  0  0  0  0  0  0  0  0
   11.0456   -2.9774   18.2694 N   0  0  0  0  0  0  0  0  0  0  0  0
   10.4788   -3.0457   21.8593 C   0  0  0  0  0  0  0  0  0  0  0  0
    8.8693   -5.8099   18.4657 N   0  0  0  0  0  0  0  0  0  0  0  0
    8.9892   -0.7926   25.4573 C   0  0  0  0  0  0  0  0  0  0  0  0
   10.5677   -3.4462   20.5323 C   0  0  0  0  0  0  0  0  0  0  0  0
  1  8  1  0
  1 12  4  0
  1 14  4  0
  2  3  4  0
  2 18  4  0
  3 20  4  0
  3 22  4  0
  4 11  4  0
  4 21  4  0
  5  9  4  0
  5 16  4  0
  6 15  4  0
  6 16  4  0
  7 22  4  0
  7 26  4  0
  8 10  4  0
  8 25  4  0
  9 15  4  0
  9 17  1  0
 10 21  4  0
 11 25  4  0
 12 23  4  0
 13 20  4  0
 13 26  4  0
 14 19  4  0
 17 18  4  0
 17 24  4  0
 19 23  4  0
 20 24  4  0
 23 26  1  0
M  END
$$$$

 Created by Python create_sdf_string function

 26 30  0  0  0  0  0  0  0  0999 V2000
   10.0084   -1.8019   23.4945 C   0  0  0  0  0  0  0  0  0  0  0  0
   10.0005   -4.2520   16.5631 C   0  0  0  0  0  0  0  0  0  0  0  0
   10.2759   -4.0036   17.8845 C   0  0  0  0  0  0  0  0  0  0  0  0
    8.5652    1.5478   25.3778 N   0  0  0  0  0  0  0  0  0  0  0  0
    6.8048   -7.5457   17.8752 C   0  0  0  0  0  0  0  0  0  0  0  0
    6.1721   -8.2186   15.9886 N   0  0  0  0  0  0  0  0  0  0  0  0
   11.1764   -2.6600   19.5604 C   0  0  0  0  0  0  0  0  0  0  0  0
    9.5491   -0.6380   24.1912 C   0  0  0  0  0  0  0  0  0  0  0  0
    7.5337   -6.9256   16.9519 C   0  0  0  0  0  0  0  0  0  0  0  0
    9.6782    0.5671   23.5143 C   0  0  0  0  0  0  0  0  0  0  0  0
    8.4532    0.3482   26.0821 C   0  0  0  0  0  0  0  0  0  0  0  0
   10.4239   -1.7677   22.2230 N   0  0  0  0  0  0  0  0  0  0  0  0
    9.9468   -4.5953   20.1709 C   0  0  0  0  0  0  0  0  0  0  0  0
   10.0366   -3.0590   23.9864 N   0  0  0  0  0  0  0  0  0  0  0  0
    7.1191   -7.3636   15.7739 C   0  0  0  0  0  0  0  0  0  0  0  0
    5.9612   -8.3203   17.2732 N   0  0  0  0  0  0  0  0  0  0  0  0
    8.5296   -5.9814   17.1841 C   0  0  0  0  0  0  0  0  0  0  0  0
    9.1527   -5.2118   16.2116 C   0  0  0  0  0  0  0  0  0  0  0  0
   10.3364   -3.8368   22.9255 O   0  0  0  0  0  0  0  0  0  0  0  0
    9.6947   -4.8407   18.8534 C   0  0  0  0  0  0  0  0  0  0  0  0
    9.1596    1.7042   24.1381 C   0  0  0  0  0  0  0  0  0  0  0  0
   11.0456   -2.9774   18.2694 N   0  0  0  0  0  0  0  0  0  0  0  0
   10.4788   -3.0457   21.8593 C   0  0  0  0  0  0  0  0  0  0  0  0
    8.8693   -5.8099   18.4657 N   0  0  0  0  0  0  0  0  0  0  0  0
    8.9892   -0.7926   25.4573 C   0  0  0  0  0  0  0  0  0  0  0  0
   10.5677   -3.4462   20.5323 C   0  0  0  0  0  0  0  0  0  0  0  0
  1  8  1  0
  1 12  4  0
  1 14  4  0
  2  3  4  0
  2 18  4  0
  3 20  4  0
  3 22  4  0
  4 11  4  0
  4 21  4  0
  5  9  4  0
  5 16  4  0
  6 15  4  0
  6 16  4  0
  7 22  4  0
  7 26  4  0
  8 10  4  0
  8 25  4  0
  9 15  4  0
  9 17  1  0
 10 21  4  0
 11 25  4  0
 12 23  4  0
 13 20  4  0
 13 26  4  0
 14 19  4  0
 17 18  4  0
 17 24  4  0
 19 23  4  0
 20 24  4  0
 23 26  1  0
M  END
$$$$

 Created by Python create_sdf_string function

 26 30  0  0  0  0  0  0  0  0999 V2000
   10.0084   -1.8019   23.4945 C   0  0  0  0  0  0  0  0  0  0  0  0
   10.0005   -4.2520   16.5631 C   0  0  0  0  0  0  0  0  0  0  0  0
   10.2759   -4.0036   17.8845 C   0  0  0  0  0  0  0  0  0  0  0  0
    8.5652    1.5478   25.3778 N   0  0  0  0  0  0  0  0  0  0  0  0
    6.8048   -7.5457   17.8752 C   0  0  0  0  0  0  0  0  0  0  0  0
    6.1721   -8.2186   15.9886 N   0  0  0  0  0  0  0  0  0  0  0  0
   11.1764   -2.6600   19.5604 C   0  0  0  0  0  0  0  0  0  0  0  0
    9.5491   -0.6380   24.1912 C   0  0  0  0  0  0  0  0  0  0  0  0
    7.5337   -6.9256   16.9519 C   0  0  0  0  0  0  0  0  0  0  0  0
    9.6782    0.5671   23.5143 C   0  0  0  0  0  0  0  0  0  0  0  0
    8.4532    0.3482   26.0821 C   0  0  0  0  0  0  0  0  0  0  0  0
   10.4239   -1.7677   22.2230 N   0  0  0  0  0  0  0  0  0  0  0  0
    9.9468   -4.5953   20.1709 C   0  0  0  0  0  0  0  0  0  0  0  0
   10.0366   -3.0590   23.9864 N   0  0  0  0  0  0  0  0  0  0  0  0
    7.1191   -7.3636   15.7739 C   0  0  0  0  0  0  0  0  0  0  0  0
    5.9612   -8.3203   17.2732 N   0  0  0  0  0  0  0  0  0  0  0  0
    8.5296   -5.9814   17.1841 C   0  0  0  0  0  0  0  0  0  0  0  0
    9.1527   -5.2118   16.2116 C   0  0  0  0  0  0  0  0  0  0  0  0
   10.3364   -3.8368   22.9255 O   0  0  0  0  0  0  0  0  0  0  0  0
    9.6947   -4.8407   18.8534 C   0  0  0  0  0  0  0  0  0  0  0  0
    9.1596    1.7042   24.1381 C   0  0  0  0  0  0  0  0  0  0  0  0
   11.0456   -2.9774   18.2694 N   0  0  0  0  0  0  0  0  0  0  0  0
   10.4788   -3.0457   21.8593 C   0  0  0  0  0  0  0  0  0  0  0  0
    8.8693   -5.8099   18.4657 N   0  0  0  0  0  0  0  0  0  0  0  0
    8.9892   -0.7926   25.4573 C   0  0  0  0  0  0  0  0  0  0  0  0
   10.5677   -3.4462   20.5323 C   0  0  0  0  0  0  0  0  0  0  0  0
  1  8  1  0
  1 12  4  0
  1 14  4  0
  2  3  4  0
  2 18  4  0
  3 20  4  0
  3 22  4  0
  4 11  4  0
  4 21  4  0
  5  9  4  0
  5 16  4  0
  6 15  4  0
  6 16  4  0
  7 22  4  0
  7 26  4  0
  8 10  4  0
  8 25  4  0
  9 15  4  0
  9 17  1  0
 10 21  4  0
 11 25  4  0
 12 23  4  0
 13 20  4  0
 13 26  4  0
 14 19  4  0
 17 18  4  0
 17 24  4  0
 19 23  4  0
 20 24  4  0
 23 26  1  0
M  END
$$$$

 Created by Python create_sdf_string function

 26 30  0  0  0  0  0  0  0  0999 V2000
   10.0084   -1.8019   23.4945 C   0  0  0  0  0  0  0  0  0  0  0  0
   10.0005   -4.2520   16.5631 C   0  0  0  0  0  0  0  0  0  0  0  0
   10.2759   -4.0036   17.8845 C   0  0  0  0  0  0  0  0  0  0  0  0
    8.5652    1.5478   25.3778 N   0  0  0  0  0  0  0  0  0  0  0  0
    6.8048   -7.5457   17.8752 C   0  0  0  0  0  0  0  0  0  0  0  0
    6.1721   -8.2186   15.9886 N   0  0  0  0  0  0  0  0  0  0  0  0
   11.1764   -2.6600   19.5604 C   0  0  0  0  0  0  0  0  0  0  0  0
    9.5491   -0.6380   24.1912 C   0  0  0  0  0  0  0  0  0  0  0  0
    7.5337   -6.9256   16.9519 C   0  0  0  0  0  0  0  0  0  0  0  0
    9.6782    0.5671   23.5143 C   0  0  0  0  0  0  0  0  0  0  0  0
    8.4532    0.3482   26.0821 C   0  0  0  0  0  0  0  0  0  0  0  0
   10.4239   -1.7677   22.2230 N   0  0  0  0  0  0  0  0  0  0  0  0
    9.9468   -4.5953   20.1709 C   0  0  0  0  0  0  0  0  0  0  0  0
   10.0366   -3.0590   23.9864 N   0  0  0  0  0  0  0  0  0  0  0  0
    7.1191   -7.3636   15.7739 C   0  0  0  0  0  0  0  0  0  0  0  0
    5.9612   -8.3203   17.2732 N   0  0  0  0  0  0  0  0  0  0  0  0
    8.5296   -5.9814   17.1841 C   0  0  0  0  0  0  0  0  0  0  0  0
    9.1527   -5.2118   16.2116 C   0  0  0  0  0  0  0  0  0  0  0  0
   10.3364   -3.8368   22.9255 O   0  0  0  0  0  0  0  0  0  0  0  0
    9.6947   -4.8407   18.8534 C   0  0  0  0  0  0  0  0  0  0  0  0
    9.1596    1.7042   24.1381 C   0  0  0  0  0  0  0  0  0  0  0  0
   11.0456   -2.9774   18.2694 N   0  0  0  0  0  0  0  0  0  0  0  0
   10.4788   -3.0457   21.8593 C   0  0  0  0  0  0  0  0  0  0  0  0
    8.8693   -5.8099   18.4657 N   0  0  0  0  0  0  0  0  0  0  0  0
    8.9892   -0.7926   25.4573 C   0  0  0  0  0  0  0  0  0  0  0  0
   10.5677   -3.4462   20.5323 C   0  0  0  0  0  0  0  0  0  0  0  0
  1  8  1  0
  1 12  4  0
  1 14  4  0
  2  3  4  0
  2 18  4  0
  3 20  4  0
  3 22  4  0
  4 11  4  0
  4 21  4  0
  5  9  4  0
  5 16  4  0
  6 15  4  0
  6 16  4  0
  7 22  4  0
  7 26  4  0
  8 10  4  0
  8 25  4  0
  9 15  4  0
  9 17  1  0
 10 21  4  0
 11 25  4  0
 12 23  4  0
 13 20  4  0
 13 26  4  0
 14 19  4  0
 17 18  4  0
 17 24  4  0
 19 23  4  0
 20 24  4  0
 23 26  1  0
M  END
$$$$

 Created by Python create_sdf_string function

 26 30  0  0  0  0  0  0  0  0999 V2000
   10.0084   -1.8019   23.4945 C   0  0  0  0  0  0  0  0  0  0  0  0
   10.0005   -4.2520   16.5631 C   0  0  0  0  0  0  0  0  0  0  0  0
   10.2759   -4.0036   17.8845 C   0  0  0  0  0  0  0  0  0  0  0  0
    8.5652    1.5478   25.3778 N   0  0  0  0  0  0  0  0  0  0  0  0
    6.8048   -7.5457   17.8752 C   0  0  0  0  0  0  0  0  0  0  0  0
    6.1721   -8.2186   15.9886 N   0  0  0  0  0  0  0  0  0  0  0  0
   11.1764   -2.6600   19.5604 C   0  0  0  0  0  0  0  0  0  0  0  0
    9.5491   -0.6380   24.1912 C   0  0  0  0  0  0  0  0  0  0  0  0
    7.5337   -6.9256   16.9519 C   0  0  0  0  0  0  0  0  0  0  0  0
    9.6782    0.5671   23.5143 C   0  0  0  0  0  0  0  0  0  0  0  0
    8.4532    0.3482   26.0821 C   0  0  0  0  0  0  0  0  0  0  0  0
   10.4239   -1.7677   22.2230 N   0  0  0  0  0  0  0  0  0  0  0  0
    9.9468   -4.5953   20.1709 C   0  0  0  0  0  0  0  0  0  0  0  0
   10.0366   -3.0590   23.9864 N   0  0  0  0  0  0  0  0  0  0  0  0
    7.1191   -7.3636   15.7739 C   0  0  0  0  0  0  0  0  0  0  0  0
    5.9612   -8.3203   17.2732 N   0  0  0  0  0  0  0  0  0  0  0  0
    8.5296   -5.9814   17.1841 C   0  0  0  0  0  0  0  0  0  0  0  0
    9.1527   -5.2118   16.2116 C   0  0  0  0  0  0  0  0  0  0  0  0
   10.3364   -3.8368   22.9255 O   0  0  0  0  0  0  0  0  0  0  0  0
    9.6947   -4.8407   18.8534 C   0  0  0  0  0  0  0  0  0  0  0  0
    9.1596    1.7042   24.1381 C   0  0  0  0  0  0  0  0  0  0  0  0
   11.0456   -2.9774   18.2694 N   0  0  0  0  0  0  0  0  0  0  0  0
   10.4788   -3.0457   21.8593 C   0  0  0  0  0  0  0  0  0  0  0  0
    8.8693   -5.8099   18.4657 N   0  0  0  0  0  0  0  0  0  0  0  0
    8.9892   -0.7926   25.4573 C   0  0  0  0  0  0  0  0  0  0  0  0
   10.5677   -3.4462   20.5323 C   0  0  0  0  0  0  0  0  0  0  0  0
  1  8  1  0
  1 12  4  0
  1 14  4  0
  2  3  4  0
  2 18  4  0
  3 20  4  0
  3 22  4  0
  4 11  4  0
  4 21  4  0
  5  9  4  0
  5 16  4  0
  6 15  4  0
  6 16  4  0
  7 22  4  0
  7 26  4  0
  8 10  4  0
  8 25  4  0
  9 15  4  0
  9 17  1  0
 10 21  4  0
 11 25  4  0
 12 23  4  0
 13 20  4  0
 13 26  4  0
 14 19  4  0
 17 18  4  0
 17 24  4  0
 19 23  4  0
 20 24  4  0
 23 26  1  0
M  END
$$$$

 Created by Python create_sdf_string function

 26 30  0  0  0  0  0  0  0  0999 V2000
   10.0084   -1.8019   23.4945 C   0  0  0  0  0  0  0  0  0  0  0  0
   10.0005   -4.2520   16.5631 C   0  0  0  0  0  0  0  0  0  0  0  0
   10.2759   -4.0036   17.8845 C   0  0  0  0  0  0  0  0  0  0  0  0
    8.5652    1.5478   25.3778 N   0  0  0  0  0  0  0  0  0  0  0  0
    6.8048   -7.5457   17.8752 C   0  0  0  0  0  0  0  0  0  0  0  0
    6.1721   -8.2186   15.9886 N   0  0  0  0  0  0  0  0  0  0  0  0
   11.1764   -2.6600   19.5604 C   0  0  0  0  0  0  0  0  0  0  0  0
    9.5491   -0.6380   24.1912 C   0  0  0  0  0  0  0  0  0  0  0  0
    7.5337   -6.9256   16.9519 C   0  0  0  0  0  0  0  0  0  0  0  0
    9.6782    0.5671   23.5143 C   0  0  0  0  0  0  0  0  0  0  0  0
    8.4532    0.3482   26.0821 C   0  0  0  0  0  0  0  0  0  0  0  0
   10.4239   -1.7677   22.2230 N   0  0  0  0  0  0  0  0  0  0  0  0
    9.9468   -4.5953   20.1709 C   0  0  0  0  0  0  0  0  0  0  0  0
   10.0366   -3.0590   23.9864 N   0  0  0  0  0  0  0  0  0  0  0  0
    7.1191   -7.3636   15.7739 C   0  0  0  0  0  0  0  0  0  0  0  0
    5.9612   -8.3203   17.2732 N   0  0  0  0  0  0  0  0  0  0  0  0
    8.5296   -5.9814   17.1841 C   0  0  0  0  0  0  0  0  0  0  0  0
    9.1527   -5.2118   16.2116 C   0  0  0  0  0  0  0  0  0  0  0  0
   10.3364   -3.8368   22.9255 O   0  0  0  0  0  0  0  0  0  0  0  0
    9.6947   -4.8407   18.8534 C   0  0  0  0  0  0  0  0  0  0  0  0
    9.1596    1.7042   24.1381 C   0  0  0  0  0  0  0  0  0  0  0  0
   11.0456   -2.9774   18.2694 N   0  0  0  0  0  0  0  0  0  0  0  0
   10.4788   -3.0457   21.8593 C   0  0  0  0  0  0  0  0  0  0  0  0
    8.8693   -5.8099   18.4657 N   0  0  0  0  0  0  0  0  0  0  0  0
    8.9892   -0.7926   25.4573 C   0  0  0  0  0  0  0  0  0  0  0  0
   10.5677   -3.4462   20.5323 C   0  0  0  0  0  0  0  0  0  0  0  0
  1  8  1  0
  1 12  4  0
  1 14  4  0
  2  3  4  0
  2 18  4  0
  3 20  4  0
  3 22  4  0
  4 11  4  0
  4 21  4  0
  5  9  4  0
  5 16  4  0
  6 15  4  0
  6 16  4  0
  7 22  4  0
  7 26  4  0
  8 10  4  0
  8 25  4  0
  9 15  4  0
  9 17  1  0
 10 21  4  0
 11 25  4  0
 12 23  4  0
 13 20  4  0
 13 26  4  0
 14 19  4  0
 17 18  4  0
 17 24  4  0
 19 23  4  0
 20 24  4  0
 23 26  1  0
M  END
$$$$

 Created by Python create_sdf_string function

 26 30  0  0  0  0  0  0  0  0999 V2000
   10.0084   -1.8019   23.4945 C   0  0  0  0  0  0  0  0  0  0  0  0
   10.0005   -4.2520   16.5631 C   0  0  0  0  0  0  0  0  0  0  0  0
   10.2759   -4.0036   17.8845 C   0  0  0  0  0  0  0  0  0  0  0  0
    8.5652    1.5478   25.3778 N   0  0  0  0  0  0  0  0  0  0  0  0
    6.8048   -7.5457   17.8752 C   0  0  0  0  0  0  0  0  0  0  0  0
    6.1721   -8.2186   15.9886 N   0  0  0  0  0  0  0  0  0  0  0  0
   11.1764   -2.6600   19.5604 C   0  0  0  0  0  0  0  0  0  0  0  0
    9.5491   -0.6380   24.1912 C   0  0  0  0  0  0  0  0  0  0  0  0
    7.5337   -6.9256   16.9519 C   0  0  0  0  0  0  0  0  0  0  0  0
    9.6782    0.5671   23.5143 C   0  0  0  0  0  0  0  0  0  0  0  0
    8.4532    0.3482   26.0821 C   0  0  0  0  0  0  0  0  0  0  0  0
   10.4239   -1.7677   22.2230 N   0  0  0  0  0  0  0  0  0  0  0  0
    9.9468   -4.5953   20.1709 C   0  0  0  0  0  0  0  0  0  0  0  0
   10.0366   -3.0590   23.9864 N   0  0  0  0  0  0  0  0  0  0  0  0
    7.1191   -7.3636   15.7739 C   0  0  0  0  0  0  0  0  0  0  0  0
    5.9612   -8.3203   17.2732 N   0  0  0  0  0  0  0  0  0  0  0  0
    8.5296   -5.9814   17.1841 C   0  0  0  0  0  0  0  0  0  0  0  0
    9.1527   -5.2118   16.2116 C   0  0  0  0  0  0  0  0  0  0  0  0
   10.3364   -3.8368   22.9255 O   0  0  0  0  0  0  0  0  0  0  0  0
    9.6947   -4.8407   18.8534 C   0  0  0  0  0  0  0  0  0  0  0  0
    9.1596    1.7042   24.1381 C   0  0  0  0  0  0  0  0  0  0  0  0
   11.0456   -2.9774   18.2694 N   0  0  0  0  0  0  0  0  0  0  0  0
   10.4788   -3.0457   21.8593 C   0  0  0  0  0  0  0  0  0  0  0  0
    8.8693   -5.8099   18.4657 N   0  0  0  0  0  0  0  0  0  0  0  0
    8.9892   -0.7926   25.4573 C   0  0  0  0  0  0  0  0  0  0  0  0
   10.5677   -3.4462   20.5323 C   0  0  0  0  0  0  0  0  0  0  0  0
  1  8  1  0
  1 12  4  0
  1 14  4  0
  2  3  4  0
  2 18  4  0
  3 20  4  0
  3 22  4  0
  4 11  4  0
  4 21  4  0
  5  9  4  0
  5 16  4  0
  6 15  4  0
  6 16  4  0
  7 22  4  0
  7 26  4  0
  8 10  4  0
  8 25  4  0
  9 15  4  0
  9 17  1  0
 10 21  4  0
 11 25  4  0
 12 23  4  0
 13 20  4  0
 13 26  4  0
 14 19  4  0
 17 18  4  0
 17 24  4  0
 19 23  4  0
 20 24  4  0
 23 26  1  0
M  END
$$$$

 Created by Python create_sdf_string function

 26 30  0  0  0  0  0  0  0  0999 V2000
   10.0084   -1.8019   23.4945 C   0  0  0  0  0  0  0  0  0  0  0  0
   10.0005   -4.2520   16.5631 C   0  0  0  0  0  0  0  0  0  0  0  0
   10.2759   -4.0036   17.8845 C   0  0  0  0  0  0  0  0  0  0  0  0
    8.5652    1.5478   25.3778 N   0  0  0  0  0  0  0  0  0  0  0  0
    6.8048   -7.5457   17.8752 C   0  0  0  0  0  0  0  0  0  0  0  0
    6.1721   -8.2186   15.9886 N   0  0  0  0  0  0  0  0  0  0  0  0
   11.1764   -2.6600   19.5604 C   0  0  0  0  0  0  0  0  0  0  0  0
    9.5491   -0.6380   24.1912 C   0  0  0  0  0  0  0  0  0  0  0  0
    7.5337   -6.9256   16.9519 C   0  0  0  0  0  0  0  0  0  0  0  0
    9.6782    0.5671   23.5143 C   0  0  0  0  0  0  0  0  0  0  0  0
    8.4532    0.3482   26.0821 C   0  0  0  0  0  0  0  0  0  0  0  0
   10.4239   -1.7677   22.2230 N   0  0  0  0  0  0  0  0  0  0  0  0
    9.9468   -4.5953   20.1709 C   0  0  0  0  0  0  0  0  0  0  0  0
   10.0366   -3.0590   23.9864 N   0  0  0  0  0  0  0  0  0  0  0  0
    7.1191   -7.3636   15.7739 C   0  0  0  0  0  0  0  0  0  0  0  0
    5.9612   -8.3203   17.2732 N   0  0  0  0  0  0  0  0  0  0  0  0
    8.5296   -5.9814   17.1841 C   0  0  0  0  0  0  0  0  0  0  0  0
    9.1527   -5.2118   16.2116 C   0  0  0  0  0  0  0  0  0  0  0  0
   10.3364   -3.8368   22.9255 O   0  0  0  0  0  0  0  0  0  0  0  0
    9.6947   -4.8407   18.8534 C   0  0  0  0  0  0  0  0  0  0  0  0
    9.1596    1.7042   24.1381 C   0  0  0  0  0  0  0  0  0  0  0  0
   11.0456   -2.9774   18.2694 N   0  0  0  0  0  0  0  0  0  0  0  0
   10.4788   -3.0457   21.8593 C   0  0  0  0  0  0  0  0  0  0  0  0
    8.8693   -5.8099   18.4657 N   0  0  0  0  0  0  0  0  0  0  0  0
    8.9892   -0.7926   25.4573 C   0  0  0  0  0  0  0  0  0  0  0  0
   10.5677   -3.4462   20.5323 C   0  0  0  0  0  0  0  0  0  0  0  0
  1  8  1  0
  1 12  4  0
  1 14  4  0
  2  3  4  0
  2 18  4  0
  3 20  4  0
  3 22  4  0
  4 11  4  0
  4 21  4  0
  5  9  4  0
  5 16  4  0
  6 15  4  0
  6 16  4  0
  7 22  4  0
  7 26  4  0
  8 10  4  0
  8 25  4  0
  9 15  4  0
  9 17  1  0
 10 21  4  0
 11 25  4  0
 12 23  4  0
 13 20  4  0
 13 26  4  0
 14 19  4  0
 17 18  4  0
 17 24  4  0
 19 23  4  0
 20 24  4  0
 23 26  1  0
M  END
$$$$

 Created by Python create_sdf_string function

 26 30  0  0  0  0  0  0  0  0999 V2000
   10.0084   -1.8019   23.4945 C   0  0  0  0  0  0  0  0  0  0  0  0
   10.0005   -4.2520   16.5631 C   0  0  0  0  0  0  0  0  0  0  0  0
   10.2759   -4.0036   17.8845 C   0  0  0  0  0  0  0  0  0  0  0  0
    8.5652    1.5478   25.3778 N   0  0  0  0  0  0  0  0  0  0  0  0
    6.8048   -7.5457   17.8752 C   0  0  0  0  0  0  0  0  0  0  0  0
    6.1721   -8.2186   15.9886 N   0  0  0  0  0  0  0  0  0  0  0  0
   11.1764   -2.6600   19.5604 C   0  0  0  0  0  0  0  0  0  0  0  0
    9.5491   -0.6380   24.1912 C   0  0  0  0  0  0  0  0  0  0  0  0
    7.5337   -6.9256   16.9519 C   0  0  0  0  0  0  0  0  0  0  0  0
    9.6782    0.5671   23.5143 C   0  0  0  0  0  0  0  0  0  0  0  0
    8.4532    0.3482   26.0821 C   0  0  0  0  0  0  0  0  0  0  0  0
   10.4239   -1.7677   22.2230 N   0  0  0  0  0  0  0  0  0  0  0  0
    9.9468   -4.5953   20.1709 C   0  0  0  0  0  0  0  0  0  0  0  0
   10.0366   -3.0590   23.9864 N   0  0  0  0  0  0  0  0  0  0  0  0
    7.1191   -7.3636   15.7739 C   0  0  0  0  0  0  0  0  0  0  0  0
    5.9612   -8.3203   17.2732 N   0  0  0  0  0  0  0  0  0  0  0  0
    8.5296   -5.9814   17.1841 C   0  0  0  0  0  0  0  0  0  0  0  0
    9.1527   -5.2118   16.2116 C   0  0  0  0  0  0  0  0  0  0  0  0
   10.3364   -3.8368   22.9255 O   0  0  0  0  0  0  0  0  0  0  0  0
    9.6947   -4.8407   18.8534 C   0  0  0  0  0  0  0  0  0  0  0  0
    9.1596    1.7042   24.1381 C   0  0  0  0  0  0  0  0  0  0  0  0
   11.0456   -2.9774   18.2694 N   0  0  0  0  0  0  0  0  0  0  0  0
   10.4788   -3.0457   21.8593 C   0  0  0  0  0  0  0  0  0  0  0  0
    8.8693   -5.8099   18.4657 N   0  0  0  0  0  0  0  0  0  0  0  0
    8.9892   -0.7926   25.4573 C   0  0  0  0  0  0  0  0  0  0  0  0
   10.5677   -3.4462   20.5323 C   0  0  0  0  0  0  0  0  0  0  0  0
  1  8  1  0
  1 12  4  0
  1 14  4  0
  2  3  4  0
  2 18  4  0
  3 20  4  0
  3 22  4  0
  4 11  4  0
  4 21  4  0
  5  9  4  0
  5 16  4  0
  6 15  4  0
  6 16  4  0
  7 22  4  0
  7 26  4  0
  8 10  4  0
  8 25  4  0
  9 15  4  0
  9 17  1  0
 10 21  4  0
 11 25  4  0
 12 23  4  0
 13 20  4  0
 13 26  4  0
 14 19  4  0
 17 18  4  0
 17 24  4  0
 19 23  4  0
 20 24  4  0
 23 26  1  0
M  END
$$$$

 Created by Python create_sdf_string function

 26 30  0  0  0  0  0  0  0  0999 V2000
   10.0084   -1.8019   23.4945 C   0  0  0  0  0  0  0  0  0  0  0  0
   10.0005   -4.2520   16.5631 C   0  0  0  0  0  0  0  0  0  0  0  0
   10.2759   -4.0036   17.8845 C   0  0  0  0  0  0  0  0  0  0  0  0
    8.5652    1.5478   25.3778 N   0  0  0  0  0  0  0  0  0  0  0  0
    6.8048   -7.5457   17.8752 C   0  0  0  0  0  0  0  0  0  0  0  0
    6.1721   -8.2186   15.9886 N   0  0  0  0  0  0  0  0  0  0  0  0
   11.1764   -2.6600   19.5604 C   0  0  0  0  0  0  0  0  0  0  0  0
    9.5491   -0.6380   24.1912 C   0  0  0  0  0  0  0  0  0  0  0  0
    7.5337   -6.9256   16.9519 C   0  0  0  0  0  0  0  0  0  0  0  0
    9.6782    0.5671   23.5143 C   0  0  0  0  0  0  0  0  0  0  0  0
    8.4532    0.3482   26.0821 C   0  0  0  0  0  0  0  0  0  0  0  0
   10.4239   -1.7677   22.2230 N   0  0  0  0  0  0  0  0  0  0  0  0
    9.9468   -4.5953   20.1709 C   0  0  0  0  0  0  0  0  0  0  0  0
   10.0366   -3.0590   23.9864 N   0  0  0  0  0  0  0  0  0  0  0  0
    7.1191   -7.3636   15.7739 C   0  0  0  0  0  0  0  0  0  0  0  0
    5.9612   -8.3203   17.2732 N   0  0  0  0  0  0  0  0  0  0  0  0
    8.5296   -5.9814   17.1841 C   0  0  0  0  0  0  0  0  0  0  0  0
    9.1527   -5.2118   16.2116 C   0  0  0  0  0  0  0  0  0  0  0  0
   10.3364   -3.8368   22.9255 O   0  0  0  0  0  0  0  0  0  0  0  0
    9.6947   -4.8407   18.8534 C   0  0  0  0  0  0  0  0  0  0  0  0
    9.1596    1.7042   24.1381 C   0  0  0  0  0  0  0  0  0  0  0  0
   11.0456   -2.9774   18.2694 N   0  0  0  0  0  0  0  0  0  0  0  0
   10.4788   -3.0457   21.8593 C   0  0  0  0  0  0  0  0  0  0  0  0
    8.8693   -5.8099   18.4657 N   0  0  0  0  0  0  0  0  0  0  0  0
    8.9892   -0.7926   25.4573 C   0  0  0  0  0  0  0  0  0  0  0  0
   10.5677   -3.4462   20.5323 C   0  0  0  0  0  0  0  0  0  0  0  0
  1  8  1  0
  1 12  4  0
  1 14  4  0
  2  3  4  0
  2 18  4  0
  3 20  4  0
  3 22  4  0
  4 11  4  0
  4 21  4  0
  5  9  4  0
  5 16  4  0
  6 15  4  0
  6 16  4  0
  7 22  4  0
  7 26  4  0
  8 10  4  0
  8 25  4  0
  9 15  4  0
  9 17  1  0
 10 21  4  0
 11 25  4  0
 12 23  4  0
 13 20  4  0
 13 26  4  0
 14 19  4  0
 17 18  4  0
 17 24  4  0
 19 23  4  0
 20 24  4  0
 23 26  1  0
M  END
$$$$

 Created by Python create_sdf_string function

 26 30  0  0  0  0  0  0  0  0999 V2000
   10.0084   -1.8019   23.4945 C   0  0  0  0  0  0  0  0  0  0  0  0
   10.0005   -4.2520   16.5631 C   0  0  0  0  0  0  0  0  0  0  0  0
   10.2759   -4.0036   17.8845 C   0  0  0  0  0  0  0  0  0  0  0  0
    8.5652    1.5478   25.3778 N   0  0  0  0  0  0  0  0  0  0  0  0
    6.8048   -7.5457   17.8752 C   0  0  0  0  0  0  0  0  0  0  0  0
    6.1721   -8.2186   15.9886 N   0  0  0  0  0  0  0  0  0  0  0  0
   11.1764   -2.6600   19.5604 C   0  0  0  0  0  0  0  0  0  0  0  0
    9.5491   -0.6380   24.1912 C   0  0  0  0  0  0  0  0  0  0  0  0
    7.5337   -6.9256   16.9519 C   0  0  0  0  0  0  0  0  0  0  0  0
    9.6782    0.5671   23.5143 C   0  0  0  0  0  0  0  0  0  0  0  0
    8.4532    0.3482   26.0821 C   0  0  0  0  0  0  0  0  0  0  0  0
   10.4239   -1.7677   22.2230 N   0  0  0  0  0  0  0  0  0  0  0  0
    9.9468   -4.5953   20.1709 C   0  0  0  0  0  0  0  0  0  0  0  0
   10.0366   -3.0590   23.9864 N   0  0  0  0  0  0  0  0  0  0  0  0
    7.1191   -7.3636   15.7739 C   0  0  0  0  0  0  0  0  0  0  0  0
    5.9612   -8.3203   17.2732 N   0  0  0  0  0  0  0  0  0  0  0  0
    8.5296   -5.9814   17.1841 C   0  0  0  0  0  0  0  0  0  0  0  0
    9.1527   -5.2118   16.2116 C   0  0  0  0  0  0  0  0  0  0  0  0
   10.3364   -3.8368   22.9255 O   0  0  0  0  0  0  0  0  0  0  0  0
    9.6947   -4.8407   18.8534 C   0  0  0  0  0  0  0  0  0  0  0  0
    9.1596    1.7042   24.1381 C   0  0  0  0  0  0  0  0  0  0  0  0
   11.0456   -2.9774   18.2694 N   0  0  0  0  0  0  0  0  0  0  0  0
   10.4788   -3.0457   21.8593 C   0  0  0  0  0  0  0  0  0  0  0  0
    8.8693   -5.8099   18.4657 N   0  0  0  0  0  0  0  0  0  0  0  0
    8.9892   -0.7926   25.4573 C   0  0  0  0  0  0  0  0  0  0  0  0
   10.5677   -3.4462   20.5323 C   0  0  0  0  0  0  0  0  0  0  0  0
  1  8  1  0
  1 12  4  0
  1 14  4  0
  2  3  4  0
  2 18  4  0
  3 20  4  0
  3 22  4  0
  4 11  4  0
  4 21  4  0
  5  9  4  0
  5 16  4  0
  6 15  4  0
  6 16  4  0
  7 22  4  0
  7 26  4  0
  8 10  4  0
  8 25  4  0
  9 15  4  0
  9 17  1  0
 10 21  4  0
 11 25  4  0
 12 23  4  0
 13 20  4  0
 13 26  4  0
 14 19  4  0
 17 18  4  0
 17 24  4  0
 19 23  4  0
 20 24  4  0
 23 26  1  0
M  END
$$$$

 Created by Python create_sdf_string function

 26 30  0  0  0  0  0  0  0  0999 V2000
   10.0084   -1.8019   23.4945 C   0  0  0  0  0  0  0  0  0  0  0  0
   10.0005   -4.2520   16.5631 C   0  0  0  0  0  0  0  0  0  0  0  0
   10.2759   -4.0036   17.8845 C   0  0  0  0  0  0  0  0  0  0  0  0
    8.5652    1.5478   25.3778 N   0  0  0  0  0  0  0  0  0  0  0  0
    6.8048   -7.5457   17.8752 C   0  0  0  0  0  0  0  0  0  0  0  0
    6.1721   -8.2186   15.9886 N   0  0  0  0  0  0  0  0  0  0  0  0
   11.1764   -2.6600   19.5604 C   0  0  0  0  0  0  0  0  0  0  0  0
    9.5491   -0.6380   24.1912 C   0  0  0  0  0  0  0  0  0  0  0  0
    7.5337   -6.9256   16.9519 C   0  0  0  0  0  0  0  0  0  0  0  0
    9.6782    0.5671   23.5143 C   0  0  0  0  0  0  0  0  0  0  0  0
    8.4532    0.3482   26.0821 C   0  0  0  0  0  0  0  0  0  0  0  0
   10.4239   -1.7677   22.2230 N   0  0  0  0  0  0  0  0  0  0  0  0
    9.9468   -4.5953   20.1709 C   0  0  0  0  0  0  0  0  0  0  0  0
   10.0366   -3.0590   23.9864 N   0  0  0  0  0  0  0  0  0  0  0  0
    7.1191   -7.3636   15.7739 C   0  0  0  0  0  0  0  0  0  0  0  0
    5.9612   -8.3203   17.2732 N   0  0  0  0  0  0  0  0  0  0  0  0
    8.5296   -5.9814   17.1841 C   0  0  0  0  0  0  0  0  0  0  0  0
    9.1527   -5.2118   16.2116 C   0  0  0  0  0  0  0  0  0  0  0  0
   10.3364   -3.8368   22.9255 O   0  0  0  0  0  0  0  0  0  0  0  0
    9.6947   -4.8407   18.8534 C   0  0  0  0  0  0  0  0  0  0  0  0
    9.1596    1.7042   24.1381 C   0  0  0  0  0  0  0  0  0  0  0  0
   11.0456   -2.9774   18.2694 N   0  0  0  0  0  0  0  0  0  0  0  0
   10.4788   -3.0457   21.8593 C   0  0  0  0  0  0  0  0  0  0  0  0
    8.8693   -5.8099   18.4657 N   0  0  0  0  0  0  0  0  0  0  0  0
    8.9892   -0.7926   25.4573 C   0  0  0  0  0  0  0  0  0  0  0  0
   10.5677   -3.4462   20.5323 C   0  0  0  0  0  0  0  0  0  0  0  0
  1  8  1  0
  1 12  4  0
  1 14  4  0
  2  3  4  0
  2 18  4  0
  3 20  4  0
  3 22  4  0
  4 11  4  0
  4 21  4  0
  5  9  4  0
  5 16  4  0
  6 15  4  0
  6 16  4  0
  7 22  4  0
  7 26  4  0
  8 10  4  0
  8 25  4  0
  9 15  4  0
  9 17  1  0
 10 21  4  0
 11 25  4  0
 12 23  4  0
 13 20  4  0
 13 26  4  0
 14 19  4  0
 17 18  4  0
 17 24  4  0
 19 23  4  0
 20 24  4  0
 23 26  1  0
M  END
$$$$

 Created by Python create_sdf_string function

 26 30  0  0  0  0  0  0  0  0999 V2000
   10.0084   -1.8019   23.4945 C   0  0  0  0  0  0  0  0  0  0  0  0
   10.0005   -4.2520   16.5631 C   0  0  0  0  0  0  0  0  0  0  0  0
   10.2759   -4.0036   17.8845 C   0  0  0  0  0  0  0  0  0  0  0  0
    8.5652    1.5478   25.3778 N   0  0  0  0  0  0  0  0  0  0  0  0
    6.8048   -7.5457   17.8752 C   0  0  0  0  0  0  0  0  0  0  0  0
    6.1721   -8.2186   15.9886 N   0  0  0  0  0  0  0  0  0  0  0  0
   11.1764   -2.6600   19.5604 C   0  0  0  0  0  0  0  0  0  0  0  0
    9.5491   -0.6380   24.1912 C   0  0  0  0  0  0  0  0  0  0  0  0
    7.5337   -6.9256   16.9519 C   0  0  0  0  0  0  0  0  0  0  0  0
    9.6782    0.5671   23.5143 C   0  0  0  0  0  0  0  0  0  0  0  0
    8.4532    0.3482   26.0821 C   0  0  0  0  0  0  0  0  0  0  0  0
   10.4239   -1.7677   22.2230 N   0  0  0  0  0  0  0  0  0  0  0  0
    9.9468   -4.5953   20.1709 C   0  0  0  0  0  0  0  0  0  0  0  0
   10.0366   -3.0590   23.9864 N   0  0  0  0  0  0  0  0  0  0  0  0
    7.1191   -7.3636   15.7739 C   0  0  0  0  0  0  0  0  0  0  0  0
    5.9612   -8.3203   17.2732 N   0  0  0  0  0  0  0  0  0  0  0  0
    8.5296   -5.9814   17.1841 C   0  0  0  0  0  0  0  0  0  0  0  0
    9.1527   -5.2118   16.2116 C   0  0  0  0  0  0  0  0  0  0  0  0
   10.3364   -3.8368   22.9255 O   0  0  0  0  0  0  0  0  0  0  0  0
    9.6947   -4.8407   18.8534 C   0  0  0  0  0  0  0  0  0  0  0  0
    9.1596    1.7042   24.1381 C   0  0  0  0  0  0  0  0  0  0  0  0
   11.0456   -2.9774   18.2694 N   0  0  0  0  0  0  0  0  0  0  0  0
   10.4788   -3.0457   21.8593 C   0  0  0  0  0  0  0  0  0  0  0  0
    8.8693   -5.8099   18.4657 N   0  0  0  0  0  0  0  0  0  0  0  0
    8.9892   -0.7926   25.4573 C   0  0  0  0  0  0  0  0  0  0  0  0
   10.5677   -3.4462   20.5323 C   0  0  0  0  0  0  0  0  0  0  0  0
  1  8  1  0
  1 12  4  0
  1 14  4  0
  2  3  4  0
  2 18  4  0
  3 20  4  0
  3 22  4  0
  4 11  4  0
  4 21  4  0
  5  9  4  0
  5 16  4  0
  6 15  4  0
  6 16  4  0
  7 22  4  0
  7 26  4  0
  8 10  4  0
  8 25  4  0
  9 15  4  0
  9 17  1  0
 10 21  4  0
 11 25  4  0
 12 23  4  0
 13 20  4  0
 13 26  4  0
 14 19  4  0
 17 18  4  0
 17 24  4  0
 19 23  4  0
 20 24  4  0
 23 26  1  0
M  END
$$$$

 Created by Python create_sdf_string function

 26 30  0  0  0  0  0  0  0  0999 V2000
   10.0084   -1.8019   23.4945 C   0  0  0  0  0  0  0  0  0  0  0  0
   10.0005   -4.2520   16.5631 C   0  0  0  0  0  0  0  0  0  0  0  0
   10.2759   -4.0036   17.8845 C   0  0  0  0  0  0  0  0  0  0  0  0
    8.5652    1.5478   25.3778 N   0  0  0  0  0  0  0  0  0  0  0  0
    6.8048   -7.5457   17.8752 C   0  0  0  0  0  0  0  0  0  0  0  0
    6.1721   -8.2186   15.9886 N   0  0  0  0  0  0  0  0  0  0  0  0
   11.1764   -2.6600   19.5604 C   0  0  0  0  0  0  0  0  0  0  0  0
    9.5491   -0.6380   24.1912 C   0  0  0  0  0  0  0  0  0  0  0  0
    7.5337   -6.9256   16.9519 C   0  0  0  0  0  0  0  0  0  0  0  0
    9.6782    0.5671   23.5143 C   0  0  0  0  0  0  0  0  0  0  0  0
    8.4532    0.3482   26.0821 C   0  0  0  0  0  0  0  0  0  0  0  0
   10.4239   -1.7677   22.2230 N   0  0  0  0  0  0  0  0  0  0  0  0
    9.9468   -4.5953   20.1709 C   0  0  0  0  0  0  0  0  0  0  0  0
   10.0366   -3.0590   23.9864 N   0  0  0  0  0  0  0  0  0  0  0  0
    7.1191   -7.3636   15.7739 C   0  0  0  0  0  0  0  0  0  0  0  0
    5.9612   -8.3203   17.2732 N   0  0  0  0  0  0  0  0  0  0  0  0
    8.5296   -5.9814   17.1841 C   0  0  0  0  0  0  0  0  0  0  0  0
    9.1527   -5.2118   16.2116 C   0  0  0  0  0  0  0  0  0  0  0  0
   10.3364   -3.8368   22.9255 O   0  0  0  0  0  0  0  0  0  0  0  0
    9.6947   -4.8407   18.8534 C   0  0  0  0  0  0  0  0  0  0  0  0
    9.1596    1.7042   24.1381 C   0  0  0  0  0  0  0  0  0  0  0  0
   11.0456   -2.9774   18.2694 N   0  0  0  0  0  0  0  0  0  0  0  0
   10.4788   -3.0457   21.8593 C   0  0  0  0  0  0  0  0  0  0  0  0
    8.8693   -5.8099   18.4657 N   0  0  0  0  0  0  0  0  0  0  0  0
    8.9892   -0.7926   25.4573 C   0  0  0  0  0  0  0  0  0  0  0  0
   10.5677   -3.4462   20.5323 C   0  0  0  0  0  0  0  0  0  0  0  0
  1  8  1  0
  1 12  4  0
  1 14  4  0
  2  3  4  0
  2 18  4  0
  3 20  4  0
  3 22  4  0
  4 11  4  0
  4 21  4  0
  5  9  4  0
  5 16  4  0
  6 15  4  0
  6 16  4  0
  7 22  4  0
  7 26  4  0
  8 10  4  0
  8 25  4  0
  9 15  4  0
  9 17  1  0
 10 21  4  0
 11 25  4  0
 12 23  4  0
 13 20  4  0
 13 26  4  0
 14 19  4  0
 17 18  4  0
 17 24  4  0
 19 23  4  0
 20 24  4  0
 23 26  1  0
M  END
$$$$

 Created by Python create_sdf_string function

 26 30  0  0  0  0  0  0  0  0999 V2000
   10.0084   -1.8019   23.4945 C   0  0  0  0  0  0  0  0  0  0  0  0
   10.0005   -4.2520   16.5631 C   0  0  0  0  0  0  0  0  0  0  0  0
   10.2759   -4.0036   17.8845 C   0  0  0  0  0  0  0  0  0  0  0  0
    8.5652    1.5478   25.3778 N   0  0  0  0  0  0  0  0  0  0  0  0
    6.8048   -7.5457   17.8752 C   0  0  0  0  0  0  0  0  0  0  0  0
    6.1721   -8.2186   15.9886 N   0  0  0  0  0  0  0  0  0  0  0  0
   11.1764   -2.6600   19.5604 C   0  0  0  0  0  0  0  0  0  0  0  0
    9.5491   -0.6380   24.1912 C   0  0  0  0  0  0  0  0  0  0  0  0
    7.5337   -6.9256   16.9519 C   0  0  0  0  0  0  0  0  0  0  0  0
    9.6782    0.5671   23.5143 C   0  0  0  0  0  0  0  0  0  0  0  0
    8.4532    0.3482   26.0821 C   0  0  0  0  0  0  0  0  0  0  0  0
   10.4239   -1.7677   22.2230 N   0  0  0  0  0  0  0  0  0  0  0  0
    9.9468   -4.5953   20.1709 C   0  0  0  0  0  0  0  0  0  0  0  0
   10.0366   -3.0590   23.9864 N   0  0  0  0  0  0  0  0  0  0  0  0
    7.1191   -7.3636   15.7739 C   0  0  0  0  0  0  0  0  0  0  0  0
    5.9612   -8.3203   17.2732 N   0  0  0  0  0  0  0  0  0  0  0  0
    8.5296   -5.9814   17.1841 C   0  0  0  0  0  0  0  0  0  0  0  0
    9.1527   -5.2118   16.2116 C   0  0  0  0  0  0  0  0  0  0  0  0
   10.3364   -3.8368   22.9255 O   0  0  0  0  0  0  0  0  0  0  0  0
    9.6947   -4.8407   18.8534 C   0  0  0  0  0  0  0  0  0  0  0  0
    9.1596    1.7042   24.1381 C   0  0  0  0  0  0  0  0  0  0  0  0
   11.0456   -2.9774   18.2694 N   0  0  0  0  0  0  0  0  0  0  0  0
   10.4788   -3.0457   21.8593 C   0  0  0  0  0  0  0  0  0  0  0  0
    8.8693   -5.8099   18.4657 N   0  0  0  0  0  0  0  0  0  0  0  0
    8.9892   -0.7926   25.4573 C   0  0  0  0  0  0  0  0  0  0  0  0
   10.5677   -3.4462   20.5323 C   0  0  0  0  0  0  0  0  0  0  0  0
  1  8  1  0
  1 12  4  0
  1 14  4  0
  2  3  4  0
  2 18  4  0
  3 20  4  0
  3 22  4  0
  4 11  4  0
  4 21  4  0
  5  9  4  0
  5 16  4  0
  6 15  4  0
  6 16  4  0
  7 22  4  0
  7 26  4  0
  8 10  4  0
  8 25  4  0
  9 15  4  0
  9 17  1  0
 10 21  4  0
 11 25  4  0
 12 23  4  0
 13 20  4  0
 13 26  4  0
 14 19  4  0
 17 18  4  0
 17 24  4  0
 19 23  4  0
 20 24  4  0
 23 26  1  0
M  END
$$$$

 Created by Python create_sdf_string function

 26 30  0  0  0  0  0  0  0  0999 V2000
   10.0084   -1.8019   23.4945 C   0  0  0  0  0  0  0  0  0  0  0  0
   10.0005   -4.2520   16.5631 C   0  0  0  0  0  0  0  0  0  0  0  0
   10.2759   -4.0036   17.8845 C   0  0  0  0  0  0  0  0  0  0  0  0
    8.5652    1.5478   25.3778 N   0  0  0  0  0  0  0  0  0  0  0  0
    6.8048   -7.5457   17.8752 C   0  0  0  0  0  0  0  0  0  0  0  0
    6.1721   -8.2186   15.9886 N   0  0  0  0  0  0  0  0  0  0  0  0
   11.1764   -2.6600   19.5604 C   0  0  0  0  0  0  0  0  0  0  0  0
    9.5491   -0.6380   24.1912 C   0  0  0  0  0  0  0  0  0  0  0  0
    7.5337   -6.9256   16.9519 C   0  0  0  0  0  0  0  0  0  0  0  0
    9.6782    0.5671   23.5143 C   0  0  0  0  0  0  0  0  0  0  0  0
    8.4532    0.3482   26.0821 C   0  0  0  0  0  0  0  0  0  0  0  0
   10.4239   -1.7677   22.2230 N   0  0  0  0  0  0  0  0  0  0  0  0
    9.9468   -4.5953   20.1709 C   0  0  0  0  0  0  0  0  0  0  0  0
   10.0366   -3.0590   23.9864 N   0  0  0  0  0  0  0  0  0  0  0  0
    7.1191   -7.3636   15.7739 C   0  0  0  0  0  0  0  0  0  0  0  0
    5.9612   -8.3203   17.2732 N   0  0  0  0  0  0  0  0  0  0  0  0
    8.5296   -5.9814   17.1841 C   0  0  0  0  0  0  0  0  0  0  0  0
    9.1527   -5.2118   16.2116 C   0  0  0  0  0  0  0  0  0  0  0  0
   10.3364   -3.8368   22.9255 O   0  0  0  0  0  0  0  0  0  0  0  0
    9.6947   -4.8407   18.8534 C   0  0  0  0  0  0  0  0  0  0  0  0
    9.1596    1.7042   24.1381 C   0  0  0  0  0  0  0  0  0  0  0  0
   11.0456   -2.9774   18.2694 N   0  0  0  0  0  0  0  0  0  0  0  0
   10.4788   -3.0457   21.8593 C   0  0  0  0  0  0  0  0  0  0  0  0
    8.8693   -5.8099   18.4657 N   0  0  0  0  0  0  0  0  0  0  0  0
    8.9892   -0.7926   25.4573 C   0  0  0  0  0  0  0  0  0  0  0  0
   10.5677   -3.4462   20.5323 C   0  0  0  0  0  0  0  0  0  0  0  0
  1  8  1  0
  1 12  4  0
  1 14  4  0
  2  3  4  0
  2 18  4  0
  3 20  4  0
  3 22  4  0
  4 11  4  0
  4 21  4  0
  5  9  4  0
  5 16  4  0
  6 15  4  0
  6 16  4  0
  7 22  4  0
  7 26  4  0
  8 10  4  0
  8 25  4  0
  9 15  4  0
  9 17  1  0
 10 21  4  0
 11 25  4  0
 12 23  4  0
 13 20  4  0
 13 26  4  0
 14 19  4  0
 17 18  4  0
 17 24  4  0
 19 23  4  0
 20 24  4  0
 23 26  1  0
M  END
$$$$

 Created by Python create_sdf_string function

 26 30  0  0  0  0  0  0  0  0999 V2000
   10.0084   -1.8019   23.4945 C   0  0  0  0  0  0  0  0  0  0  0  0
   10.0005   -4.2520   16.5631 C   0  0  0  0  0  0  0  0  0  0  0  0
   10.2759   -4.0036   17.8845 C   0  0  0  0  0  0  0  0  0  0  0  0
    8.5652    1.5478   25.3778 N   0  0  0  0  0  0  0  0  0  0  0  0
    6.8048   -7.5457   17.8752 C   0  0  0  0  0  0  0  0  0  0  0  0
    6.1721   -8.2186   15.9886 N   0  0  0  0  0  0  0  0  0  0  0  0
   11.1764   -2.6600   19.5604 C   0  0  0  0  0  0  0  0  0  0  0  0
    9.5491   -0.6380   24.1912 C   0  0  0  0  0  0  0  0  0  0  0  0
    7.5337   -6.9256   16.9519 C   0  0  0  0  0  0  0  0  0  0  0  0
    9.6782    0.5671   23.5143 C   0  0  0  0  0  0  0  0  0  0  0  0
    8.4532    0.3482   26.0821 C   0  0  0  0  0  0  0  0  0  0  0  0
   10.4239   -1.7677   22.2230 N   0  0  0  0  0  0  0  0  0  0  0  0
    9.9468   -4.5953   20.1709 C   0  0  0  0  0  0  0  0  0  0  0  0
   10.0366   -3.0590   23.9864 N   0  0  0  0  0  0  0  0  0  0  0  0
    7.1191   -7.3636   15.7739 C   0  0  0  0  0  0  0  0  0  0  0  0
    5.9612   -8.3203   17.2732 N   0  0  0  0  0  0  0  0  0  0  0  0
    8.5296   -5.9814   17.1841 C   0  0  0  0  0  0  0  0  0  0  0  0
    9.1527   -5.2118   16.2116 C   0  0  0  0  0  0  0  0  0  0  0  0
   10.3364   -3.8368   22.9255 O   0  0  0  0  0  0  0  0  0  0  0  0
    9.6947   -4.8407   18.8534 C   0  0  0  0  0  0  0  0  0  0  0  0
    9.1596    1.7042   24.1381 C   0  0  0  0  0  0  0  0  0  0  0  0
   11.0456   -2.9774   18.2694 N   0  0  0  0  0  0  0  0  0  0  0  0
   10.4788   -3.0457   21.8593 C   0  0  0  0  0  0  0  0  0  0  0  0
    8.8693   -5.8099   18.4657 N   0  0  0  0  0  0  0  0  0  0  0  0
    8.9892   -0.7926   25.4573 C   0  0  0  0  0  0  0  0  0  0  0  0
   10.5677   -3.4462   20.5323 C   0  0  0  0  0  0  0  0  0  0  0  0
  1  8  1  0
  1 12  4  0
  1 14  4  0
  2  3  4  0
  2 18  4  0
  3 20  4  0
  3 22  4  0
  4 11  4  0
  4 21  4  0
  5  9  4  0
  5 16  4  0
  6 15  4  0
  6 16  4  0
  7 22  4  0
  7 26  4  0
  8 10  4  0
  8 25  4  0
  9 15  4  0
  9 17  1  0
 10 21  4  0
 11 25  4  0
 12 23  4  0
 13 20  4  0
 13 26  4  0
 14 19  4  0
 17 18  4  0
 17 24  4  0
 19 23  4  0
 20 24  4  0
 23 26  1  0
M  END
$$$$

 Created by Python create_sdf_string function

 26 30  0  0  0  0  0  0  0  0999 V2000
   10.0084   -1.8019   23.4945 C   0  0  0  0  0  0  0  0  0  0  0  0
   10.0005   -4.2520   16.5631 C   0  0  0  0  0  0  0  0  0  0  0  0
   10.2759   -4.0036   17.8845 C   0  0  0  0  0  0  0  0  0  0  0  0
    8.5652    1.5478   25.3778 N   0  0  0  0  0  0  0  0  0  0  0  0
    6.8048   -7.5457   17.8752 C   0  0  0  0  0  0  0  0  0  0  0  0
    6.1721   -8.2186   15.9886 N   0  0  0  0  0  0  0  0  0  0  0  0
   11.1764   -2.6600   19.5604 C   0  0  0  0  0  0  0  0  0  0  0  0
    9.5491   -0.6380   24.1912 C   0  0  0  0  0  0  0  0  0  0  0  0
    7.5337   -6.9256   16.9519 C   0  0  0  0  0  0  0  0  0  0  0  0
    9.6782    0.5671   23.5143 C   0  0  0  0  0  0  0  0  0  0  0  0
    8.4532    0.3482   26.0821 C   0  0  0  0  0  0  0  0  0  0  0  0
   10.4239   -1.7677   22.2230 N   0  0  0  0  0  0  0  0  0  0  0  0
    9.9468   -4.5953   20.1709 C   0  0  0  0  0  0  0  0  0  0  0  0
   10.0366   -3.0590   23.9864 N   0  0  0  0  0  0  0  0  0  0  0  0
    7.1191   -7.3636   15.7739 C   0  0  0  0  0  0  0  0  0  0  0  0
    5.9612   -8.3203   17.2732 N   0  0  0  0  0  0  0  0  0  0  0  0
    8.5296   -5.9814   17.1841 C   0  0  0  0  0  0  0  0  0  0  0  0
    9.1527   -5.2118   16.2116 C   0  0  0  0  0  0  0  0  0  0  0  0
   10.3364   -3.8368   22.9255 O   0  0  0  0  0  0  0  0  0  0  0  0
    9.6947   -4.8407   18.8534 C   0  0  0  0  0  0  0  0  0  0  0  0
    9.1596    1.7042   24.1381 C   0  0  0  0  0  0  0  0  0  0  0  0
   11.0456   -2.9774   18.2694 N   0  0  0  0  0  0  0  0  0  0  0  0
   10.4788   -3.0457   21.8593 C   0  0  0  0  0  0  0  0  0  0  0  0
    8.8693   -5.8099   18.4657 N   0  0  0  0  0  0  0  0  0  0  0  0
    8.9892   -0.7926   25.4573 C   0  0  0  0  0  0  0  0  0  0  0  0
   10.5677   -3.4462   20.5323 C   0  0  0  0  0  0  0  0  0  0  0  0
  1  8  1  0
  1 12  4  0
  1 14  4  0
  2  3  4  0
  2 18  4  0
  3 20  4  0
  3 22  4  0
  4 11  4  0
  4 21  4  0
  5  9  4  0
  5 16  4  0
  6 15  4  0
  6 16  4  0
  7 22  4  0
  7 26  4  0
  8 10  4  0
  8 25  4  0
  9 15  4  0
  9 17  1  0
 10 21  4  0
 11 25  4  0
 12 23  4  0
 13 20  4  0
 13 26  4  0
 14 19  4  0
 17 18  4  0
 17 24  4  0
 19 23  4  0
 20 24  4  0
 23 26  1  0
M  END
$$$$

 Created by Python create_sdf_string function

 26 30  0  0  0  0  0  0  0  0999 V2000
   10.0084   -1.8019   23.4945 C   0  0  0  0  0  0  0  0  0  0  0  0
   10.0005   -4.2520   16.5631 C   0  0  0  0  0  0  0  0  0  0  0  0
   10.2759   -4.0036   17.8845 C   0  0  0  0  0  0  0  0  0  0  0  0
    8.5652    1.5478   25.3778 N   0  0  0  0  0  0  0  0  0  0  0  0
    6.8048   -7.5457   17.8752 C   0  0  0  0  0  0  0  0  0  0  0  0
    6.1721   -8.2186   15.9886 N   0  0  0  0  0  0  0  0  0  0  0  0
   11.1764   -2.6600   19.5604 C   0  0  0  0  0  0  0  0  0  0  0  0
    9.5491   -0.6380   24.1912 C   0  0  0  0  0  0  0  0  0  0  0  0
    7.5337   -6.9256   16.9519 C   0  0  0  0  0  0  0  0  0  0  0  0
    9.6782    0.5671   23.5143 C   0  0  0  0  0  0  0  0  0  0  0  0
    8.4532    0.3482   26.0821 C   0  0  0  0  0  0  0  0  0  0  0  0
   10.4239   -1.7677   22.2230 N   0  0  0  0  0  0  0  0  0  0  0  0
    9.9468   -4.5953   20.1709 C   0  0  0  0  0  0  0  0  0  0  0  0
   10.0366   -3.0590   23.9864 N   0  0  0  0  0  0  0  0  0  0  0  0
    7.1191   -7.3636   15.7739 C   0  0  0  0  0  0  0  0  0  0  0  0
    5.9612   -8.3203   17.2732 N   0  0  0  0  0  0  0  0  0  0  0  0
    8.5296   -5.9814   17.1841 C   0  0  0  0  0  0  0  0  0  0  0  0
    9.1527   -5.2118   16.2116 C   0  0  0  0  0  0  0  0  0  0  0  0
   10.3364   -3.8368   22.9255 O   0  0  0  0  0  0  0  0  0  0  0  0
    9.6947   -4.8407   18.8534 C   0  0  0  0  0  0  0  0  0  0  0  0
    9.1596    1.7042   24.1381 C   0  0  0  0  0  0  0  0  0  0  0  0
   11.0456   -2.9774   18.2694 N   0  0  0  0  0  0  0  0  0  0  0  0
   10.4788   -3.0457   21.8593 C   0  0  0  0  0  0  0  0  0  0  0  0
    8.8693   -5.8099   18.4657 N   0  0  0  0  0  0  0  0  0  0  0  0
    8.9892   -0.7926   25.4573 C   0  0  0  0  0  0  0  0  0  0  0  0
   10.5677   -3.4462   20.5323 C   0  0  0  0  0  0  0  0  0  0  0  0
  1  8  1  0
  1 12  4  0
  1 14  4  0
  2  3  4  0
  2 18  4  0
  3 20  4  0
  3 22  4  0
  4 11  4  0
  4 21  4  0
  5  9  4  0
  5 16  4  0
  6 15  4  0
  6 16  4  0
  7 22  4  0
  7 26  4  0
  8 10  4  0
  8 25  4  0
  9 15  4  0
  9 17  1  0
 10 21  4  0
 11 25  4  0
 12 23  4  0
 13 20  4  0
 13 26  4  0
 14 19  4  0
 17 18  4  0
 17 24  4  0
 19 23  4  0
 20 24  4  0
 23 26  1  0
M  END
$$$$

 Created by Python create_sdf_string function

 26 30  0  0  0  0  0  0  0  0999 V2000
   10.0084   -1.8019   23.4945 C   0  0  0  0  0  0  0  0  0  0  0  0
   10.0005   -4.2520   16.5631 C   0  0  0  0  0  0  0  0  0  0  0  0
   10.2759   -4.0036   17.8845 C   0  0  0  0  0  0  0  0  0  0  0  0
    8.5652    1.5478   25.3778 N   0  0  0  0  0  0  0  0  0  0  0  0
    6.8048   -7.5457   17.8752 C   0  0  0  0  0  0  0  0  0  0  0  0
    6.1721   -8.2186   15.9886 N   0  0  0  0  0  0  0  0  0  0  0  0
   11.1764   -2.6600   19.5604 C   0  0  0  0  0  0  0  0  0  0  0  0
    9.5491   -0.6380   24.1912 C   0  0  0  0  0  0  0  0  0  0  0  0
    7.5337   -6.9256   16.9519 C   0  0  0  0  0  0  0  0  0  0  0  0
    9.6782    0.5671   23.5143 C   0  0  0  0  0  0  0  0  0  0  0  0
    8.4532    0.3482   26.0821 C   0  0  0  0  0  0  0  0  0  0  0  0
   10.4239   -1.7677   22.2230 N   0  0  0  0  0  0  0  0  0  0  0  0
    9.9468   -4.5953   20.1709 C   0  0  0  0  0  0  0  0  0  0  0  0
   10.0366   -3.0590   23.9864 N   0  0  0  0  0  0  0  0  0  0  0  0
    7.1191   -7.3636   15.7739 C   0  0  0  0  0  0  0  0  0  0  0  0
    5.9612   -8.3203   17.2732 N   0  0  0  0  0  0  0  0  0  0  0  0
    8.5296   -5.9814   17.1841 C   0  0  0  0  0  0  0  0  0  0  0  0
    9.1527   -5.2118   16.2116 C   0  0  0  0  0  0  0  0  0  0  0  0
   10.3364   -3.8368   22.9255 O   0  0  0  0  0  0  0  0  0  0  0  0
    9.6947   -4.8407   18.8534 C   0  0  0  0  0  0  0  0  0  0  0  0
    9.1596    1.7042   24.1381 C   0  0  0  0  0  0  0  0  0  0  0  0
   11.0456   -2.9774   18.2694 N   0  0  0  0  0  0  0  0  0  0  0  0
   10.4788   -3.0457   21.8593 C   0  0  0  0  0  0  0  0  0  0  0  0
    8.8693   -5.8099   18.4657 N   0  0  0  0  0  0  0  0  0  0  0  0
    8.9892   -0.7926   25.4573 C   0  0  0  0  0  0  0  0  0  0  0  0
   10.5677   -3.4462   20.5323 C   0  0  0  0  0  0  0  0  0  0  0  0
  1  8  1  0
  1 12  4  0
  1 14  4  0
  2  3  4  0
  2 18  4  0
  3 20  4  0
  3 22  4  0
  4 11  4  0
  4 21  4  0
  5  9  4  0
  5 16  4  0
  6 15  4  0
  6 16  4  0
  7 22  4  0
  7 26  4  0
  8 10  4  0
  8 25  4  0
  9 15  4  0
  9 17  1  0
 10 21  4  0
 11 25  4  0
 12 23  4  0
 13 20  4  0
 13 26  4  0
 14 19  4  0
 17 18  4  0
 17 24  4  0
 19 23  4  0
 20 24  4  0
 23 26  1  0
M  END
$$$$

 Created by Python create_sdf_string function

 26 30  0  0  0  0  0  0  0  0999 V2000
   10.0084   -1.8019   23.4945 C   0  0  0  0  0  0  0  0  0  0  0  0
   10.0005   -4.2520   16.5631 C   0  0  0  0  0  0  0  0  0  0  0  0
   10.2759   -4.0036   17.8845 C   0  0  0  0  0  0  0  0  0  0  0  0
    8.5652    1.5478   25.3778 N   0  0  0  0  0  0  0  0  0  0  0  0
    6.8048   -7.5457   17.8752 C   0  0  0  0  0  0  0  0  0  0  0  0
    6.1721   -8.2186   15.9886 N   0  0  0  0  0  0  0  0  0  0  0  0
   11.1764   -2.6600   19.5604 C   0  0  0  0  0  0  0  0  0  0  0  0
    9.5491   -0.6380   24.1912 C   0  0  0  0  0  0  0  0  0  0  0  0
    7.5337   -6.9256   16.9519 C   0  0  0  0  0  0  0  0  0  0  0  0
    9.6782    0.5671   23.5143 C   0  0  0  0  0  0  0  0  0  0  0  0
    8.4532    0.3482   26.0821 C   0  0  0  0  0  0  0  0  0  0  0  0
   10.4239   -1.7677   22.2230 N   0  0  0  0  0  0  0  0  0  0  0  0
    9.9468   -4.5953   20.1709 C   0  0  0  0  0  0  0  0  0  0  0  0
   10.0366   -3.0590   23.9864 N   0  0  0  0  0  0  0  0  0  0  0  0
    7.1191   -7.3636   15.7739 C   0  0  0  0  0  0  0  0  0  0  0  0
    5.9612   -8.3203   17.2732 N   0  0  0  0  0  0  0  0  0  0  0  0
    8.5296   -5.9814   17.1841 C   0  0  0  0  0  0  0  0  0  0  0  0
    9.1527   -5.2118   16.2116 C   0  0  0  0  0  0  0  0  0  0  0  0
   10.3364   -3.8368   22.9255 O   0  0  0  0  0  0  0  0  0  0  0  0
    9.6947   -4.8407   18.8534 C   0  0  0  0  0  0  0  0  0  0  0  0
    9.1596    1.7042   24.1381 C   0  0  0  0  0  0  0  0  0  0  0  0
   11.0456   -2.9774   18.2694 N   0  0  0  0  0  0  0  0  0  0  0  0
   10.4788   -3.0457   21.8593 C   0  0  0  0  0  0  0  0  0  0  0  0
    8.8693   -5.8099   18.4657 N   0  0  0  0  0  0  0  0  0  0  0  0
    8.9892   -0.7926   25.4573 C   0  0  0  0  0  0  0  0  0  0  0  0
   10.5677   -3.4462   20.5323 C   0  0  0  0  0  0  0  0  0  0  0  0
  1  8  1  0
  1 12  4  0
  1 14  4  0
  2  3  4  0
  2 18  4  0
  3 20  4  0
  3 22  4  0
  4 11  4  0
  4 21  4  0
  5  9  4  0
  5 16  4  0
  6 15  4  0
  6 16  4  0
  7 22  4  0
  7 26  4  0
  8 10  4  0
  8 25  4  0
  9 15  4  0
  9 17  1  0
 10 21  4  0
 11 25  4  0
 12 23  4  0
 13 20  4  0
 13 26  4  0
 14 19  4  0
 17 18  4  0
 17 24  4  0
 19 23  4  0
 20 24  4  0
 23 26  1  0
M  END
$$$$

 Created by Python create_sdf_string function

 26 30  0  0  0  0  0  0  0  0999 V2000
   10.0084   -1.8019   23.4945 C   0  0  0  0  0  0  0  0  0  0  0  0
   10.0005   -4.2520   16.5631 C   0  0  0  0  0  0  0  0  0  0  0  0
   10.2759   -4.0036   17.8845 C   0  0  0  0  0  0  0  0  0  0  0  0
    8.5652    1.5478   25.3778 N   0  0  0  0  0  0  0  0  0  0  0  0
    6.8048   -7.5457   17.8752 C   0  0  0  0  0  0  0  0  0  0  0  0
    6.1721   -8.2186   15.9886 N   0  0  0  0  0  0  0  0  0  0  0  0
   11.1764   -2.6600   19.5604 C   0  0  0  0  0  0  0  0  0  0  0  0
    9.5491   -0.6380   24.1912 C   0  0  0  0  0  0  0  0  0  0  0  0
    7.5337   -6.9256   16.9519 C   0  0  0  0  0  0  0  0  0  0  0  0
    9.6782    0.5671   23.5143 C   0  0  0  0  0  0  0  0  0  0  0  0
    8.4532    0.3482   26.0821 C   0  0  0  0  0  0  0  0  0  0  0  0
   10.4239   -1.7677   22.2230 N   0  0  0  0  0  0  0  0  0  0  0  0
    9.9468   -4.5953   20.1709 C   0  0  0  0  0  0  0  0  0  0  0  0
   10.0366   -3.0590   23.9864 N   0  0  0  0  0  0  0  0  0  0  0  0
    7.1191   -7.3636   15.7739 C   0  0  0  0  0  0  0  0  0  0  0  0
    5.9612   -8.3203   17.2732 N   0  0  0  0  0  0  0  0  0  0  0  0
    8.5296   -5.9814   17.1841 C   0  0  0  0  0  0  0  0  0  0  0  0
    9.1527   -5.2118   16.2116 C   0  0  0  0  0  0  0  0  0  0  0  0
   10.3364   -3.8368   22.9255 O   0  0  0  0  0  0  0  0  0  0  0  0
    9.6947   -4.8407   18.8534 C   0  0  0  0  0  0  0  0  0  0  0  0
    9.1596    1.7042   24.1381 C   0  0  0  0  0  0  0  0  0  0  0  0
   11.0456   -2.9774   18.2694 N   0  0  0  0  0  0  0  0  0  0  0  0
   10.4788   -3.0457   21.8593 C   0  0  0  0  0  0  0  0  0  0  0  0
    8.8693   -5.8099   18.4657 N   0  0  0  0  0  0  0  0  0  0  0  0
    8.9892   -0.7926   25.4573 C   0  0  0  0  0  0  0  0  0  0  0  0
   10.5677   -3.4462   20.5323 C   0  0  0  0  0  0  0  0  0  0  0  0
  1  8  1  0
  1 12  4  0
  1 14  4  0
  2  3  4  0
  2 18  4  0
  3 20  4  0
  3 22  4  0
  4 11  4  0
  4 21  4  0
  5  9  4  0
  5 16  4  0
  6 15  4  0
  6 16  4  0
  7 22  4  0
  7 26  4  0
  8 10  4  0
  8 25  4  0
  9 15  4  0
  9 17  1  0
 10 21  4  0
 11 25  4  0
 12 23  4  0
 13 20  4  0
 13 26  4  0
 14 19  4  0
 17 18  4  0
 17 24  4  0
 19 23  4  0
 20 24  4  0
 23 26  1  0
M  END
$$$$

 Created by Python create_sdf_string function

 26 30  0  0  0  0  0  0  0  0999 V2000
   10.0084   -1.8019   23.4945 C   0  0  0  0  0  0  0  0  0  0  0  0
   10.0005   -4.2520   16.5631 C   0  0  0  0  0  0  0  0  0  0  0  0
   10.2759   -4.0036   17.8845 C   0  0  0  0  0  0  0  0  0  0  0  0
    8.5652    1.5478   25.3778 N   0  0  0  0  0  0  0  0  0  0  0  0
    6.8048   -7.5457   17.8752 C   0  0  0  0  0  0  0  0  0  0  0  0
    6.1721   -8.2186   15.9886 N   0  0  0  0  0  0  0  0  0  0  0  0
   11.1764   -2.6600   19.5604 C   0  0  0  0  0  0  0  0  0  0  0  0
    9.5491   -0.6380   24.1912 C   0  0  0  0  0  0  0  0  0  0  0  0
    7.5337   -6.9256   16.9519 C   0  0  0  0  0  0  0  0  0  0  0  0
    9.6782    0.5671   23.5143 C   0  0  0  0  0  0  0  0  0  0  0  0
    8.4532    0.3482   26.0821 C   0  0  0  0  0  0  0  0  0  0  0  0
   10.4239   -1.7677   22.2230 N   0  0  0  0  0  0  0  0  0  0  0  0
    9.9468   -4.5953   20.1709 C   0  0  0  0  0  0  0  0  0  0  0  0
   10.0366   -3.0590   23.9864 N   0  0  0  0  0  0  0  0  0  0  0  0
    7.1191   -7.3636   15.7739 C   0  0  0  0  0  0  0  0  0  0  0  0
    5.9612   -8.3203   17.2732 N   0  0  0  0  0  0  0  0  0  0  0  0
    8.5296   -5.9814   17.1841 C   0  0  0  0  0  0  0  0  0  0  0  0
    9.1527   -5.2118   16.2116 C   0  0  0  0  0  0  0  0  0  0  0  0
   10.3364   -3.8368   22.9255 O   0  0  0  0  0  0  0  0  0  0  0  0
    9.6947   -4.8407   18.8534 C   0  0  0  0  0  0  0  0  0  0  0  0
    9.1596    1.7042   24.1381 C   0  0  0  0  0  0  0  0  0  0  0  0
   11.0456   -2.9774   18.2694 N   0  0  0  0  0  0  0  0  0  0  0  0
   10.4788   -3.0457   21.8593 C   0  0  0  0  0  0  0  0  0  0  0  0
    8.8693   -5.8099   18.4657 N   0  0  0  0  0  0  0  0  0  0  0  0
    8.9892   -0.7926   25.4573 C   0  0  0  0  0  0  0  0  0  0  0  0
   10.5677   -3.4462   20.5323 C   0  0  0  0  0  0  0  0  0  0  0  0
  1  8  1  0
  1 12  4  0
  1 14  4  0
  2  3  4  0
  2 18  4  0
  3 20  4  0
  3 22  4  0
  4 11  4  0
  4 21  4  0
  5  9  4  0
  5 16  4  0
  6 15  4  0
  6 16  4  0
  7 22  4  0
  7 26  4  0
  8 10  4  0
  8 25  4  0
  9 15  4  0
  9 17  1  0
 10 21  4  0
 11 25  4  0
 12 23  4  0
 13 20  4  0
 13 26  4  0
 14 19  4  0
 17 18  4  0
 17 24  4  0
 19 23  4  0
 20 24  4  0
 23 26  1  0
M  END
$$$$

 Created by Python create_sdf_string function

 26 30  0  0  0  0  0  0  0  0999 V2000
   10.0084   -1.8019   23.4945 C   0  0  0  0  0  0  0  0  0  0  0  0
   10.0005   -4.2520   16.5631 C   0  0  0  0  0  0  0  0  0  0  0  0
   10.2759   -4.0036   17.8845 C   0  0  0  0  0  0  0  0  0  0  0  0
    8.5652    1.5478   25.3778 N   0  0  0  0  0  0  0  0  0  0  0  0
    6.8048   -7.5457   17.8752 C   0  0  0  0  0  0  0  0  0  0  0  0
    6.1721   -8.2186   15.9886 N   0  0  0  0  0  0  0  0  0  0  0  0
   11.1764   -2.6600   19.5604 C   0  0  0  0  0  0  0  0  0  0  0  0
    9.5491   -0.6380   24.1912 C   0  0  0  0  0  0  0  0  0  0  0  0
    7.5337   -6.9256   16.9519 C   0  0  0  0  0  0  0  0  0  0  0  0
    9.6782    0.5671   23.5143 C   0  0  0  0  0  0  0  0  0  0  0  0
    8.4532    0.3482   26.0821 C   0  0  0  0  0  0  0  0  0  0  0  0
   10.4239   -1.7677   22.2230 N   0  0  0  0  0  0  0  0  0  0  0  0
    9.9468   -4.5953   20.1709 C   0  0  0  0  0  0  0  0  0  0  0  0
   10.0366   -3.0590   23.9864 N   0  0  0  0  0  0  0  0  0  0  0  0
    7.1191   -7.3636   15.7739 C   0  0  0  0  0  0  0  0  0  0  0  0
    5.9612   -8.3203   17.2732 N   0  0  0  0  0  0  0  0  0  0  0  0
    8.5296   -5.9814   17.1841 C   0  0  0  0  0  0  0  0  0  0  0  0
    9.1527   -5.2118   16.2116 C   0  0  0  0  0  0  0  0  0  0  0  0
   10.3364   -3.8368   22.9255 O   0  0  0  0  0  0  0  0  0  0  0  0
    9.6947   -4.8407   18.8534 C   0  0  0  0  0  0  0  0  0  0  0  0
    9.1596    1.7042   24.1381 C   0  0  0  0  0  0  0  0  0  0  0  0
   11.0456   -2.9774   18.2694 N   0  0  0  0  0  0  0  0  0  0  0  0
   10.4788   -3.0457   21.8593 C   0  0  0  0  0  0  0  0  0  0  0  0
    8.8693   -5.8099   18.4657 N   0  0  0  0  0  0  0  0  0  0  0  0
    8.9892   -0.7926   25.4573 C   0  0  0  0  0  0  0  0  0  0  0  0
   10.5677   -3.4462   20.5323 C   0  0  0  0  0  0  0  0  0  0  0  0
  1  8  1  0
  1 12  4  0
  1 14  4  0
  2  3  4  0
  2 18  4  0
  3 20  4  0
  3 22  4  0
  4 11  4  0
  4 21  4  0
  5  9  4  0
  5 16  4  0
  6 15  4  0
  6 16  4  0
  7 22  4  0
  7 26  4  0
  8 10  4  0
  8 25  4  0
  9 15  4  0
  9 17  1  0
 10 21  4  0
 11 25  4  0
 12 23  4  0
 13 20  4  0
 13 26  4  0
 14 19  4  0
 17 18  4  0
 17 24  4  0
 19 23  4  0
 20 24  4  0
 23 26  1  0
M  END
$$$$

 Created by Python create_sdf_string function

 26 30  0  0  0  0  0  0  0  0999 V2000
   10.0084   -1.8019   23.4945 C   0  0  0  0  0  0  0  0  0  0  0  0
   10.0005   -4.2520   16.5631 C   0  0  0  0  0  0  0  0  0  0  0  0
   10.2759   -4.0036   17.8845 C   0  0  0  0  0  0  0  0  0  0  0  0
    8.5652    1.5478   25.3778 N   0  0  0  0  0  0  0  0  0  0  0  0
    6.8048   -7.5457   17.8752 C   0  0  0  0  0  0  0  0  0  0  0  0
    6.1721   -8.2186   15.9886 N   0  0  0  0  0  0  0  0  0  0  0  0
   11.1764   -2.6600   19.5604 C   0  0  0  0  0  0  0  0  0  0  0  0
    9.5491   -0.6380   24.1912 C   0  0  0  0  0  0  0  0  0  0  0  0
    7.5337   -6.9256   16.9519 C   0  0  0  0  0  0  0  0  0  0  0  0
    9.6782    0.5671   23.5143 C   0  0  0  0  0  0  0  0  0  0  0  0
    8.4532    0.3482   26.0821 C   0  0  0  0  0  0  0  0  0  0  0  0
   10.4239   -1.7677   22.2230 N   0  0  0  0  0  0  0  0  0  0  0  0
    9.9468   -4.5953   20.1709 C   0  0  0  0  0  0  0  0  0  0  0  0
   10.0366   -3.0590   23.9864 N   0  0  0  0  0  0  0  0  0  0  0  0
    7.1191   -7.3636   15.7739 C   0  0  0  0  0  0  0  0  0  0  0  0
    5.9612   -8.3203   17.2732 N   0  0  0  0  0  0  0  0  0  0  0  0
    8.5296   -5.9814   17.1841 C   0  0  0  0  0  0  0  0  0  0  0  0
    9.1527   -5.2118   16.2116 C   0  0  0  0  0  0  0  0  0  0  0  0
   10.3364   -3.8368   22.9255 O   0  0  0  0  0  0  0  0  0  0  0  0
    9.6947   -4.8407   18.8534 C   0  0  0  0  0  0  0  0  0  0  0  0
    9.1596    1.7042   24.1381 C   0  0  0  0  0  0  0  0  0  0  0  0
   11.0456   -2.9774   18.2694 N   0  0  0  0  0  0  0  0  0  0  0  0
   10.4788   -3.0457   21.8593 C   0  0  0  0  0  0  0  0  0  0  0  0
    8.8693   -5.8099   18.4657 N   0  0  0  0  0  0  0  0  0  0  0  0
    8.9892   -0.7926   25.4573 C   0  0  0  0  0  0  0  0  0  0  0  0
   10.5677   -3.4462   20.5323 C   0  0  0  0  0  0  0  0  0  0  0  0
  1  8  1  0
  1 12  4  0
  1 14  4  0
  2  3  4  0
  2 18  4  0
  3 20  4  0
  3 22  4  0
  4 11  4  0
  4 21  4  0
  5  9  4  0
  5 16  4  0
  6 15  4  0
  6 16  4  0
  7 22  4  0
  7 26  4  0
  8 10  4  0
  8 25  4  0
  9 15  4  0
  9 17  1  0
 10 21  4  0
 11 25  4  0
 12 23  4  0
 13 20  4  0
 13 26  4  0
 14 19  4  0
 17 18  4  0
 17 24  4  0
 19 23  4  0
 20 24  4  0
 23 26  1  0
M  END
$$$$

 Created by Python create_sdf_string function

 26 30  0  0  0  0  0  0  0  0999 V2000
   10.0084   -1.8019   23.4945 C   0  0  0  0  0  0  0  0  0  0  0  0
   10.0005   -4.2520   16.5631 C   0  0  0  0  0  0  0  0  0  0  0  0
   10.2759   -4.0036   17.8845 C   0  0  0  0  0  0  0  0  0  0  0  0
    8.5652    1.5478   25.3778 N   0  0  0  0  0  0  0  0  0  0  0  0
    6.8048   -7.5457   17.8752 C   0  0  0  0  0  0  0  0  0  0  0  0
    6.1721   -8.2186   15.9886 N   0  0  0  0  0  0  0  0  0  0  0  0
   11.1764   -2.6600   19.5604 C   0  0  0  0  0  0  0  0  0  0  0  0
    9.5491   -0.6380   24.1912 C   0  0  0  0  0  0  0  0  0  0  0  0
    7.5337   -6.9256   16.9519 C   0  0  0  0  0  0  0  0  0  0  0  0
    9.6782    0.5671   23.5143 C   0  0  0  0  0  0  0  0  0  0  0  0
    8.4532    0.3482   26.0821 C   0  0  0  0  0  0  0  0  0  0  0  0
   10.4239   -1.7677   22.2230 N   0  0  0  0  0  0  0  0  0  0  0  0
    9.9468   -4.5953   20.1709 C   0  0  0  0  0  0  0  0  0  0  0  0
   10.0366   -3.0590   23.9864 N   0  0  0  0  0  0  0  0  0  0  0  0
    7.1191   -7.3636   15.7739 C   0  0  0  0  0  0  0  0  0  0  0  0
    5.9612   -8.3203   17.2732 N   0  0  0  0  0  0  0  0  0  0  0  0
    8.5296   -5.9814   17.1841 C   0  0  0  0  0  0  0  0  0  0  0  0
    9.1527   -5.2118   16.2116 C   0  0  0  0  0  0  0  0  0  0  0  0
   10.3364   -3.8368   22.9255 O   0  0  0  0  0  0  0  0  0  0  0  0
    9.6947   -4.8407   18.8534 C   0  0  0  0  0  0  0  0  0  0  0  0
    9.1596    1.7042   24.1381 C   0  0  0  0  0  0  0  0  0  0  0  0
   11.0456   -2.9774   18.2694 N   0  0  0  0  0  0  0  0  0  0  0  0
   10.4788   -3.0457   21.8593 C   0  0  0  0  0  0  0  0  0  0  0  0
    8.8693   -5.8099   18.4657 N   0  0  0  0  0  0  0  0  0  0  0  0
    8.9892   -0.7926   25.4573 C   0  0  0  0  0  0  0  0  0  0  0  0
   10.5677   -3.4462   20.5323 C   0  0  0  0  0  0  0  0  0  0  0  0
  1  8  1  0
  1 12  4  0
  1 14  4  0
  2  3  4  0
  2 18  4  0
  3 20  4  0
  3 22  4  0
  4 11  4  0
  4 21  4  0
  5  9  4  0
  5 16  4  0
  6 15  4  0
  6 16  4  0
  7 22  4  0
  7 26  4  0
  8 10  4  0
  8 25  4  0
  9 15  4  0
  9 17  1  0
 10 21  4  0
 11 25  4  0
 12 23  4  0
 13 20  4  0
 13 26  4  0
 14 19  4  0
 17 18  4  0
 17 24  4  0
 19 23  4  0
 20 24  4  0
 23 26  1  0
M  END
$$$$

 Created by Python create_sdf_string function

 26 30  0  0  0  0  0  0  0  0999 V2000
   10.0084   -1.8019   23.4945 C   0  0  0  0  0  0  0  0  0  0  0  0
   10.0005   -4.2520   16.5631 C   0  0  0  0  0  0  0  0  0  0  0  0
   10.2759   -4.0036   17.8845 C   0  0  0  0  0  0  0  0  0  0  0  0
    8.5652    1.5478   25.3778 N   0  0  0  0  0  0  0  0  0  0  0  0
    6.8048   -7.5457   17.8752 C   0  0  0  0  0  0  0  0  0  0  0  0
    6.1721   -8.2186   15.9886 N   0  0  0  0  0  0  0  0  0  0  0  0
   11.1764   -2.6600   19.5604 C   0  0  0  0  0  0  0  0  0  0  0  0
    9.5491   -0.6380   24.1912 C   0  0  0  0  0  0  0  0  0  0  0  0
    7.5337   -6.9256   16.9519 C   0  0  0  0  0  0  0  0  0  0  0  0
    9.6782    0.5671   23.5143 C   0  0  0  0  0  0  0  0  0  0  0  0
    8.4532    0.3482   26.0821 C   0  0  0  0  0  0  0  0  0  0  0  0
   10.4239   -1.7677   22.2230 N   0  0  0  0  0  0  0  0  0  0  0  0
    9.9468   -4.5953   20.1709 C   0  0  0  0  0  0  0  0  0  0  0  0
   10.0366   -3.0590   23.9864 N   0  0  0  0  0  0  0  0  0  0  0  0
    7.1191   -7.3636   15.7739 C   0  0  0  0  0  0  0  0  0  0  0  0
    5.9612   -8.3203   17.2732 N   0  0  0  0  0  0  0  0  0  0  0  0
    8.5296   -5.9814   17.1841 C   0  0  0  0  0  0  0  0  0  0  0  0
    9.1527   -5.2118   16.2116 C   0  0  0  0  0  0  0  0  0  0  0  0
   10.3364   -3.8368   22.9255 O   0  0  0  0  0  0  0  0  0  0  0  0
    9.6947   -4.8407   18.8534 C   0  0  0  0  0  0  0  0  0  0  0  0
    9.1596    1.7042   24.1381 C   0  0  0  0  0  0  0  0  0  0  0  0
   11.0456   -2.9774   18.2694 N   0  0  0  0  0  0  0  0  0  0  0  0
   10.4788   -3.0457   21.8593 C   0  0  0  0  0  0  0  0  0  0  0  0
    8.8693   -5.8099   18.4657 N   0  0  0  0  0  0  0  0  0  0  0  0
    8.9892   -0.7926   25.4573 C   0  0  0  0  0  0  0  0  0  0  0  0
   10.5677   -3.4462   20.5323 C   0  0  0  0  0  0  0  0  0  0  0  0
  1  8  1  0
  1 12  4  0
  1 14  4  0
  2  3  4  0
  2 18  4  0
  3 20  4  0
  3 22  4  0
  4 11  4  0
  4 21  4  0
  5  9  4  0
  5 16  4  0
  6 15  4  0
  6 16  4  0
  7 22  4  0
  7 26  4  0
  8 10  4  0
  8 25  4  0
  9 15  4  0
  9 17  1  0
 10 21  4  0
 11 25  4  0
 12 23  4  0
 13 20  4  0
 13 26  4  0
 14 19  4  0
 17 18  4  0
 17 24  4  0
 19 23  4  0
 20 24  4  0
 23 26  1  0
M  END
$$$$

 Created by Python create_sdf_string function

 26 30  0  0  0  0  0  0  0  0999 V2000
   10.0084   -1.8019   23.4945 C   0  0  0  0  0  0  0  0  0  0  0  0
   10.0005   -4.2520   16.5631 C   0  0  0  0  0  0  0  0  0  0  0  0
   10.2759   -4.0036   17.8845 C   0  0  0  0  0  0  0  0  0  0  0  0
    8.5652    1.5478   25.3778 N   0  0  0  0  0  0  0  0  0  0  0  0
    6.8048   -7.5457   17.8752 C   0  0  0  0  0  0  0  0  0  0  0  0
    6.1721   -8.2186   15.9886 N   0  0  0  0  0  0  0  0  0  0  0  0
   11.1764   -2.6600   19.5604 C   0  0  0  0  0  0  0  0  0  0  0  0
    9.5491   -0.6380   24.1912 C   0  0  0  0  0  0  0  0  0  0  0  0
    7.5337   -6.9256   16.9519 C   0  0  0  0  0  0  0  0  0  0  0  0
    9.6782    0.5671   23.5143 C   0  0  0  0  0  0  0  0  0  0  0  0
    8.4532    0.3482   26.0821 C   0  0  0  0  0  0  0  0  0  0  0  0
   10.4239   -1.7677   22.2230 N   0  0  0  0  0  0  0  0  0  0  0  0
    9.9468   -4.5953   20.1709 C   0  0  0  0  0  0  0  0  0  0  0  0
   10.0366   -3.0590   23.9864 N   0  0  0  0  0  0  0  0  0  0  0  0
    7.1191   -7.3636   15.7739 C   0  0  0  0  0  0  0  0  0  0  0  0
    5.9612   -8.3203   17.2732 N   0  0  0  0  0  0  0  0  0  0  0  0
    8.5296   -5.9814   17.1841 C   0  0  0  0  0  0  0  0  0  0  0  0
    9.1527   -5.2118   16.2116 C   0  0  0  0  0  0  0  0  0  0  0  0
   10.3364   -3.8368   22.9255 O   0  0  0  0  0  0  0  0  0  0  0  0
    9.6947   -4.8407   18.8534 C   0  0  0  0  0  0  0  0  0  0  0  0
    9.1596    1.7042   24.1381 C   0  0  0  0  0  0  0  0  0  0  0  0
   11.0456   -2.9774   18.2694 N   0  0  0  0  0  0  0  0  0  0  0  0
   10.4788   -3.0457   21.8593 C   0  0  0  0  0  0  0  0  0  0  0  0
    8.8693   -5.8099   18.4657 N   0  0  0  0  0  0  0  0  0  0  0  0
    8.9892   -0.7926   25.4573 C   0  0  0  0  0  0  0  0  0  0  0  0
   10.5677   -3.4462   20.5323 C   0  0  0  0  0  0  0  0  0  0  0  0
  1  8  1  0
  1 12  4  0
  1 14  4  0
  2  3  4  0
  2 18  4  0
  3 20  4  0
  3 22  4  0
  4 11  4  0
  4 21  4  0
  5  9  4  0
  5 16  4  0
  6 15  4  0
  6 16  4  0
  7 22  4  0
  7 26  4  0
  8 10  4  0
  8 25  4  0
  9 15  4  0
  9 17  1  0
 10 21  4  0
 11 25  4  0
 12 23  4  0
 13 20  4  0
 13 26  4  0
 14 19  4  0
 17 18  4  0
 17 24  4  0
 19 23  4  0
 20 24  4  0
 23 26  1  0
M  END
$$$$

 Created by Python create_sdf_string function

 26 30  0  0  0  0  0  0  0  0999 V2000
   10.0084   -1.8019   23.4945 C   0  0  0  0  0  0  0  0  0  0  0  0
   10.0005   -4.2520   16.5631 C   0  0  0  0  0  0  0  0  0  0  0  0
   10.2759   -4.0036   17.8845 C   0  0  0  0  0  0  0  0  0  0  0  0
    8.5652    1.5478   25.3778 N   0  0  0  0  0  0  0  0  0  0  0  0
    6.8048   -7.5457   17.8752 C   0  0  0  0  0  0  0  0  0  0  0  0
    6.1721   -8.2186   15.9886 N   0  0  0  0  0  0  0  0  0  0  0  0
   11.1764   -2.6600   19.5604 C   0  0  0  0  0  0  0  0  0  0  0  0
    9.5491   -0.6380   24.1912 C   0  0  0  0  0  0  0  0  0  0  0  0
    7.5337   -6.9256   16.9519 C   0  0  0  0  0  0  0  0  0  0  0  0
    9.6782    0.5671   23.5143 C   0  0  0  0  0  0  0  0  0  0  0  0
    8.4532    0.3482   26.0821 C   0  0  0  0  0  0  0  0  0  0  0  0
   10.4239   -1.7677   22.2230 N   0  0  0  0  0  0  0  0  0  0  0  0
    9.9468   -4.5953   20.1709 C   0  0  0  0  0  0  0  0  0  0  0  0
   10.0366   -3.0590   23.9864 N   0  0  0  0  0  0  0  0  0  0  0  0
    7.1191   -7.3636   15.7739 C   0  0  0  0  0  0  0  0  0  0  0  0
    5.9612   -8.3203   17.2732 N   0  0  0  0  0  0  0  0  0  0  0  0
    8.5296   -5.9814   17.1841 C   0  0  0  0  0  0  0  0  0  0  0  0
    9.1527   -5.2118   16.2116 C   0  0  0  0  0  0  0  0  0  0  0  0
   10.3364   -3.8368   22.9255 O   0  0  0  0  0  0  0  0  0  0  0  0
    9.6947   -4.8407   18.8534 C   0  0  0  0  0  0  0  0  0  0  0  0
    9.1596    1.7042   24.1381 C   0  0  0  0  0  0  0  0  0  0  0  0
   11.0456   -2.9774   18.2694 N   0  0  0  0  0  0  0  0  0  0  0  0
   10.4788   -3.0457   21.8593 C   0  0  0  0  0  0  0  0  0  0  0  0
    8.8693   -5.8099   18.4657 N   0  0  0  0  0  0  0  0  0  0  0  0
    8.9892   -0.7926   25.4573 C   0  0  0  0  0  0  0  0  0  0  0  0
   10.5677   -3.4462   20.5323 C   0  0  0  0  0  0  0  0  0  0  0  0
  1  8  1  0
  1 12  4  0
  1 14  4  0
  2  3  4  0
  2 18  4  0
  3 20  4  0
  3 22  4  0
  4 11  4  0
  4 21  4  0
  5  9  4  0
  5 16  4  0
  6 15  4  0
  6 16  4  0
  7 22  4  0
  7 26  4  0
  8 10  4  0
  8 25  4  0
  9 15  4  0
  9 17  1  0
 10 21  4  0
 11 25  4  0
 12 23  4  0
 13 20  4  0
 13 26  4  0
 14 19  4  0
 17 18  4  0
 17 24  4  0
 19 23  4  0
 20 24  4  0
 23 26  1  0
M  END
$$$$

 Created by Python create_sdf_string function

 26 30  0  0  0  0  0  0  0  0999 V2000
   10.0084   -1.8019   23.4945 C   0  0  0  0  0  0  0  0  0  0  0  0
   10.0005   -4.2520   16.5631 C   0  0  0  0  0  0  0  0  0  0  0  0
   10.2759   -4.0036   17.8845 C   0  0  0  0  0  0  0  0  0  0  0  0
    8.5652    1.5478   25.3778 N   0  0  0  0  0  0  0  0  0  0  0  0
    6.8048   -7.5457   17.8752 C   0  0  0  0  0  0  0  0  0  0  0  0
    6.1721   -8.2186   15.9886 N   0  0  0  0  0  0  0  0  0  0  0  0
   11.1764   -2.6600   19.5604 C   0  0  0  0  0  0  0  0  0  0  0  0
    9.5491   -0.6380   24.1912 C   0  0  0  0  0  0  0  0  0  0  0  0
    7.5337   -6.9256   16.9519 C   0  0  0  0  0  0  0  0  0  0  0  0
    9.6782    0.5671   23.5143 C   0  0  0  0  0  0  0  0  0  0  0  0
    8.4532    0.3482   26.0821 C   0  0  0  0  0  0  0  0  0  0  0  0
   10.4239   -1.7677   22.2230 N   0  0  0  0  0  0  0  0  0  0  0  0
    9.9468   -4.5953   20.1709 C   0  0  0  0  0  0  0  0  0  0  0  0
   10.0366   -3.0590   23.9864 N   0  0  0  0  0  0  0  0  0  0  0  0
    7.1191   -7.3636   15.7739 C   0  0  0  0  0  0  0  0  0  0  0  0
    5.9612   -8.3203   17.2732 N   0  0  0  0  0  0  0  0  0  0  0  0
    8.5296   -5.9814   17.1841 C   0  0  0  0  0  0  0  0  0  0  0  0
    9.1527   -5.2118   16.2116 C   0  0  0  0  0  0  0  0  0  0  0  0
   10.3364   -3.8368   22.9255 O   0  0  0  0  0  0  0  0  0  0  0  0
    9.6947   -4.8407   18.8534 C   0  0  0  0  0  0  0  0  0  0  0  0
    9.1596    1.7042   24.1381 C   0  0  0  0  0  0  0  0  0  0  0  0
   11.0456   -2.9774   18.2694 N   0  0  0  0  0  0  0  0  0  0  0  0
   10.4788   -3.0457   21.8593 C   0  0  0  0  0  0  0  0  0  0  0  0
    8.8693   -5.8099   18.4657 N   0  0  0  0  0  0  0  0  0  0  0  0
    8.9892   -0.7926   25.4573 C   0  0  0  0  0  0  0  0  0  0  0  0
   10.5677   -3.4462   20.5323 C   0  0  0  0  0  0  0  0  0  0  0  0
  1  8  1  0
  1 12  4  0
  1 14  4  0
  2  3  4  0
  2 18  4  0
  3 20  4  0
  3 22  4  0
  4 11  4  0
  4 21  4  0
  5  9  4  0
  5 16  4  0
  6 15  4  0
  6 16  4  0
  7 22  4  0
  7 26  4  0
  8 10  4  0
  8 25  4  0
  9 15  4  0
  9 17  1  0
 10 21  4  0
 11 25  4  0
 12 23  4  0
 13 20  4  0
 13 26  4  0
 14 19  4  0
 17 18  4  0
 17 24  4  0
 19 23  4  0
 20 24  4  0
 23 26  1  0
M  END
$$$$

 Created by Python create_sdf_string function

 26 30  0  0  0  0  0  0  0  0999 V2000
   10.0084   -1.8019   23.4945 C   0  0  0  0  0  0  0  0  0  0  0  0
   10.0005   -4.2520   16.5631 C   0  0  0  0  0  0  0  0  0  0  0  0
   10.2759   -4.0036   17.8845 C   0  0  0  0  0  0  0  0  0  0  0  0
    8.5652    1.5478   25.3778 N   0  0  0  0  0  0  0  0  0  0  0  0
    6.8048   -7.5457   17.8752 C   0  0  0  0  0  0  0  0  0  0  0  0
    6.1721   -8.2186   15.9886 N   0  0  0  0  0  0  0  0  0  0  0  0
   11.1764   -2.6600   19.5604 C   0  0  0  0  0  0  0  0  0  0  0  0
    9.5491   -0.6380   24.1912 C   0  0  0  0  0  0  0  0  0  0  0  0
    7.5337   -6.9256   16.9519 C   0  0  0  0  0  0  0  0  0  0  0  0
    9.6782    0.5671   23.5143 C   0  0  0  0  0  0  0  0  0  0  0  0
    8.4532    0.3482   26.0821 C   0  0  0  0  0  0  0  0  0  0  0  0
   10.4239   -1.7677   22.2230 N   0  0  0  0  0  0  0  0  0  0  0  0
    9.9468   -4.5953   20.1709 C   0  0  0  0  0  0  0  0  0  0  0  0
   10.0366   -3.0590   23.9864 N   0  0  0  0  0  0  0  0  0  0  0  0
    7.1191   -7.3636   15.7739 C   0  0  0  0  0  0  0  0  0  0  0  0
    5.9612   -8.3203   17.2732 N   0  0  0  0  0  0  0  0  0  0  0  0
    8.5296   -5.9814   17.1841 C   0  0  0  0  0  0  0  0  0  0  0  0
    9.1527   -5.2118   16.2116 C   0  0  0  0  0  0  0  0  0  0  0  0
   10.3364   -3.8368   22.9255 O   0  0  0  0  0  0  0  0  0  0  0  0
    9.6947   -4.8407   18.8534 C   0  0  0  0  0  0  0  0  0  0  0  0
    9.1596    1.7042   24.1381 C   0  0  0  0  0  0  0  0  0  0  0  0
   11.0456   -2.9774   18.2694 N   0  0  0  0  0  0  0  0  0  0  0  0
   10.4788   -3.0457   21.8593 C   0  0  0  0  0  0  0  0  0  0  0  0
    8.8693   -5.8099   18.4657 N   0  0  0  0  0  0  0  0  0  0  0  0
    8.9892   -0.7926   25.4573 C   0  0  0  0  0  0  0  0  0  0  0  0
   10.5677   -3.4462   20.5323 C   0  0  0  0  0  0  0  0  0  0  0  0
  1  8  1  0
  1 12  4  0
  1 14  4  0
  2  3  4  0
  2 18  4  0
  3 20  4  0
  3 22  4  0
  4 11  4  0
  4 21  4  0
  5  9  4  0
  5 16  4  0
  6 15  4  0
  6 16  4  0
  7 22  4  0
  7 26  4  0
  8 10  4  0
  8 25  4  0
  9 15  4  0
  9 17  1  0
 10 21  4  0
 11 25  4  0
 12 23  4  0
 13 20  4  0
 13 26  4  0
 14 19  4  0
 17 18  4  0
 17 24  4  0
 19 23  4  0
 20 24  4  0
 23 26  1  0
M  END
$$$$

 Created by Python create_sdf_string function

 26 30  0  0  0  0  0  0  0  0999 V2000
   10.0084   -1.8019   23.4945 C   0  0  0  0  0  0  0  0  0  0  0  0
   10.0005   -4.2520   16.5631 C   0  0  0  0  0  0  0  0  0  0  0  0
   10.2759   -4.0036   17.8845 C   0  0  0  0  0  0  0  0  0  0  0  0
    8.5652    1.5478   25.3778 N   0  0  0  0  0  0  0  0  0  0  0  0
    6.8048   -7.5457   17.8752 C   0  0  0  0  0  0  0  0  0  0  0  0
    6.1721   -8.2186   15.9886 N   0  0  0  0  0  0  0  0  0  0  0  0
   11.1764   -2.6600   19.5604 C   0  0  0  0  0  0  0  0  0  0  0  0
    9.5491   -0.6380   24.1912 C   0  0  0  0  0  0  0  0  0  0  0  0
    7.5337   -6.9256   16.9519 C   0  0  0  0  0  0  0  0  0  0  0  0
    9.6782    0.5671   23.5143 C   0  0  0  0  0  0  0  0  0  0  0  0
    8.4532    0.3482   26.0821 C   0  0  0  0  0  0  0  0  0  0  0  0
   10.4239   -1.7677   22.2230 N   0  0  0  0  0  0  0  0  0  0  0  0
    9.9468   -4.5953   20.1709 C   0  0  0  0  0  0  0  0  0  0  0  0
   10.0366   -3.0590   23.9864 N   0  0  0  0  0  0  0  0  0  0  0  0
    7.1191   -7.3636   15.7739 C   0  0  0  0  0  0  0  0  0  0  0  0
    5.9612   -8.3203   17.2732 N   0  0  0  0  0  0  0  0  0  0  0  0
    8.5296   -5.9814   17.1841 C   0  0  0  0  0  0  0  0  0  0  0  0
    9.1527   -5.2118   16.2116 C   0  0  0  0  0  0  0  0  0  0  0  0
   10.3364   -3.8368   22.9255 O   0  0  0  0  0  0  0  0  0  0  0  0
    9.6947   -4.8407   18.8534 C   0  0  0  0  0  0  0  0  0  0  0  0
    9.1596    1.7042   24.1381 C   0  0  0  0  0  0  0  0  0  0  0  0
   11.0456   -2.9774   18.2694 N   0  0  0  0  0  0  0  0  0  0  0  0
   10.4788   -3.0457   21.8593 C   0  0  0  0  0  0  0  0  0  0  0  0
    8.8693   -5.8099   18.4657 N   0  0  0  0  0  0  0  0  0  0  0  0
    8.9892   -0.7926   25.4573 C   0  0  0  0  0  0  0  0  0  0  0  0
   10.5677   -3.4462   20.5323 C   0  0  0  0  0  0  0  0  0  0  0  0
  1  8  1  0
  1 12  4  0
  1 14  4  0
  2  3  4  0
  2 18  4  0
  3 20  4  0
  3 22  4  0
  4 11  4  0
  4 21  4  0
  5  9  4  0
  5 16  4  0
  6 15  4  0
  6 16  4  0
  7 22  4  0
  7 26  4  0
  8 10  4  0
  8 25  4  0
  9 15  4  0
  9 17  1  0
 10 21  4  0
 11 25  4  0
 12 23  4  0
 13 20  4  0
 13 26  4  0
 14 19  4  0
 17 18  4  0
 17 24  4  0
 19 23  4  0
 20 24  4  0
 23 26  1  0
M  END
$$$$

 Created by Python create_sdf_string function

 26 30  0  0  0  0  0  0  0  0999 V2000
   10.0084   -1.8019   23.4945 C   0  0  0  0  0  0  0  0  0  0  0  0
   10.0005   -4.2520   16.5631 C   0  0  0  0  0  0  0  0  0  0  0  0
   10.2759   -4.0036   17.8845 C   0  0  0  0  0  0  0  0  0  0  0  0
    8.5652    1.5478   25.3778 N   0  0  0  0  0  0  0  0  0  0  0  0
    6.8048   -7.5457   17.8752 C   0  0  0  0  0  0  0  0  0  0  0  0
    6.1721   -8.2186   15.9886 N   0  0  0  0  0  0  0  0  0  0  0  0
   11.1764   -2.6600   19.5604 C   0  0  0  0  0  0  0  0  0  0  0  0
    9.5491   -0.6380   24.1912 C   0  0  0  0  0  0  0  0  0  0  0  0
    7.5337   -6.9256   16.9519 C   0  0  0  0  0  0  0  0  0  0  0  0
    9.6782    0.5671   23.5143 C   0  0  0  0  0  0  0  0  0  0  0  0
    8.4532    0.3482   26.0821 C   0  0  0  0  0  0  0  0  0  0  0  0
   10.4239   -1.7677   22.2230 N   0  0  0  0  0  0  0  0  0  0  0  0
    9.9468   -4.5953   20.1709 C   0  0  0  0  0  0  0  0  0  0  0  0
   10.0366   -3.0590   23.9864 N   0  0  0  0  0  0  0  0  0  0  0  0
    7.1191   -7.3636   15.7739 C   0  0  0  0  0  0  0  0  0  0  0  0
    5.9612   -8.3203   17.2732 N   0  0  0  0  0  0  0  0  0  0  0  0
    8.5296   -5.9814   17.1841 C   0  0  0  0  0  0  0  0  0  0  0  0
    9.1527   -5.2118   16.2116 C   0  0  0  0  0  0  0  0  0  0  0  0
   10.3364   -3.8368   22.9255 O   0  0  0  0  0  0  0  0  0  0  0  0
    9.6947   -4.8407   18.8534 C   0  0  0  0  0  0  0  0  0  0  0  0
    9.1596    1.7042   24.1381 C   0  0  0  0  0  0  0  0  0  0  0  0
   11.0456   -2.9774   18.2694 N   0  0  0  0  0  0  0  0  0  0  0  0
   10.4788   -3.0457   21.8593 C   0  0  0  0  0  0  0  0  0  0  0  0
    8.8693   -5.8099   18.4657 N   0  0  0  0  0  0  0  0  0  0  0  0
    8.9892   -0.7926   25.4573 C   0  0  0  0  0  0  0  0  0  0  0  0
   10.5677   -3.4462   20.5323 C   0  0  0  0  0  0  0  0  0  0  0  0
  1  8  1  0
  1 12  4  0
  1 14  4  0
  2  3  4  0
  2 18  4  0
  3 20  4  0
  3 22  4  0
  4 11  4  0
  4 21  4  0
  5  9  4  0
  5 16  4  0
  6 15  4  0
  6 16  4  0
  7 22  4  0
  7 26  4  0
  8 10  4  0
  8 25  4  0
  9 15  4  0
  9 17  1  0
 10 21  4  0
 11 25  4  0
 12 23  4  0
 13 20  4  0
 13 26  4  0
 14 19  4  0
 17 18  4  0
 17 24  4  0
 19 23  4  0
 20 24  4  0
 23 26  1  0
M  END
$$$$

 Created by Python create_sdf_string function

 26 30  0  0  0  0  0  0  0  0999 V2000
   10.0084   -1.8019   23.4945 C   0  0  0  0  0  0  0  0  0  0  0  0
   10.0005   -4.2520   16.5631 C   0  0  0  0  0  0  0  0  0  0  0  0
   10.2759   -4.0036   17.8845 C   0  0  0  0  0  0  0  0  0  0  0  0
    8.5652    1.5478   25.3778 N   0  0  0  0  0  0  0  0  0  0  0  0
    6.8048   -7.5457   17.8752 C   0  0  0  0  0  0  0  0  0  0  0  0
    6.1721   -8.2186   15.9886 N   0  0  0  0  0  0  0  0  0  0  0  0
   11.1764   -2.6600   19.5604 C   0  0  0  0  0  0  0  0  0  0  0  0
    9.5491   -0.6380   24.1912 C   0  0  0  0  0  0  0  0  0  0  0  0
    7.5337   -6.9256   16.9519 C   0  0  0  0  0  0  0  0  0  0  0  0
    9.6782    0.5671   23.5143 C   0  0  0  0  0  0  0  0  0  0  0  0
    8.4532    0.3482   26.0821 C   0  0  0  0  0  0  0  0  0  0  0  0
   10.4239   -1.7677   22.2230 N   0  0  0  0  0  0  0  0  0  0  0  0
    9.9468   -4.5953   20.1709 C   0  0  0  0  0  0  0  0  0  0  0  0
   10.0366   -3.0590   23.9864 N   0  0  0  0  0  0  0  0  0  0  0  0
    7.1191   -7.3636   15.7739 C   0  0  0  0  0  0  0  0  0  0  0  0
    5.9612   -8.3203   17.2732 N   0  0  0  0  0  0  0  0  0  0  0  0
    8.5296   -5.9814   17.1841 C   0  0  0  0  0  0  0  0  0  0  0  0
    9.1527   -5.2118   16.2116 C   0  0  0  0  0  0  0  0  0  0  0  0
   10.3364   -3.8368   22.9255 O   0  0  0  0  0  0  0  0  0  0  0  0
    9.6947   -4.8407   18.8534 C   0  0  0  0  0  0  0  0  0  0  0  0
    9.1596    1.7042   24.1381 C   0  0  0  0  0  0  0  0  0  0  0  0
   11.0456   -2.9774   18.2694 N   0  0  0  0  0  0  0  0  0  0  0  0
   10.4788   -3.0457   21.8593 C   0  0  0  0  0  0  0  0  0  0  0  0
    8.8693   -5.8099   18.4657 N   0  0  0  0  0  0  0  0  0  0  0  0
    8.9892   -0.7926   25.4573 C   0  0  0  0  0  0  0  0  0  0  0  0
   10.5677   -3.4462   20.5323 C   0  0  0  0  0  0  0  0  0  0  0  0
  1  8  1  0
  1 12  4  0
  1 14  4  0
  2  3  4  0
  2 18  4  0
  3 20  4  0
  3 22  4  0
  4 11  4  0
  4 21  4  0
  5  9  4  0
  5 16  4  0
  6 15  4  0
  6 16  4  0
  7 22  4  0
  7 26  4  0
  8 10  4  0
  8 25  4  0
  9 15  4  0
  9 17  1  0
 10 21  4  0
 11 25  4  0
 12 23  4  0
 13 20  4  0
 13 26  4  0
 14 19  4  0
 17 18  4  0
 17 24  4  0
 19 23  4  0
 20 24  4  0
 23 26  1  0
M  END
$$$$

 Created by Python create_sdf_string function

 26 30  0  0  0  0  0  0  0  0999 V2000
   10.0084   -1.8019   23.4945 C   0  0  0  0  0  0  0  0  0  0  0  0
   10.0005   -4.2520   16.5631 C   0  0  0  0  0  0  0  0  0  0  0  0
   10.2759   -4.0036   17.8845 C   0  0  0  0  0  0  0  0  0  0  0  0
    8.5652    1.5478   25.3778 N   0  0  0  0  0  0  0  0  0  0  0  0
    6.8048   -7.5457   17.8752 C   0  0  0  0  0  0  0  0  0  0  0  0
    6.1721   -8.2186   15.9886 N   0  0  0  0  0  0  0  0  0  0  0  0
   11.1764   -2.6600   19.5604 C   0  0  0  0  0  0  0  0  0  0  0  0
    9.5491   -0.6380   24.1912 C   0  0  0  0  0  0  0  0  0  0  0  0
    7.5337   -6.9256   16.9519 C   0  0  0  0  0  0  0  0  0  0  0  0
    9.6782    0.5671   23.5143 C   0  0  0  0  0  0  0  0  0  0  0  0
    8.4532    0.3482   26.0821 C   0  0  0  0  0  0  0  0  0  0  0  0
   10.4239   -1.7677   22.2230 N   0  0  0  0  0  0  0  0  0  0  0  0
    9.9468   -4.5953   20.1709 C   0  0  0  0  0  0  0  0  0  0  0  0
   10.0366   -3.0590   23.9864 N   0  0  0  0  0  0  0  0  0  0  0  0
    7.1191   -7.3636   15.7739 C   0  0  0  0  0  0  0  0  0  0  0  0
    5.9612   -8.3203   17.2732 N   0  0  0  0  0  0  0  0  0  0  0  0
    8.5296   -5.9814   17.1841 C   0  0  0  0  0  0  0  0  0  0  0  0
    9.1527   -5.2118   16.2116 C   0  0  0  0  0  0  0  0  0  0  0  0
   10.3364   -3.8368   22.9255 O   0  0  0  0  0  0  0  0  0  0  0  0
    9.6947   -4.8407   18.8534 C   0  0  0  0  0  0  0  0  0  0  0  0
    9.1596    1.7042   24.1381 C   0  0  0  0  0  0  0  0  0  0  0  0
   11.0456   -2.9774   18.2694 N   0  0  0  0  0  0  0  0  0  0  0  0
   10.4788   -3.0457   21.8593 C   0  0  0  0  0  0  0  0  0  0  0  0
    8.8693   -5.8099   18.4657 N   0  0  0  0  0  0  0  0  0  0  0  0
    8.9892   -0.7926   25.4573 C   0  0  0  0  0  0  0  0  0  0  0  0
   10.5677   -3.4462   20.5323 C   0  0  0  0  0  0  0  0  0  0  0  0
  1  8  1  0
  1 12  4  0
  1 14  4  0
  2  3  4  0
  2 18  4  0
  3 20  4  0
  3 22  4  0
  4 11  4  0
  4 21  4  0
  5  9  4  0
  5 16  4  0
  6 15  4  0
  6 16  4  0
  7 22  4  0
  7 26  4  0
  8 10  4  0
  8 25  4  0
  9 15  4  0
  9 17  1  0
 10 21  4  0
 11 25  4  0
 12 23  4  0
 13 20  4  0
 13 26  4  0
 14 19  4  0
 17 18  4  0
 17 24  4  0
 19 23  4  0
 20 24  4  0
 23 26  1  0
M  END
$$$$

 Created by Python create_sdf_string function

 26 30  0  0  0  0  0  0  0  0999 V2000
   10.0084   -1.8019   23.4945 C   0  0  0  0  0  0  0  0  0  0  0  0
   10.0005   -4.2520   16.5631 C   0  0  0  0  0  0  0  0  0  0  0  0
   10.2759   -4.0036   17.8845 C   0  0  0  0  0  0  0  0  0  0  0  0
    8.5652    1.5478   25.3778 N   0  0  0  0  0  0  0  0  0  0  0  0
    6.8048   -7.5457   17.8752 C   0  0  0  0  0  0  0  0  0  0  0  0
    6.1721   -8.2186   15.9886 N   0  0  0  0  0  0  0  0  0  0  0  0
   11.1764   -2.6600   19.5604 C   0  0  0  0  0  0  0  0  0  0  0  0
    9.5491   -0.6380   24.1912 C   0  0  0  0  0  0  0  0  0  0  0  0
    7.5337   -6.9256   16.9519 C   0  0  0  0  0  0  0  0  0  0  0  0
    9.6782    0.5671   23.5143 C   0  0  0  0  0  0  0  0  0  0  0  0
    8.4532    0.3482   26.0821 C   0  0  0  0  0  0  0  0  0  0  0  0
   10.4239   -1.7677   22.2230 N   0  0  0  0  0  0  0  0  0  0  0  0
    9.9468   -4.5953   20.1709 C   0  0  0  0  0  0  0  0  0  0  0  0
   10.0366   -3.0590   23.9864 N   0  0  0  0  0  0  0  0  0  0  0  0
    7.1191   -7.3636   15.7739 C   0  0  0  0  0  0  0  0  0  0  0  0
    5.9612   -8.3203   17.2732 N   0  0  0  0  0  0  0  0  0  0  0  0
    8.5296   -5.9814   17.1841 C   0  0  0  0  0  0  0  0  0  0  0  0
    9.1527   -5.2118   16.2116 C   0  0  0  0  0  0  0  0  0  0  0  0
   10.3364   -3.8368   22.9255 O   0  0  0  0  0  0  0  0  0  0  0  0
    9.6947   -4.8407   18.8534 C   0  0  0  0  0  0  0  0  0  0  0  0
    9.1596    1.7042   24.1381 C   0  0  0  0  0  0  0  0  0  0  0  0
   11.0456   -2.9774   18.2694 N   0  0  0  0  0  0  0  0  0  0  0  0
   10.4788   -3.0457   21.8593 C   0  0  0  0  0  0  0  0  0  0  0  0
    8.8693   -5.8099   18.4657 N   0  0  0  0  0  0  0  0  0  0  0  0
    8.9892   -0.7926   25.4573 C   0  0  0  0  0  0  0  0  0  0  0  0
   10.5677   -3.4462   20.5323 C   0  0  0  0  0  0  0  0  0  0  0  0
  1  8  1  0
  1 12  4  0
  1 14  4  0
  2  3  4  0
  2 18  4  0
  3 20  4  0
  3 22  4  0
  4 11  4  0
  4 21  4  0
  5  9  4  0
  5 16  4  0
  6 15  4  0
  6 16  4  0
  7 22  4  0
  7 26  4  0
  8 10  4  0
  8 25  4  0
  9 15  4  0
  9 17  1  0
 10 21  4  0
 11 25  4  0
 12 23  4  0
 13 20  4  0
 13 26  4  0
 14 19  4  0
 17 18  4  0
 17 24  4  0
 19 23  4  0
 20 24  4  0
 23 26  1  0
M  END
$$$$

 Created by Python create_sdf_string function

 26 30  0  0  0  0  0  0  0  0999 V2000
   10.0084   -1.8019   23.4945 C   0  0  0  0  0  0  0  0  0  0  0  0
   10.0005   -4.2520   16.5631 C   0  0  0  0  0  0  0  0  0  0  0  0
   10.2759   -4.0036   17.8845 C   0  0  0  0  0  0  0  0  0  0  0  0
    8.5652    1.5478   25.3778 N   0  0  0  0  0  0  0  0  0  0  0  0
    6.8048   -7.5457   17.8752 C   0  0  0  0  0  0  0  0  0  0  0  0
    6.1721   -8.2186   15.9886 N   0  0  0  0  0  0  0  0  0  0  0  0
   11.1764   -2.6600   19.5604 C   0  0  0  0  0  0  0  0  0  0  0  0
    9.5491   -0.6380   24.1912 C   0  0  0  0  0  0  0  0  0  0  0  0
    7.5337   -6.9256   16.9519 C   0  0  0  0  0  0  0  0  0  0  0  0
    9.6782    0.5671   23.5143 C   0  0  0  0  0  0  0  0  0  0  0  0
    8.4532    0.3482   26.0821 C   0  0  0  0  0  0  0  0  0  0  0  0
   10.4239   -1.7677   22.2230 N   0  0  0  0  0  0  0  0  0  0  0  0
    9.9468   -4.5953   20.1709 C   0  0  0  0  0  0  0  0  0  0  0  0
   10.0366   -3.0590   23.9864 N   0  0  0  0  0  0  0  0  0  0  0  0
    7.1191   -7.3636   15.7739 C   0  0  0  0  0  0  0  0  0  0  0  0
    5.9612   -8.3203   17.2732 N   0  0  0  0  0  0  0  0  0  0  0  0
    8.5296   -5.9814   17.1841 C   0  0  0  0  0  0  0  0  0  0  0  0
    9.1527   -5.2118   16.2116 C   0  0  0  0  0  0  0  0  0  0  0  0
   10.3364   -3.8368   22.9255 O   0  0  0  0  0  0  0  0  0  0  0  0
    9.6947   -4.8407   18.8534 C   0  0  0  0  0  0  0  0  0  0  0  0
    9.1596    1.7042   24.1381 C   0  0  0  0  0  0  0  0  0  0  0  0
   11.0456   -2.9774   18.2694 N   0  0  0  0  0  0  0  0  0  0  0  0
   10.4788   -3.0457   21.8593 C   0  0  0  0  0  0  0  0  0  0  0  0
    8.8693   -5.8099   18.4657 N   0  0  0  0  0  0  0  0  0  0  0  0
    8.9892   -0.7926   25.4573 C   0  0  0  0  0  0  0  0  0  0  0  0
   10.5677   -3.4462   20.5323 C   0  0  0  0  0  0  0  0  0  0  0  0
  1  8  1  0
  1 12  4  0
  1 14  4  0
  2  3  4  0
  2 18  4  0
  3 20  4  0
  3 22  4  0
  4 11  4  0
  4 21  4  0
  5  9  4  0
  5 16  4  0
  6 15  4  0
  6 16  4  0
  7 22  4  0
  7 26  4  0
  8 10  4  0
  8 25  4  0
  9 15  4  0
  9 17  1  0
 10 21  4  0
 11 25  4  0
 12 23  4  0
 13 20  4  0
 13 26  4  0
 14 19  4  0
 17 18  4  0
 17 24  4  0
 19 23  4  0
 20 24  4  0
 23 26  1  0
M  END
$$$$

 Created by Python create_sdf_string function

 26 30  0  0  0  0  0  0  0  0999 V2000
   10.0084   -1.8019   23.4945 C   0  0  0  0  0  0  0  0  0  0  0  0
   10.0005   -4.2520   16.5631 C   0  0  0  0  0  0  0  0  0  0  0  0
   10.2759   -4.0036   17.8845 C   0  0  0  0  0  0  0  0  0  0  0  0
    8.5652    1.5478   25.3778 N   0  0  0  0  0  0  0  0  0  0  0  0
    6.8048   -7.5457   17.8752 C   0  0  0  0  0  0  0  0  0  0  0  0
    6.1721   -8.2186   15.9886 N   0  0  0  0  0  0  0  0  0  0  0  0
   11.1764   -2.6600   19.5604 C   0  0  0  0  0  0  0  0  0  0  0  0
    9.5491   -0.6380   24.1912 C   0  0  0  0  0  0  0  0  0  0  0  0
    7.5337   -6.9256   16.9519 C   0  0  0  0  0  0  0  0  0  0  0  0
    9.6782    0.5671   23.5143 C   0  0  0  0  0  0  0  0  0  0  0  0
    8.4532    0.3482   26.0821 C   0  0  0  0  0  0  0  0  0  0  0  0
   10.4239   -1.7677   22.2230 N   0  0  0  0  0  0  0  0  0  0  0  0
    9.9468   -4.5953   20.1709 C   0  0  0  0  0  0  0  0  0  0  0  0
   10.0366   -3.0590   23.9864 N   0  0  0  0  0  0  0  0  0  0  0  0
    7.1191   -7.3636   15.7739 C   0  0  0  0  0  0  0  0  0  0  0  0
    5.9612   -8.3203   17.2732 N   0  0  0  0  0  0  0  0  0  0  0  0
    8.5296   -5.9814   17.1841 C   0  0  0  0  0  0  0  0  0  0  0  0
    9.1527   -5.2118   16.2116 C   0  0  0  0  0  0  0  0  0  0  0  0
   10.3364   -3.8368   22.9255 O   0  0  0  0  0  0  0  0  0  0  0  0
    9.6947   -4.8407   18.8534 C   0  0  0  0  0  0  0  0  0  0  0  0
    9.1596    1.7042   24.1381 C   0  0  0  0  0  0  0  0  0  0  0  0
   11.0456   -2.9774   18.2694 N   0  0  0  0  0  0  0  0  0  0  0  0
   10.4788   -3.0457   21.8593 C   0  0  0  0  0  0  0  0  0  0  0  0
    8.8693   -5.8099   18.4657 N   0  0  0  0  0  0  0  0  0  0  0  0
    8.9892   -0.7926   25.4573 C   0  0  0  0  0  0  0  0  0  0  0  0
   10.5677   -3.4462   20.5323 C   0  0  0  0  0  0  0  0  0  0  0  0
  1  8  1  0
  1 12  4  0
  1 14  4  0
  2  3  4  0
  2 18  4  0
  3 20  4  0
  3 22  4  0
  4 11  4  0
  4 21  4  0
  5  9  4  0
  5 16  4  0
  6 15  4  0
  6 16  4  0
  7 22  4  0
  7 26  4  0
  8 10  4  0
  8 25  4  0
  9 15  4  0
  9 17  1  0
 10 21  4  0
 11 25  4  0
 12 23  4  0
 13 20  4  0
 13 26  4  0
 14 19  4  0
 17 18  4  0
 17 24  4  0
 19 23  4  0
 20 24  4  0
 23 26  1  0
M  END
$$$$

 Created by Python create_sdf_string function

 26 30  0  0  0  0  0  0  0  0999 V2000
   10.0084   -1.8019   23.4945 C   0  0  0  0  0  0  0  0  0  0  0  0
   10.0005   -4.2520   16.5631 C   0  0  0  0  0  0  0  0  0  0  0  0
   10.2759   -4.0036   17.8845 C   0  0  0  0  0  0  0  0  0  0  0  0
    8.5652    1.5478   25.3778 N   0  0  0  0  0  0  0  0  0  0  0  0
    6.8048   -7.5457   17.8752 C   0  0  0  0  0  0  0  0  0  0  0  0
    6.1721   -8.2186   15.9886 N   0  0  0  0  0  0  0  0  0  0  0  0
   11.1764   -2.6600   19.5604 C   0  0  0  0  0  0  0  0  0  0  0  0
    9.5491   -0.6380   24.1912 C   0  0  0  0  0  0  0  0  0  0  0  0
    7.5337   -6.9256   16.9519 C   0  0  0  0  0  0  0  0  0  0  0  0
    9.6782    0.5671   23.5143 C   0  0  0  0  0  0  0  0  0  0  0  0
    8.4532    0.3482   26.0821 C   0  0  0  0  0  0  0  0  0  0  0  0
   10.4239   -1.7677   22.2230 N   0  0  0  0  0  0  0  0  0  0  0  0
    9.9468   -4.5953   20.1709 C   0  0  0  0  0  0  0  0  0  0  0  0
   10.0366   -3.0590   23.9864 N   0  0  0  0  0  0  0  0  0  0  0  0
    7.1191   -7.3636   15.7739 C   0  0  0  0  0  0  0  0  0  0  0  0
    5.9612   -8.3203   17.2732 N   0  0  0  0  0  0  0  0  0  0  0  0
    8.5296   -5.9814   17.1841 C   0  0  0  0  0  0  0  0  0  0  0  0
    9.1527   -5.2118   16.2116 C   0  0  0  0  0  0  0  0  0  0  0  0
   10.3364   -3.8368   22.9255 O   0  0  0  0  0  0  0  0  0  0  0  0
    9.6947   -4.8407   18.8534 C   0  0  0  0  0  0  0  0  0  0  0  0
    9.1596    1.7042   24.1381 C   0  0  0  0  0  0  0  0  0  0  0  0
   11.0456   -2.9774   18.2694 N   0  0  0  0  0  0  0  0  0  0  0  0
   10.4788   -3.0457   21.8593 C   0  0  0  0  0  0  0  0  0  0  0  0
    8.8693   -5.8099   18.4657 N   0  0  0  0  0  0  0  0  0  0  0  0
    8.9892   -0.7926   25.4573 C   0  0  0  0  0  0  0  0  0  0  0  0
   10.5677   -3.4462   20.5323 C   0  0  0  0  0  0  0  0  0  0  0  0
  1  8  1  0
  1 12  4  0
  1 14  4  0
  2  3  4  0
  2 18  4  0
  3 20  4  0
  3 22  4  0
  4 11  4  0
  4 21  4  0
  5  9  4  0
  5 16  4  0
  6 15  4  0
  6 16  4  0
  7 22  4  0
  7 26  4  0
  8 10  4  0
  8 25  4  0
  9 15  4  0
  9 17  1  0
 10 21  4  0
 11 25  4  0
 12 23  4  0
 13 20  4  0
 13 26  4  0
 14 19  4  0
 17 18  4  0
 17 24  4  0
 19 23  4  0
 20 24  4  0
 23 26  1  0
M  END
$$$$

 Created by Python create_sdf_string function

 26 30  0  0  0  0  0  0  0  0999 V2000
   10.0084   -1.8019   23.4945 C   0  0  0  0  0  0  0  0  0  0  0  0
   10.0005   -4.2520   16.5631 C   0  0  0  0  0  0  0  0  0  0  0  0
   10.2759   -4.0036   17.8845 C   0  0  0  0  0  0  0  0  0  0  0  0
    8.5652    1.5478   25.3778 N   0  0  0  0  0  0  0  0  0  0  0  0
    6.8048   -7.5457   17.8752 C   0  0  0  0  0  0  0  0  0  0  0  0
    6.1721   -8.2186   15.9886 N   0  0  0  0  0  0  0  0  0  0  0  0
   11.1764   -2.6600   19.5604 C   0  0  0  0  0  0  0  0  0  0  0  0
    9.5491   -0.6380   24.1912 C   0  0  0  0  0  0  0  0  0  0  0  0
    7.5337   -6.9256   16.9519 C   0  0  0  0  0  0  0  0  0  0  0  0
    9.6782    0.5671   23.5143 C   0  0  0  0  0  0  0  0  0  0  0  0
    8.4532    0.3482   26.0821 C   0  0  0  0  0  0  0  0  0  0  0  0
   10.4239   -1.7677   22.2230 N   0  0  0  0  0  0  0  0  0  0  0  0
    9.9468   -4.5953   20.1709 C   0  0  0  0  0  0  0  0  0  0  0  0
   10.0366   -3.0590   23.9864 N   0  0  0  0  0  0  0  0  0  0  0  0
    7.1191   -7.3636   15.7739 C   0  0  0  0  0  0  0  0  0  0  0  0
    5.9612   -8.3203   17.2732 N   0  0  0  0  0  0  0  0  0  0  0  0
    8.5296   -5.9814   17.1841 C   0  0  0  0  0  0  0  0  0  0  0  0
    9.1527   -5.2118   16.2116 C   0  0  0  0  0  0  0  0  0  0  0  0
   10.3364   -3.8368   22.9255 O   0  0  0  0  0  0  0  0  0  0  0  0
    9.6947   -4.8407   18.8534 C   0  0  0  0  0  0  0  0  0  0  0  0
    9.1596    1.7042   24.1381 C   0  0  0  0  0  0  0  0  0  0  0  0
   11.0456   -2.9774   18.2694 N   0  0  0  0  0  0  0  0  0  0  0  0
   10.4788   -3.0457   21.8593 C   0  0  0  0  0  0  0  0  0  0  0  0
    8.8693   -5.8099   18.4657 N   0  0  0  0  0  0  0  0  0  0  0  0
    8.9892   -0.7926   25.4573 C   0  0  0  0  0  0  0  0  0  0  0  0
   10.5677   -3.4462   20.5323 C   0  0  0  0  0  0  0  0  0  0  0  0
  1  8  1  0
  1 12  4  0
  1 14  4  0
  2  3  4  0
  2 18  4  0
  3 20  4  0
  3 22  4  0
  4 11  4  0
  4 21  4  0
  5  9  4  0
  5 16  4  0
  6 15  4  0
  6 16  4  0
  7 22  4  0
  7 26  4  0
  8 10  4  0
  8 25  4  0
  9 15  4  0
  9 17  1  0
 10 21  4  0
 11 25  4  0
 12 23  4  0
 13 20  4  0
 13 26  4  0
 14 19  4  0
 17 18  4  0
 17 24  4  0
 19 23  4  0
 20 24  4  0
 23 26  1  0
M  END
$$$$

 Created by Python create_sdf_string function

 26 30  0  0  0  0  0  0  0  0999 V2000
   10.0084   -1.8019   23.4945 C   0  0  0  0  0  0  0  0  0  0  0  0
   10.0005   -4.2520   16.5631 C   0  0  0  0  0  0  0  0  0  0  0  0
   10.2759   -4.0036   17.8845 C   0  0  0  0  0  0  0  0  0  0  0  0
    8.5652    1.5478   25.3778 N   0  0  0  0  0  0  0  0  0  0  0  0
    6.8048   -7.5457   17.8752 C   0  0  0  0  0  0  0  0  0  0  0  0
    6.1721   -8.2186   15.9886 N   0  0  0  0  0  0  0  0  0  0  0  0
   11.1764   -2.6600   19.5604 C   0  0  0  0  0  0  0  0  0  0  0  0
    9.5491   -0.6380   24.1912 C   0  0  0  0  0  0  0  0  0  0  0  0
    7.5337   -6.9256   16.9519 C   0  0  0  0  0  0  0  0  0  0  0  0
    9.6782    0.5671   23.5143 C   0  0  0  0  0  0  0  0  0  0  0  0
    8.4532    0.3482   26.0821 C   0  0  0  0  0  0  0  0  0  0  0  0
   10.4239   -1.7677   22.2230 N   0  0  0  0  0  0  0  0  0  0  0  0
    9.9468   -4.5953   20.1709 C   0  0  0  0  0  0  0  0  0  0  0  0
   10.0366   -3.0590   23.9864 N   0  0  0  0  0  0  0  0  0  0  0  0
    7.1191   -7.3636   15.7739 C   0  0  0  0  0  0  0  0  0  0  0  0
    5.9612   -8.3203   17.2732 N   0  0  0  0  0  0  0  0  0  0  0  0
    8.5296   -5.9814   17.1841 C   0  0  0  0  0  0  0  0  0  0  0  0
    9.1527   -5.2118   16.2116 C   0  0  0  0  0  0  0  0  0  0  0  0
   10.3364   -3.8368   22.9255 O   0  0  0  0  0  0  0  0  0  0  0  0
    9.6947   -4.8407   18.8534 C   0  0  0  0  0  0  0  0  0  0  0  0
    9.1596    1.7042   24.1381 C   0  0  0  0  0  0  0  0  0  0  0  0
   11.0456   -2.9774   18.2694 N   0  0  0  0  0  0  0  0  0  0  0  0
   10.4788   -3.0457   21.8593 C   0  0  0  0  0  0  0  0  0  0  0  0
    8.8693   -5.8099   18.4657 N   0  0  0  0  0  0  0  0  0  0  0  0
    8.9892   -0.7926   25.4573 C   0  0  0  0  0  0  0  0  0  0  0  0
   10.5677   -3.4462   20.5323 C   0  0  0  0  0  0  0  0  0  0  0  0
  1  8  1  0
  1 12  4  0
  1 14  4  0
  2  3  4  0
  2 18  4  0
  3 20  4  0
  3 22  4  0
  4 11  4  0
  4 21  4  0
  5  9  4  0
  5 16  4  0
  6 15  4  0
  6 16  4  0
  7 22  4  0
  7 26  4  0
  8 10  4  0
  8 25  4  0
  9 15  4  0
  9 17  1  0
 10 21  4  0
 11 25  4  0
 12 23  4  0
 13 20  4  0
 13 26  4  0
 14 19  4  0
 17 18  4  0
 17 24  4  0
 19 23  4  0
 20 24  4  0
 23 26  1  0
M  END
$$$$

 Created by Python create_sdf_string function

 26 30  0  0  0  0  0  0  0  0999 V2000
   10.0084   -1.8019   23.4945 C   0  0  0  0  0  0  0  0  0  0  0  0
   10.0005   -4.2520   16.5631 C   0  0  0  0  0  0  0  0  0  0  0  0
   10.2759   -4.0036   17.8845 C   0  0  0  0  0  0  0  0  0  0  0  0
    8.5652    1.5478   25.3778 N   0  0  0  0  0  0  0  0  0  0  0  0
    6.8048   -7.5457   17.8752 C   0  0  0  0  0  0  0  0  0  0  0  0
    6.1721   -8.2186   15.9886 N   0  0  0  0  0  0  0  0  0  0  0  0
   11.1764   -2.6600   19.5604 C   0  0  0  0  0  0  0  0  0  0  0  0
    9.5491   -0.6380   24.1912 C   0  0  0  0  0  0  0  0  0  0  0  0
    7.5337   -6.9256   16.9519 C   0  0  0  0  0  0  0  0  0  0  0  0
    9.6782    0.5671   23.5143 C   0  0  0  0  0  0  0  0  0  0  0  0
    8.4532    0.3482   26.0821 C   0  0  0  0  0  0  0  0  0  0  0  0
   10.4239   -1.7677   22.2230 N   0  0  0  0  0  0  0  0  0  0  0  0
    9.9468   -4.5953   20.1709 C   0  0  0  0  0  0  0  0  0  0  0  0
   10.0366   -3.0590   23.9864 N   0  0  0  0  0  0  0  0  0  0  0  0
    7.1191   -7.3636   15.7739 C   0  0  0  0  0  0  0  0  0  0  0  0
    5.9612   -8.3203   17.2732 N   0  0  0  0  0  0  0  0  0  0  0  0
    8.5296   -5.9814   17.1841 C   0  0  0  0  0  0  0  0  0  0  0  0
    9.1527   -5.2118   16.2116 C   0  0  0  0  0  0  0  0  0  0  0  0
   10.3364   -3.8368   22.9255 O   0  0  0  0  0  0  0  0  0  0  0  0
    9.6947   -4.8407   18.8534 C   0  0  0  0  0  0  0  0  0  0  0  0
    9.1596    1.7042   24.1381 C   0  0  0  0  0  0  0  0  0  0  0  0
   11.0456   -2.9774   18.2694 N   0  0  0  0  0  0  0  0  0  0  0  0
   10.4788   -3.0457   21.8593 C   0  0  0  0  0  0  0  0  0  0  0  0
    8.8693   -5.8099   18.4657 N   0  0  0  0  0  0  0  0  0  0  0  0
    8.9892   -0.7926   25.4573 C   0  0  0  0  0  0  0  0  0  0  0  0
   10.5677   -3.4462   20.5323 C   0  0  0  0  0  0  0  0  0  0  0  0
  1  8  1  0
  1 12  4  0
  1 14  4  0
  2  3  4  0
  2 18  4  0
  3 20  4  0
  3 22  4  0
  4 11  4  0
  4 21  4  0
  5  9  4  0
  5 16  4  0
  6 15  4  0
  6 16  4  0
  7 22  4  0
  7 26  4  0
  8 10  4  0
  8 25  4  0
  9 15  4  0
  9 17  1  0
 10 21  4  0
 11 25  4  0
 12 23  4  0
 13 20  4  0
 13 26  4  0
 14 19  4  0
 17 18  4  0
 17 24  4  0
 19 23  4  0
 20 24  4  0
 23 26  1  0
M  END
$$$$

 Created by Python create_sdf_string function

 26 30  0  0  0  0  0  0  0  0999 V2000
   10.0084   -1.8019   23.4945 C   0  0  0  0  0  0  0  0  0  0  0  0
   10.0005   -4.2520   16.5631 C   0  0  0  0  0  0  0  0  0  0  0  0
   10.2759   -4.0036   17.8845 C   0  0  0  0  0  0  0  0  0  0  0  0
    8.5652    1.5478   25.3778 N   0  0  0  0  0  0  0  0  0  0  0  0
    6.8048   -7.5457   17.8752 C   0  0  0  0  0  0  0  0  0  0  0  0
    6.1721   -8.2186   15.9886 N   0  0  0  0  0  0  0  0  0  0  0  0
   11.1764   -2.6600   19.5604 C   0  0  0  0  0  0  0  0  0  0  0  0
    9.5491   -0.6380   24.1912 C   0  0  0  0  0  0  0  0  0  0  0  0
    7.5337   -6.9256   16.9519 C   0  0  0  0  0  0  0  0  0  0  0  0
    9.6782    0.5671   23.5143 C   0  0  0  0  0  0  0  0  0  0  0  0
    8.4532    0.3482   26.0821 C   0  0  0  0  0  0  0  0  0  0  0  0
   10.4239   -1.7677   22.2230 N   0  0  0  0  0  0  0  0  0  0  0  0
    9.9468   -4.5953   20.1709 C   0  0  0  0  0  0  0  0  0  0  0  0
   10.0366   -3.0590   23.9864 N   0  0  0  0  0  0  0  0  0  0  0  0
    7.1191   -7.3636   15.7739 C   0  0  0  0  0  0  0  0  0  0  0  0
    5.9612   -8.3203   17.2732 N   0  0  0  0  0  0  0  0  0  0  0  0
    8.5296   -5.9814   17.1841 C   0  0  0  0  0  0  0  0  0  0  0  0
    9.1527   -5.2118   16.2116 C   0  0  0  0  0  0  0  0  0  0  0  0
   10.3364   -3.8368   22.9255 O   0  0  0  0  0  0  0  0  0  0  0  0
    9.6947   -4.8407   18.8534 C   0  0  0  0  0  0  0  0  0  0  0  0
    9.1596    1.7042   24.1381 C   0  0  0  0  0  0  0  0  0  0  0  0
   11.0456   -2.9774   18.2694 N   0  0  0  0  0  0  0  0  0  0  0  0
   10.4788   -3.0457   21.8593 C   0  0  0  0  0  0  0  0  0  0  0  0
    8.8693   -5.8099   18.4657 N   0  0  0  0  0  0  0  0  0  0  0  0
    8.9892   -0.7926   25.4573 C   0  0  0  0  0  0  0  0  0  0  0  0
   10.5677   -3.4462   20.5323 C   0  0  0  0  0  0  0  0  0  0  0  0
  1  8  1  0
  1 12  4  0
  1 14  4  0
  2  3  4  0
  2 18  4  0
  3 20  4  0
  3 22  4  0
  4 11  4  0
  4 21  4  0
  5  9  4  0
  5 16  4  0
  6 15  4  0
  6 16  4  0
  7 22  4  0
  7 26  4  0
  8 10  4  0
  8 25  4  0
  9 15  4  0
  9 17  1  0
 10 21  4  0
 11 25  4  0
 12 23  4  0
 13 20  4  0
 13 26  4  0
 14 19  4  0
 17 18  4  0
 17 24  4  0
 19 23  4  0
 20 24  4  0
 23 26  1  0
M  END
$$$$

 Created by Python create_sdf_string function

 26 30  0  0  0  0  0  0  0  0999 V2000
   10.0084   -1.8019   23.4945 C   0  0  0  0  0  0  0  0  0  0  0  0
   10.0005   -4.2520   16.5631 C   0  0  0  0  0  0  0  0  0  0  0  0
   10.2759   -4.0036   17.8845 C   0  0  0  0  0  0  0  0  0  0  0  0
    8.5652    1.5478   25.3778 N   0  0  0  0  0  0  0  0  0  0  0  0
    6.8048   -7.5457   17.8752 C   0  0  0  0  0  0  0  0  0  0  0  0
    6.1721   -8.2186   15.9886 N   0  0  0  0  0  0  0  0  0  0  0  0
   11.1764   -2.6600   19.5604 C   0  0  0  0  0  0  0  0  0  0  0  0
    9.5491   -0.6380   24.1912 C   0  0  0  0  0  0  0  0  0  0  0  0
    7.5337   -6.9256   16.9519 C   0  0  0  0  0  0  0  0  0  0  0  0
    9.6782    0.5671   23.5143 C   0  0  0  0  0  0  0  0  0  0  0  0
    8.4532    0.3482   26.0821 C   0  0  0  0  0  0  0  0  0  0  0  0
   10.4239   -1.7677   22.2230 N   0  0  0  0  0  0  0  0  0  0  0  0
    9.9468   -4.5953   20.1709 C   0  0  0  0  0  0  0  0  0  0  0  0
   10.0366   -3.0590   23.9864 N   0  0  0  0  0  0  0  0  0  0  0  0
    7.1191   -7.3636   15.7739 C   0  0  0  0  0  0  0  0  0  0  0  0
    5.9612   -8.3203   17.2732 N   0  0  0  0  0  0  0  0  0  0  0  0
    8.5296   -5.9814   17.1841 C   0  0  0  0  0  0  0  0  0  0  0  0
    9.1527   -5.2118   16.2116 C   0  0  0  0  0  0  0  0  0  0  0  0
   10.3364   -3.8368   22.9255 O   0  0  0  0  0  0  0  0  0  0  0  0
    9.6947   -4.8407   18.8534 C   0  0  0  0  0  0  0  0  0  0  0  0
    9.1596    1.7042   24.1381 C   0  0  0  0  0  0  0  0  0  0  0  0
   11.0456   -2.9774   18.2694 N   0  0  0  0  0  0  0  0  0  0  0  0
   10.4788   -3.0457   21.8593 C   0  0  0  0  0  0  0  0  0  0  0  0
    8.8693   -5.8099   18.4657 N   0  0  0  0  0  0  0  0  0  0  0  0
    8.9892   -0.7926   25.4573 C   0  0  0  0  0  0  0  0  0  0  0  0
   10.5677   -3.4462   20.5323 C   0  0  0  0  0  0  0  0  0  0  0  0
  1  8  1  0
  1 12  4  0
  1 14  4  0
  2  3  4  0
  2 18  4  0
  3 20  4  0
  3 22  4  0
  4 11  4  0
  4 21  4  0
  5  9  4  0
  5 16  4  0
  6 15  4  0
  6 16  4  0
  7 22  4  0
  7 26  4  0
  8 10  4  0
  8 25  4  0
  9 15  4  0
  9 17  1  0
 10 21  4  0
 11 25  4  0
 12 23  4  0
 13 20  4  0
 13 26  4  0
 14 19  4  0
 17 18  4  0
 17 24  4  0
 19 23  4  0
 20 24  4  0
 23 26  1  0
M  END
$$$$

 Created by Python create_sdf_string function

 26 30  0  0  0  0  0  0  0  0999 V2000
   10.0084   -1.8019   23.4945 C   0  0  0  0  0  0  0  0  0  0  0  0
   10.0005   -4.2520   16.5631 C   0  0  0  0  0  0  0  0  0  0  0  0
   10.2759   -4.0036   17.8845 C   0  0  0  0  0  0  0  0  0  0  0  0
    8.5652    1.5478   25.3778 N   0  0  0  0  0  0  0  0  0  0  0  0
    6.8048   -7.5457   17.8752 C   0  0  0  0  0  0  0  0  0  0  0  0
    6.1721   -8.2186   15.9886 N   0  0  0  0  0  0  0  0  0  0  0  0
   11.1764   -2.6600   19.5604 C   0  0  0  0  0  0  0  0  0  0  0  0
    9.5491   -0.6380   24.1912 C   0  0  0  0  0  0  0  0  0  0  0  0
    7.5337   -6.9256   16.9519 C   0  0  0  0  0  0  0  0  0  0  0  0
    9.6782    0.5671   23.5143 C   0  0  0  0  0  0  0  0  0  0  0  0
    8.4532    0.3482   26.0821 C   0  0  0  0  0  0  0  0  0  0  0  0
   10.4239   -1.7677   22.2230 N   0  0  0  0  0  0  0  0  0  0  0  0
    9.9468   -4.5953   20.1709 C   0  0  0  0  0  0  0  0  0  0  0  0
   10.0366   -3.0590   23.9864 N   0  0  0  0  0  0  0  0  0  0  0  0
    7.1191   -7.3636   15.7739 C   0  0  0  0  0  0  0  0  0  0  0  0
    5.9612   -8.3203   17.2732 N   0  0  0  0  0  0  0  0  0  0  0  0
    8.5296   -5.9814   17.1841 C   0  0  0  0  0  0  0  0  0  0  0  0
    9.1527   -5.2118   16.2116 C   0  0  0  0  0  0  0  0  0  0  0  0
   10.3364   -3.8368   22.9255 O   0  0  0  0  0  0  0  0  0  0  0  0
    9.6947   -4.8407   18.8534 C   0  0  0  0  0  0  0  0  0  0  0  0
    9.1596    1.7042   24.1381 C   0  0  0  0  0  0  0  0  0  0  0  0
   11.0456   -2.9774   18.2694 N   0  0  0  0  0  0  0  0  0  0  0  0
   10.4788   -3.0457   21.8593 C   0  0  0  0  0  0  0  0  0  0  0  0
    8.8693   -5.8099   18.4657 N   0  0  0  0  0  0  0  0  0  0  0  0
    8.9892   -0.7926   25.4573 C   0  0  0  0  0  0  0  0  0  0  0  0
   10.5677   -3.4462   20.5323 C   0  0  0  0  0  0  0  0  0  0  0  0
  1  8  1  0
  1 12  4  0
  1 14  4  0
  2  3  4  0
  2 18  4  0
  3 20  4  0
  3 22  4  0
  4 11  4  0
  4 21  4  0
  5  9  4  0
  5 16  4  0
  6 15  4  0
  6 16  4  0
  7 22  4  0
  7 26  4  0
  8 10  4  0
  8 25  4  0
  9 15  4  0
  9 17  1  0
 10 21  4  0
 11 25  4  0
 12 23  4  0
 13 20  4  0
 13 26  4  0
 14 19  4  0
 17 18  4  0
 17 24  4  0
 19 23  4  0
 20 24  4  0
 23 26  1  0
M  END
$$$$

 Created by Python create_sdf_string function

 26 30  0  0  0  0  0  0  0  0999 V2000
   10.0084   -1.8019   23.4945 C   0  0  0  0  0  0  0  0  0  0  0  0
   10.0005   -4.2520   16.5631 C   0  0  0  0  0  0  0  0  0  0  0  0
   10.2759   -4.0036   17.8845 C   0  0  0  0  0  0  0  0  0  0  0  0
    8.5652    1.5478   25.3778 N   0  0  0  0  0  0  0  0  0  0  0  0
    6.8048   -7.5457   17.8752 C   0  0  0  0  0  0  0  0  0  0  0  0
    6.1721   -8.2186   15.9886 N   0  0  0  0  0  0  0  0  0  0  0  0
   11.1764   -2.6600   19.5604 C   0  0  0  0  0  0  0  0  0  0  0  0
    9.5491   -0.6380   24.1912 C   0  0  0  0  0  0  0  0  0  0  0  0
    7.5337   -6.9256   16.9519 C   0  0  0  0  0  0  0  0  0  0  0  0
    9.6782    0.5671   23.5143 C   0  0  0  0  0  0  0  0  0  0  0  0
    8.4532    0.3482   26.0821 C   0  0  0  0  0  0  0  0  0  0  0  0
   10.4239   -1.7677   22.2230 N   0  0  0  0  0  0  0  0  0  0  0  0
    9.9468   -4.5953   20.1709 C   0  0  0  0  0  0  0  0  0  0  0  0
   10.0366   -3.0590   23.9864 N   0  0  0  0  0  0  0  0  0  0  0  0
    7.1191   -7.3636   15.7739 C   0  0  0  0  0  0  0  0  0  0  0  0
    5.9612   -8.3203   17.2732 N   0  0  0  0  0  0  0  0  0  0  0  0
    8.5296   -5.9814   17.1841 C   0  0  0  0  0  0  0  0  0  0  0  0
    9.1527   -5.2118   16.2116 C   0  0  0  0  0  0  0  0  0  0  0  0
   10.3364   -3.8368   22.9255 O   0  0  0  0  0  0  0  0  0  0  0  0
    9.6947   -4.8407   18.8534 C   0  0  0  0  0  0  0  0  0  0  0  0
    9.1596    1.7042   24.1381 C   0  0  0  0  0  0  0  0  0  0  0  0
   11.0456   -2.9774   18.2694 N   0  0  0  0  0  0  0  0  0  0  0  0
   10.4788   -3.0457   21.8593 C   0  0  0  0  0  0  0  0  0  0  0  0
    8.8693   -5.8099   18.4657 N   0  0  0  0  0  0  0  0  0  0  0  0
    8.9892   -0.7926   25.4573 C   0  0  0  0  0  0  0  0  0  0  0  0
   10.5677   -3.4462   20.5323 C   0  0  0  0  0  0  0  0  0  0  0  0
  1  8  1  0
  1 12  4  0
  1 14  4  0
  2  3  4  0
  2 18  4  0
  3 20  4  0
  3 22  4  0
  4 11  4  0
  4 21  4  0
  5  9  4  0
  5 16  4  0
  6 15  4  0
  6 16  4  0
  7 22  4  0
  7 26  4  0
  8 10  4  0
  8 25  4  0
  9 15  4  0
  9 17  1  0
 10 21  4  0
 11 25  4  0
 12 23  4  0
 13 20  4  0
 13 26  4  0
 14 19  4  0
 17 18  4  0
 17 24  4  0
 19 23  4  0
 20 24  4  0
 23 26  1  0
M  END
$$$$

 Created by Python create_sdf_string function

 26 30  0  0  0  0  0  0  0  0999 V2000
   10.0084   -1.8019   23.4945 C   0  0  0  0  0  0  0  0  0  0  0  0
   10.0005   -4.2520   16.5631 C   0  0  0  0  0  0  0  0  0  0  0  0
   10.2759   -4.0036   17.8845 C   0  0  0  0  0  0  0  0  0  0  0  0
    8.5652    1.5478   25.3778 N   0  0  0  0  0  0  0  0  0  0  0  0
    6.8048   -7.5457   17.8752 C   0  0  0  0  0  0  0  0  0  0  0  0
    6.1721   -8.2186   15.9886 N   0  0  0  0  0  0  0  0  0  0  0  0
   11.1764   -2.6600   19.5604 C   0  0  0  0  0  0  0  0  0  0  0  0
    9.5491   -0.6380   24.1912 C   0  0  0  0  0  0  0  0  0  0  0  0
    7.5337   -6.9256   16.9519 C   0  0  0  0  0  0  0  0  0  0  0  0
    9.6782    0.5671   23.5143 C   0  0  0  0  0  0  0  0  0  0  0  0
    8.4532    0.3482   26.0821 C   0  0  0  0  0  0  0  0  0  0  0  0
   10.4239   -1.7677   22.2230 N   0  0  0  0  0  0  0  0  0  0  0  0
    9.9468   -4.5953   20.1709 C   0  0  0  0  0  0  0  0  0  0  0  0
   10.0366   -3.0590   23.9864 N   0  0  0  0  0  0  0  0  0  0  0  0
    7.1191   -7.3636   15.7739 C   0  0  0  0  0  0  0  0  0  0  0  0
    5.9612   -8.3203   17.2732 N   0  0  0  0  0  0  0  0  0  0  0  0
    8.5296   -5.9814   17.1841 C   0  0  0  0  0  0  0  0  0  0  0  0
    9.1527   -5.2118   16.2116 C   0  0  0  0  0  0  0  0  0  0  0  0
   10.3364   -3.8368   22.9255 O   0  0  0  0  0  0  0  0  0  0  0  0
    9.6947   -4.8407   18.8534 C   0  0  0  0  0  0  0  0  0  0  0  0
    9.1596    1.7042   24.1381 C   0  0  0  0  0  0  0  0  0  0  0  0
   11.0456   -2.9774   18.2694 N   0  0  0  0  0  0  0  0  0  0  0  0
   10.4788   -3.0457   21.8593 C   0  0  0  0  0  0  0  0  0  0  0  0
    8.8693   -5.8099   18.4657 N   0  0  0  0  0  0  0  0  0  0  0  0
    8.9892   -0.7926   25.4573 C   0  0  0  0  0  0  0  0  0  0  0  0
   10.5677   -3.4462   20.5323 C   0  0  0  0  0  0  0  0  0  0  0  0
  1  8  1  0
  1 12  4  0
  1 14  4  0
  2  3  4  0
  2 18  4  0
  3 20  4  0
  3 22  4  0
  4 11  4  0
  4 21  4  0
  5  9  4  0
  5 16  4  0
  6 15  4  0
  6 16  4  0
  7 22  4  0
  7 26  4  0
  8 10  4  0
  8 25  4  0
  9 15  4  0
  9 17  1  0
 10 21  4  0
 11 25  4  0
 12 23  4  0
 13 20  4  0
 13 26  4  0
 14 19  4  0
 17 18  4  0
 17 24  4  0
 19 23  4  0
 20 24  4  0
 23 26  1  0
M  END
$$$$

 Created by Python create_sdf_string function

 26 30  0  0  0  0  0  0  0  0999 V2000
   10.0084   -1.8019   23.4945 C   0  0  0  0  0  0  0  0  0  0  0  0
   10.0005   -4.2520   16.5631 C   0  0  0  0  0  0  0  0  0  0  0  0
   10.2759   -4.0036   17.8845 C   0  0  0  0  0  0  0  0  0  0  0  0
    8.5652    1.5478   25.3778 N   0  0  0  0  0  0  0  0  0  0  0  0
    6.8048   -7.5457   17.8752 C   0  0  0  0  0  0  0  0  0  0  0  0
    6.1721   -8.2186   15.9886 N   0  0  0  0  0  0  0  0  0  0  0  0
   11.1764   -2.6600   19.5604 C   0  0  0  0  0  0  0  0  0  0  0  0
    9.5491   -0.6380   24.1912 C   0  0  0  0  0  0  0  0  0  0  0  0
    7.5337   -6.9256   16.9519 C   0  0  0  0  0  0  0  0  0  0  0  0
    9.6782    0.5671   23.5143 C   0  0  0  0  0  0  0  0  0  0  0  0
    8.4532    0.3482   26.0821 C   0  0  0  0  0  0  0  0  0  0  0  0
   10.4239   -1.7677   22.2230 N   0  0  0  0  0  0  0  0  0  0  0  0
    9.9468   -4.5953   20.1709 C   0  0  0  0  0  0  0  0  0  0  0  0
   10.0366   -3.0590   23.9864 N   0  0  0  0  0  0  0  0  0  0  0  0
    7.1191   -7.3636   15.7739 C   0  0  0  0  0  0  0  0  0  0  0  0
    5.9612   -8.3203   17.2732 N   0  0  0  0  0  0  0  0  0  0  0  0
    8.5296   -5.9814   17.1841 C   0  0  0  0  0  0  0  0  0  0  0  0
    9.1527   -5.2118   16.2116 C   0  0  0  0  0  0  0  0  0  0  0  0
   10.3364   -3.8368   22.9255 O   0  0  0  0  0  0  0  0  0  0  0  0
    9.6947   -4.8407   18.8534 C   0  0  0  0  0  0  0  0  0  0  0  0
    9.1596    1.7042   24.1381 C   0  0  0  0  0  0  0  0  0  0  0  0
   11.0456   -2.9774   18.2694 N   0  0  0  0  0  0  0  0  0  0  0  0
   10.4788   -3.0457   21.8593 C   0  0  0  0  0  0  0  0  0  0  0  0
    8.8693   -5.8099   18.4657 N   0  0  0  0  0  0  0  0  0  0  0  0
    8.9892   -0.7926   25.4573 C   0  0  0  0  0  0  0  0  0  0  0  0
   10.5677   -3.4462   20.5323 C   0  0  0  0  0  0  0  0  0  0  0  0
  1  8  1  0
  1 12  4  0
  1 14  4  0
  2  3  4  0
  2 18  4  0
  3 20  4  0
  3 22  4  0
  4 11  4  0
  4 21  4  0
  5  9  4  0
  5 16  4  0
  6 15  4  0
  6 16  4  0
  7 22  4  0
  7 26  4  0
  8 10  4  0
  8 25  4  0
  9 15  4  0
  9 17  1  0
 10 21  4  0
 11 25  4  0
 12 23  4  0
 13 20  4  0
 13 26  4  0
 14 19  4  0
 17 18  4  0
 17 24  4  0
 19 23  4  0
 20 24  4  0
 23 26  1  0
M  END
$$$$

 Created by Python create_sdf_string function

 26 30  0  0  0  0  0  0  0  0999 V2000
   10.0084   -1.8019   23.4945 C   0  0  0  0  0  0  0  0  0  0  0  0
   10.0005   -4.2520   16.5631 C   0  0  0  0  0  0  0  0  0  0  0  0
   10.2759   -4.0036   17.8845 C   0  0  0  0  0  0  0  0  0  0  0  0
    8.5652    1.5478   25.3778 N   0  0  0  0  0  0  0  0  0  0  0  0
    6.8048   -7.5457   17.8752 C   0  0  0  0  0  0  0  0  0  0  0  0
    6.1721   -8.2186   15.9886 N   0  0  0  0  0  0  0  0  0  0  0  0
   11.1764   -2.6600   19.5604 C   0  0  0  0  0  0  0  0  0  0  0  0
    9.5491   -0.6380   24.1912 C   0  0  0  0  0  0  0  0  0  0  0  0
    7.5337   -6.9256   16.9519 C   0  0  0  0  0  0  0  0  0  0  0  0
    9.6782    0.5671   23.5143 C   0  0  0  0  0  0  0  0  0  0  0  0
    8.4532    0.3482   26.0821 C   0  0  0  0  0  0  0  0  0  0  0  0
   10.4239   -1.7677   22.2230 N   0  0  0  0  0  0  0  0  0  0  0  0
    9.9468   -4.5953   20.1709 C   0  0  0  0  0  0  0  0  0  0  0  0
   10.0366   -3.0590   23.9864 N   0  0  0  0  0  0  0  0  0  0  0  0
    7.1191   -7.3636   15.7739 C   0  0  0  0  0  0  0  0  0  0  0  0
    5.9612   -8.3203   17.2732 N   0  0  0  0  0  0  0  0  0  0  0  0
    8.5296   -5.9814   17.1841 C   0  0  0  0  0  0  0  0  0  0  0  0
    9.1527   -5.2118   16.2116 C   0  0  0  0  0  0  0  0  0  0  0  0
   10.3364   -3.8368   22.9255 O   0  0  0  0  0  0  0  0  0  0  0  0
    9.6947   -4.8407   18.8534 C   0  0  0  0  0  0  0  0  0  0  0  0
    9.1596    1.7042   24.1381 C   0  0  0  0  0  0  0  0  0  0  0  0
   11.0456   -2.9774   18.2694 N   0  0  0  0  0  0  0  0  0  0  0  0
   10.4788   -3.0457   21.8593 C   0  0  0  0  0  0  0  0  0  0  0  0
    8.8693   -5.8099   18.4657 N   0  0  0  0  0  0  0  0  0  0  0  0
    8.9892   -0.7926   25.4573 C   0  0  0  0  0  0  0  0  0  0  0  0
   10.5677   -3.4462   20.5323 C   0  0  0  0  0  0  0  0  0  0  0  0
  1  8  1  0
  1 12  4  0
  1 14  4  0
  2  3  4  0
  2 18  4  0
  3 20  4  0
  3 22  4  0
  4 11  4  0
  4 21  4  0
  5  9  4  0
  5 16  4  0
  6 15  4  0
  6 16  4  0
  7 22  4  0
  7 26  4  0
  8 10  4  0
  8 25  4  0
  9 15  4  0
  9 17  1  0
 10 21  4  0
 11 25  4  0
 12 23  4  0
 13 20  4  0
 13 26  4  0
 14 19  4  0
 17 18  4  0
 17 24  4  0
 19 23  4  0
 20 24  4  0
 23 26  1  0
M  END
$$$$

 Created by Python create_sdf_string function

 26 30  0  0  0  0  0  0  0  0999 V2000
   10.0084   -1.8019   23.4945 C   0  0  0  0  0  0  0  0  0  0  0  0
   10.0005   -4.2520   16.5631 C   0  0  0  0  0  0  0  0  0  0  0  0
   10.2759   -4.0036   17.8845 C   0  0  0  0  0  0  0  0  0  0  0  0
    8.5652    1.5478   25.3778 N   0  0  0  0  0  0  0  0  0  0  0  0
    6.8048   -7.5457   17.8752 C   0  0  0  0  0  0  0  0  0  0  0  0
    6.1721   -8.2186   15.9886 N   0  0  0  0  0  0  0  0  0  0  0  0
   11.1764   -2.6600   19.5604 C   0  0  0  0  0  0  0  0  0  0  0  0
    9.5491   -0.6380   24.1912 C   0  0  0  0  0  0  0  0  0  0  0  0
    7.5337   -6.9256   16.9519 C   0  0  0  0  0  0  0  0  0  0  0  0
    9.6782    0.5671   23.5143 C   0  0  0  0  0  0  0  0  0  0  0  0
    8.4532    0.3482   26.0821 C   0  0  0  0  0  0  0  0  0  0  0  0
   10.4239   -1.7677   22.2230 N   0  0  0  0  0  0  0  0  0  0  0  0
    9.9468   -4.5953   20.1709 C   0  0  0  0  0  0  0  0  0  0  0  0
   10.0366   -3.0590   23.9864 N   0  0  0  0  0  0  0  0  0  0  0  0
    7.1191   -7.3636   15.7739 C   0  0  0  0  0  0  0  0  0  0  0  0
    5.9612   -8.3203   17.2732 N   0  0  0  0  0  0  0  0  0  0  0  0
    8.5296   -5.9814   17.1841 C   0  0  0  0  0  0  0  0  0  0  0  0
    9.1527   -5.2118   16.2116 C   0  0  0  0  0  0  0  0  0  0  0  0
   10.3364   -3.8368   22.9255 O   0  0  0  0  0  0  0  0  0  0  0  0
    9.6947   -4.8407   18.8534 C   0  0  0  0  0  0  0  0  0  0  0  0
    9.1596    1.7042   24.1381 C   0  0  0  0  0  0  0  0  0  0  0  0
   11.0456   -2.9774   18.2694 N   0  0  0  0  0  0  0  0  0  0  0  0
   10.4788   -3.0457   21.8593 C   0  0  0  0  0  0  0  0  0  0  0  0
    8.8693   -5.8099   18.4657 N   0  0  0  0  0  0  0  0  0  0  0  0
    8.9892   -0.7926   25.4573 C   0  0  0  0  0  0  0  0  0  0  0  0
   10.5677   -3.4462   20.5323 C   0  0  0  0  0  0  0  0  0  0  0  0
  1  8  1  0
  1 12  4  0
  1 14  4  0
  2  3  4  0
  2 18  4  0
  3 20  4  0
  3 22  4  0
  4 11  4  0
  4 21  4  0
  5  9  4  0
  5 16  4  0
  6 15  4  0
  6 16  4  0
  7 22  4  0
  7 26  4  0
  8 10  4  0
  8 25  4  0
  9 15  4  0
  9 17  1  0
 10 21  4  0
 11 25  4  0
 12 23  4  0
 13 20  4  0
 13 26  4  0
 14 19  4  0
 17 18  4  0
 17 24  4  0
 19 23  4  0
 20 24  4  0
 23 26  1  0
M  END
$$$$

 Created by Python create_sdf_string function

 26 30  0  0  0  0  0  0  0  0999 V2000
   10.0084   -1.8019   23.4945 C   0  0  0  0  0  0  0  0  0  0  0  0
   10.0005   -4.2520   16.5631 C   0  0  0  0  0  0  0  0  0  0  0  0
   10.2759   -4.0036   17.8845 C   0  0  0  0  0  0  0  0  0  0  0  0
    8.5652    1.5478   25.3778 N   0  0  0  0  0  0  0  0  0  0  0  0
    6.8048   -7.5457   17.8752 C   0  0  0  0  0  0  0  0  0  0  0  0
    6.1721   -8.2186   15.9886 N   0  0  0  0  0  0  0  0  0  0  0  0
   11.1764   -2.6600   19.5604 C   0  0  0  0  0  0  0  0  0  0  0  0
    9.5491   -0.6380   24.1912 C   0  0  0  0  0  0  0  0  0  0  0  0
    7.5337   -6.9256   16.9519 C   0  0  0  0  0  0  0  0  0  0  0  0
    9.6782    0.5671   23.5143 C   0  0  0  0  0  0  0  0  0  0  0  0
    8.4532    0.3482   26.0821 C   0  0  0  0  0  0  0  0  0  0  0  0
   10.4239   -1.7677   22.2230 N   0  0  0  0  0  0  0  0  0  0  0  0
    9.9468   -4.5953   20.1709 C   0  0  0  0  0  0  0  0  0  0  0  0
   10.0366   -3.0590   23.9864 N   0  0  0  0  0  0  0  0  0  0  0  0
    7.1191   -7.3636   15.7739 C   0  0  0  0  0  0  0  0  0  0  0  0
    5.9612   -8.3203   17.2732 N   0  0  0  0  0  0  0  0  0  0  0  0
    8.5296   -5.9814   17.1841 C   0  0  0  0  0  0  0  0  0  0  0  0
    9.1527   -5.2118   16.2116 C   0  0  0  0  0  0  0  0  0  0  0  0
   10.3364   -3.8368   22.9255 O   0  0  0  0  0  0  0  0  0  0  0  0
    9.6947   -4.8407   18.8534 C   0  0  0  0  0  0  0  0  0  0  0  0
    9.1596    1.7042   24.1381 C   0  0  0  0  0  0  0  0  0  0  0  0
   11.0456   -2.9774   18.2694 N   0  0  0  0  0  0  0  0  0  0  0  0
   10.4788   -3.0457   21.8593 C   0  0  0  0  0  0  0  0  0  0  0  0
    8.8693   -5.8099   18.4657 N   0  0  0  0  0  0  0  0  0  0  0  0
    8.9892   -0.7926   25.4573 C   0  0  0  0  0  0  0  0  0  0  0  0
   10.5677   -3.4462   20.5323 C   0  0  0  0  0  0  0  0  0  0  0  0
  1  8  1  0
  1 12  4  0
  1 14  4  0
  2  3  4  0
  2 18  4  0
  3 20  4  0
  3 22  4  0
  4 11  4  0
  4 21  4  0
  5  9  4  0
  5 16  4  0
  6 15  4  0
  6 16  4  0
  7 22  4  0
  7 26  4  0
  8 10  4  0
  8 25  4  0
  9 15  4  0
  9 17  1  0
 10 21  4  0
 11 25  4  0
 12 23  4  0
 13 20  4  0
 13 26  4  0
 14 19  4  0
 17 18  4  0
 17 24  4  0
 19 23  4  0
 20 24  4  0
 23 26  1  0
M  END
$$$$

 Created by Python create_sdf_string function

 26 30  0  0  0  0  0  0  0  0999 V2000
   10.0084   -1.8019   23.4945 C   0  0  0  0  0  0  0  0  0  0  0  0
   10.0005   -4.2520   16.5631 C   0  0  0  0  0  0  0  0  0  0  0  0
   10.2759   -4.0036   17.8845 C   0  0  0  0  0  0  0  0  0  0  0  0
    8.5652    1.5478   25.3778 N   0  0  0  0  0  0  0  0  0  0  0  0
    6.8048   -7.5457   17.8752 C   0  0  0  0  0  0  0  0  0  0  0  0
    6.1721   -8.2186   15.9886 N   0  0  0  0  0  0  0  0  0  0  0  0
   11.1764   -2.6600   19.5604 C   0  0  0  0  0  0  0  0  0  0  0  0
    9.5491   -0.6380   24.1912 C   0  0  0  0  0  0  0  0  0  0  0  0
    7.5337   -6.9256   16.9519 C   0  0  0  0  0  0  0  0  0  0  0  0
    9.6782    0.5671   23.5143 C   0  0  0  0  0  0  0  0  0  0  0  0
    8.4532    0.3482   26.0821 C   0  0  0  0  0  0  0  0  0  0  0  0
   10.4239   -1.7677   22.2230 N   0  0  0  0  0  0  0  0  0  0  0  0
    9.9468   -4.5953   20.1709 C   0  0  0  0  0  0  0  0  0  0  0  0
   10.0366   -3.0590   23.9864 N   0  0  0  0  0  0  0  0  0  0  0  0
    7.1191   -7.3636   15.7739 C   0  0  0  0  0  0  0  0  0  0  0  0
    5.9612   -8.3203   17.2732 N   0  0  0  0  0  0  0  0  0  0  0  0
    8.5296   -5.9814   17.1841 C   0  0  0  0  0  0  0  0  0  0  0  0
    9.1527   -5.2118   16.2116 C   0  0  0  0  0  0  0  0  0  0  0  0
   10.3364   -3.8368   22.9255 O   0  0  0  0  0  0  0  0  0  0  0  0
    9.6947   -4.8407   18.8534 C   0  0  0  0  0  0  0  0  0  0  0  0
    9.1596    1.7042   24.1381 C   0  0  0  0  0  0  0  0  0  0  0  0
   11.0456   -2.9774   18.2694 N   0  0  0  0  0  0  0  0  0  0  0  0
   10.4788   -3.0457   21.8593 C   0  0  0  0  0  0  0  0  0  0  0  0
    8.8693   -5.8099   18.4657 N   0  0  0  0  0  0  0  0  0  0  0  0
    8.9892   -0.7926   25.4573 C   0  0  0  0  0  0  0  0  0  0  0  0
   10.5677   -3.4462   20.5323 C   0  0  0  0  0  0  0  0  0  0  0  0
  1  8  1  0
  1 12  4  0
  1 14  4  0
  2  3  4  0
  2 18  4  0
  3 20  4  0
  3 22  4  0
  4 11  4  0
  4 21  4  0
  5  9  4  0
  5 16  4  0
  6 15  4  0
  6 16  4  0
  7 22  4  0
  7 26  4  0
  8 10  4  0
  8 25  4  0
  9 15  4  0
  9 17  1  0
 10 21  4  0
 11 25  4  0
 12 23  4  0
 13 20  4  0
 13 26  4  0
 14 19  4  0
 17 18  4  0
 17 24  4  0
 19 23  4  0
 20 24  4  0
 23 26  1  0
M  END
$$$$

 Created by Python create_sdf_string function

 26 30  0  0  0  0  0  0  0  0999 V2000
   10.0084   -1.8019   23.4945 C   0  0  0  0  0  0  0  0  0  0  0  0
   10.0005   -4.2520   16.5631 C   0  0  0  0  0  0  0  0  0  0  0  0
   10.2759   -4.0036   17.8845 C   0  0  0  0  0  0  0  0  0  0  0  0
    8.5652    1.5478   25.3778 N   0  0  0  0  0  0  0  0  0  0  0  0
    6.8048   -7.5457   17.8752 C   0  0  0  0  0  0  0  0  0  0  0  0
    6.1721   -8.2186   15.9886 N   0  0  0  0  0  0  0  0  0  0  0  0
   11.1764   -2.6600   19.5604 C   0  0  0  0  0  0  0  0  0  0  0  0
    9.5491   -0.6380   24.1912 C   0  0  0  0  0  0  0  0  0  0  0  0
    7.5337   -6.9256   16.9519 C   0  0  0  0  0  0  0  0  0  0  0  0
    9.6782    0.5671   23.5143 C   0  0  0  0  0  0  0  0  0  0  0  0
    8.4532    0.3482   26.0821 C   0  0  0  0  0  0  0  0  0  0  0  0
   10.4239   -1.7677   22.2230 N   0  0  0  0  0  0  0  0  0  0  0  0
    9.9468   -4.5953   20.1709 C   0  0  0  0  0  0  0  0  0  0  0  0
   10.0366   -3.0590   23.9864 N   0  0  0  0  0  0  0  0  0  0  0  0
    7.1191   -7.3636   15.7739 C   0  0  0  0  0  0  0  0  0  0  0  0
    5.9612   -8.3203   17.2732 N   0  0  0  0  0  0  0  0  0  0  0  0
    8.5296   -5.9814   17.1841 C   0  0  0  0  0  0  0  0  0  0  0  0
    9.1527   -5.2118   16.2116 C   0  0  0  0  0  0  0  0  0  0  0  0
   10.3364   -3.8368   22.9255 O   0  0  0  0  0  0  0  0  0  0  0  0
    9.6947   -4.8407   18.8534 C   0  0  0  0  0  0  0  0  0  0  0  0
    9.1596    1.7042   24.1381 C   0  0  0  0  0  0  0  0  0  0  0  0
   11.0456   -2.9774   18.2694 N   0  0  0  0  0  0  0  0  0  0  0  0
   10.4788   -3.0457   21.8593 C   0  0  0  0  0  0  0  0  0  0  0  0
    8.8693   -5.8099   18.4657 N   0  0  0  0  0  0  0  0  0  0  0  0
    8.9892   -0.7926   25.4573 C   0  0  0  0  0  0  0  0  0  0  0  0
   10.5677   -3.4462   20.5323 C   0  0  0  0  0  0  0  0  0  0  0  0
  1  8  1  0
  1 12  4  0
  1 14  4  0
  2  3  4  0
  2 18  4  0
  3 20  4  0
  3 22  4  0
  4 11  4  0
  4 21  4  0
  5  9  4  0
  5 16  4  0
  6 15  4  0
  6 16  4  0
  7 22  4  0
  7 26  4  0
  8 10  4  0
  8 25  4  0
  9 15  4  0
  9 17  1  0
 10 21  4  0
 11 25  4  0
 12 23  4  0
 13 20  4  0
 13 26  4  0
 14 19  4  0
 17 18  4  0
 17 24  4  0
 19 23  4  0
 20 24  4  0
 23 26  1  0
M  END
$$$$

 Created by Python create_sdf_string function

 26 30  0  0  0  0  0  0  0  0999 V2000
   10.0084   -1.8019   23.4945 C   0  0  0  0  0  0  0  0  0  0  0  0
   10.0005   -4.2520   16.5631 C   0  0  0  0  0  0  0  0  0  0  0  0
   10.2759   -4.0036   17.8845 C   0  0  0  0  0  0  0  0  0  0  0  0
    8.5652    1.5478   25.3778 N   0  0  0  0  0  0  0  0  0  0  0  0
    6.8048   -7.5457   17.8752 C   0  0  0  0  0  0  0  0  0  0  0  0
    6.1721   -8.2186   15.9886 N   0  0  0  0  0  0  0  0  0  0  0  0
   11.1764   -2.6600   19.5604 C   0  0  0  0  0  0  0  0  0  0  0  0
    9.5491   -0.6380   24.1912 C   0  0  0  0  0  0  0  0  0  0  0  0
    7.5337   -6.9256   16.9519 C   0  0  0  0  0  0  0  0  0  0  0  0
    9.6782    0.5671   23.5143 C   0  0  0  0  0  0  0  0  0  0  0  0
    8.4532    0.3482   26.0821 C   0  0  0  0  0  0  0  0  0  0  0  0
   10.4239   -1.7677   22.2230 N   0  0  0  0  0  0  0  0  0  0  0  0
    9.9468   -4.5953   20.1709 C   0  0  0  0  0  0  0  0  0  0  0  0
   10.0366   -3.0590   23.9864 N   0  0  0  0  0  0  0  0  0  0  0  0
    7.1191   -7.3636   15.7739 C   0  0  0  0  0  0  0  0  0  0  0  0
    5.9612   -8.3203   17.2732 N   0  0  0  0  0  0  0  0  0  0  0  0
    8.5296   -5.9814   17.1841 C   0  0  0  0  0  0  0  0  0  0  0  0
    9.1527   -5.2118   16.2116 C   0  0  0  0  0  0  0  0  0  0  0  0
   10.3364   -3.8368   22.9255 O   0  0  0  0  0  0  0  0  0  0  0  0
    9.6947   -4.8407   18.8534 C   0  0  0  0  0  0  0  0  0  0  0  0
    9.1596    1.7042   24.1381 C   0  0  0  0  0  0  0  0  0  0  0  0
   11.0456   -2.9774   18.2694 N   0  0  0  0  0  0  0  0  0  0  0  0
   10.4788   -3.0457   21.8593 C   0  0  0  0  0  0  0  0  0  0  0  0
    8.8693   -5.8099   18.4657 N   0  0  0  0  0  0  0  0  0  0  0  0
    8.9892   -0.7926   25.4573 C   0  0  0  0  0  0  0  0  0  0  0  0
   10.5677   -3.4462   20.5323 C   0  0  0  0  0  0  0  0  0  0  0  0
  1  8  1  0
  1 12  4  0
  1 14  4  0
  2  3  4  0
  2 18  4  0
  3 20  4  0
  3 22  4  0
  4 11  4  0
  4 21  4  0
  5  9  4  0
  5 16  4  0
  6 15  4  0
  6 16  4  0
  7 22  4  0
  7 26  4  0
  8 10  4  0
  8 25  4  0
  9 15  4  0
  9 17  1  0
 10 21  4  0
 11 25  4  0
 12 23  4  0
 13 20  4  0
 13 26  4  0
 14 19  4  0
 17 18  4  0
 17 24  4  0
 19 23  4  0
 20 24  4  0
 23 26  1  0
M  END
$$$$

 Created by Python create_sdf_string function

 26 30  0  0  0  0  0  0  0  0999 V2000
   10.0084   -1.8019   23.4945 C   0  0  0  0  0  0  0  0  0  0  0  0
   10.0005   -4.2520   16.5631 C   0  0  0  0  0  0  0  0  0  0  0  0
   10.2759   -4.0036   17.8845 C   0  0  0  0  0  0  0  0  0  0  0  0
    8.5652    1.5478   25.3778 N   0  0  0  0  0  0  0  0  0  0  0  0
    6.8048   -7.5457   17.8752 C   0  0  0  0  0  0  0  0  0  0  0  0
    6.1721   -8.2186   15.9886 N   0  0  0  0  0  0  0  0  0  0  0  0
   11.1764   -2.6600   19.5604 C   0  0  0  0  0  0  0  0  0  0  0  0
    9.5491   -0.6380   24.1912 C   0  0  0  0  0  0  0  0  0  0  0  0
    7.5337   -6.9256   16.9519 C   0  0  0  0  0  0  0  0  0  0  0  0
    9.6782    0.5671   23.5143 C   0  0  0  0  0  0  0  0  0  0  0  0
    8.4532    0.3482   26.0821 C   0  0  0  0  0  0  0  0  0  0  0  0
   10.4239   -1.7677   22.2230 N   0  0  0  0  0  0  0  0  0  0  0  0
    9.9468   -4.5953   20.1709 C   0  0  0  0  0  0  0  0  0  0  0  0
   10.0366   -3.0590   23.9864 N   0  0  0  0  0  0  0  0  0  0  0  0
    7.1191   -7.3636   15.7739 C   0  0  0  0  0  0  0  0  0  0  0  0
    5.9612   -8.3203   17.2732 N   0  0  0  0  0  0  0  0  0  0  0  0
    8.5296   -5.9814   17.1841 C   0  0  0  0  0  0  0  0  0  0  0  0
    9.1527   -5.2118   16.2116 C   0  0  0  0  0  0  0  0  0  0  0  0
   10.3364   -3.8368   22.9255 O   0  0  0  0  0  0  0  0  0  0  0  0
    9.6947   -4.8407   18.8534 C   0  0  0  0  0  0  0  0  0  0  0  0
    9.1596    1.7042   24.1381 C   0  0  0  0  0  0  0  0  0  0  0  0
   11.0456   -2.9774   18.2694 N   0  0  0  0  0  0  0  0  0  0  0  0
   10.4788   -3.0457   21.8593 C   0  0  0  0  0  0  0  0  0  0  0  0
    8.8693   -5.8099   18.4657 N   0  0  0  0  0  0  0  0  0  0  0  0
    8.9892   -0.7926   25.4573 C   0  0  0  0  0  0  0  0  0  0  0  0
   10.5677   -3.4462   20.5323 C   0  0  0  0  0  0  0  0  0  0  0  0
  1  8  1  0
  1 12  4  0
  1 14  4  0
  2  3  4  0
  2 18  4  0
  3 20  4  0
  3 22  4  0
  4 11  4  0
  4 21  4  0
  5  9  4  0
  5 16  4  0
  6 15  4  0
  6 16  4  0
  7 22  4  0
  7 26  4  0
  8 10  4  0
  8 25  4  0
  9 15  4  0
  9 17  1  0
 10 21  4  0
 11 25  4  0
 12 23  4  0
 13 20  4  0
 13 26  4  0
 14 19  4  0
 17 18  4  0
 17 24  4  0
 19 23  4  0
 20 24  4  0
 23 26  1  0
M  END
$$$$

 Created by Python create_sdf_string function

 26 30  0  0  0  0  0  0  0  0999 V2000
   10.0084   -1.8019   23.4945 C   0  0  0  0  0  0  0  0  0  0  0  0
   10.0005   -4.2520   16.5631 C   0  0  0  0  0  0  0  0  0  0  0  0
   10.2759   -4.0036   17.8845 C   0  0  0  0  0  0  0  0  0  0  0  0
    8.5652    1.5478   25.3778 N   0  0  0  0  0  0  0  0  0  0  0  0
    6.8048   -7.5457   17.8752 C   0  0  0  0  0  0  0  0  0  0  0  0
    6.1721   -8.2186   15.9886 N   0  0  0  0  0  0  0  0  0  0  0  0
   11.1764   -2.6600   19.5604 C   0  0  0  0  0  0  0  0  0  0  0  0
    9.5491   -0.6380   24.1912 C   0  0  0  0  0  0  0  0  0  0  0  0
    7.5337   -6.9256   16.9519 C   0  0  0  0  0  0  0  0  0  0  0  0
    9.6782    0.5671   23.5143 C   0  0  0  0  0  0  0  0  0  0  0  0
    8.4532    0.3482   26.0821 C   0  0  0  0  0  0  0  0  0  0  0  0
   10.4239   -1.7677   22.2230 N   0  0  0  0  0  0  0  0  0  0  0  0
    9.9468   -4.5953   20.1709 C   0  0  0  0  0  0  0  0  0  0  0  0
   10.0366   -3.0590   23.9864 N   0  0  0  0  0  0  0  0  0  0  0  0
    7.1191   -7.3636   15.7739 C   0  0  0  0  0  0  0  0  0  0  0  0
    5.9612   -8.3203   17.2732 N   0  0  0  0  0  0  0  0  0  0  0  0
    8.5296   -5.9814   17.1841 C   0  0  0  0  0  0  0  0  0  0  0  0
    9.1527   -5.2118   16.2116 C   0  0  0  0  0  0  0  0  0  0  0  0
   10.3364   -3.8368   22.9255 O   0  0  0  0  0  0  0  0  0  0  0  0
    9.6947   -4.8407   18.8534 C   0  0  0  0  0  0  0  0  0  0  0  0
    9.1596    1.7042   24.1381 C   0  0  0  0  0  0  0  0  0  0  0  0
   11.0456   -2.9774   18.2694 N   0  0  0  0  0  0  0  0  0  0  0  0
   10.4788   -3.0457   21.8593 C   0  0  0  0  0  0  0  0  0  0  0  0
    8.8693   -5.8099   18.4657 N   0  0  0  0  0  0  0  0  0  0  0  0
    8.9892   -0.7926   25.4573 C   0  0  0  0  0  0  0  0  0  0  0  0
   10.5677   -3.4462   20.5323 C   0  0  0  0  0  0  0  0  0  0  0  0
  1  8  1  0
  1 12  4  0
  1 14  4  0
  2  3  4  0
  2 18  4  0
  3 20  4  0
  3 22  4  0
  4 11  4  0
  4 21  4  0
  5  9  4  0
  5 16  4  0
  6 15  4  0
  6 16  4  0
  7 22  4  0
  7 26  4  0
  8 10  4  0
  8 25  4  0
  9 15  4  0
  9 17  1  0
 10 21  4  0
 11 25  4  0
 12 23  4  0
 13 20  4  0
 13 26  4  0
 14 19  4  0
 17 18  4  0
 17 24  4  0
 19 23  4  0
 20 24  4  0
 23 26  1  0
M  END
$$$$

 Created by Python create_sdf_string function

 26 30  0  0  0  0  0  0  0  0999 V2000
   10.0084   -1.8019   23.4945 C   0  0  0  0  0  0  0  0  0  0  0  0
   10.0005   -4.2520   16.5631 C   0  0  0  0  0  0  0  0  0  0  0  0
   10.2759   -4.0036   17.8845 C   0  0  0  0  0  0  0  0  0  0  0  0
    8.5652    1.5478   25.3778 N   0  0  0  0  0  0  0  0  0  0  0  0
    6.8048   -7.5457   17.8752 C   0  0  0  0  0  0  0  0  0  0  0  0
    6.1721   -8.2186   15.9886 N   0  0  0  0  0  0  0  0  0  0  0  0
   11.1764   -2.6600   19.5604 C   0  0  0  0  0  0  0  0  0  0  0  0
    9.5491   -0.6380   24.1912 C   0  0  0  0  0  0  0  0  0  0  0  0
    7.5337   -6.9256   16.9519 C   0  0  0  0  0  0  0  0  0  0  0  0
    9.6782    0.5671   23.5143 C   0  0  0  0  0  0  0  0  0  0  0  0
    8.4532    0.3482   26.0821 C   0  0  0  0  0  0  0  0  0  0  0  0
   10.4239   -1.7677   22.2230 N   0  0  0  0  0  0  0  0  0  0  0  0
    9.9468   -4.5953   20.1709 C   0  0  0  0  0  0  0  0  0  0  0  0
   10.0366   -3.0590   23.9864 N   0  0  0  0  0  0  0  0  0  0  0  0
    7.1191   -7.3636   15.7739 C   0  0  0  0  0  0  0  0  0  0  0  0
    5.9612   -8.3203   17.2732 N   0  0  0  0  0  0  0  0  0  0  0  0
    8.5296   -5.9814   17.1841 C   0  0  0  0  0  0  0  0  0  0  0  0
    9.1527   -5.2118   16.2116 C   0  0  0  0  0  0  0  0  0  0  0  0
   10.3364   -3.8368   22.9255 O   0  0  0  0  0  0  0  0  0  0  0  0
    9.6947   -4.8407   18.8534 C   0  0  0  0  0  0  0  0  0  0  0  0
    9.1596    1.7042   24.1381 C   0  0  0  0  0  0  0  0  0  0  0  0
   11.0456   -2.9774   18.2694 N   0  0  0  0  0  0  0  0  0  0  0  0
   10.4788   -3.0457   21.8593 C   0  0  0  0  0  0  0  0  0  0  0  0
    8.8693   -5.8099   18.4657 N   0  0  0  0  0  0  0  0  0  0  0  0
    8.9892   -0.7926   25.4573 C   0  0  0  0  0  0  0  0  0  0  0  0
   10.5677   -3.4462   20.5323 C   0  0  0  0  0  0  0  0  0  0  0  0
  1  8  1  0
  1 12  4  0
  1 14  4  0
  2  3  4  0
  2 18  4  0
  3 20  4  0
  3 22  4  0
  4 11  4  0
  4 21  4  0
  5  9  4  0
  5 16  4  0
  6 15  4  0
  6 16  4  0
  7 22  4  0
  7 26  4  0
  8 10  4  0
  8 25  4  0
  9 15  4  0
  9 17  1  0
 10 21  4  0
 11 25  4  0
 12 23  4  0
 13 20  4  0
 13 26  4  0
 14 19  4  0
 17 18  4  0
 17 24  4  0
 19 23  4  0
 20 24  4  0
 23 26  1  0
M  END
$$$$

 Created by Python create_sdf_string function

 26 30  0  0  0  0  0  0  0  0999 V2000
   10.0084   -1.8019   23.4945 C   0  0  0  0  0  0  0  0  0  0  0  0
   10.0005   -4.2520   16.5631 C   0  0  0  0  0  0  0  0  0  0  0  0
   10.2759   -4.0036   17.8845 C   0  0  0  0  0  0  0  0  0  0  0  0
    8.5652    1.5478   25.3778 N   0  0  0  0  0  0  0  0  0  0  0  0
    6.8048   -7.5457   17.8752 C   0  0  0  0  0  0  0  0  0  0  0  0
    6.1721   -8.2186   15.9886 N   0  0  0  0  0  0  0  0  0  0  0  0
   11.1764   -2.6600   19.5604 C   0  0  0  0  0  0  0  0  0  0  0  0
    9.5491   -0.6380   24.1912 C   0  0  0  0  0  0  0  0  0  0  0  0
    7.5337   -6.9256   16.9519 C   0  0  0  0  0  0  0  0  0  0  0  0
    9.6782    0.5671   23.5143 C   0  0  0  0  0  0  0  0  0  0  0  0
    8.4532    0.3482   26.0821 C   0  0  0  0  0  0  0  0  0  0  0  0
   10.4239   -1.7677   22.2230 N   0  0  0  0  0  0  0  0  0  0  0  0
    9.9468   -4.5953   20.1709 C   0  0  0  0  0  0  0  0  0  0  0  0
   10.0366   -3.0590   23.9864 N   0  0  0  0  0  0  0  0  0  0  0  0
    7.1191   -7.3636   15.7739 C   0  0  0  0  0  0  0  0  0  0  0  0
    5.9612   -8.3203   17.2732 N   0  0  0  0  0  0  0  0  0  0  0  0
    8.5296   -5.9814   17.1841 C   0  0  0  0  0  0  0  0  0  0  0  0
    9.1527   -5.2118   16.2116 C   0  0  0  0  0  0  0  0  0  0  0  0
   10.3364   -3.8368   22.9255 O   0  0  0  0  0  0  0  0  0  0  0  0
    9.6947   -4.8407   18.8534 C   0  0  0  0  0  0  0  0  0  0  0  0
    9.1596    1.7042   24.1381 C   0  0  0  0  0  0  0  0  0  0  0  0
   11.0456   -2.9774   18.2694 N   0  0  0  0  0  0  0  0  0  0  0  0
   10.4788   -3.0457   21.8593 C   0  0  0  0  0  0  0  0  0  0  0  0
    8.8693   -5.8099   18.4657 N   0  0  0  0  0  0  0  0  0  0  0  0
    8.9892   -0.7926   25.4573 C   0  0  0  0  0  0  0  0  0  0  0  0
   10.5677   -3.4462   20.5323 C   0  0  0  0  0  0  0  0  0  0  0  0
  1  8  1  0
  1 12  4  0
  1 14  4  0
  2  3  4  0
  2 18  4  0
  3 20  4  0
  3 22  4  0
  4 11  4  0
  4 21  4  0
  5  9  4  0
  5 16  4  0
  6 15  4  0
  6 16  4  0
  7 22  4  0
  7 26  4  0
  8 10  4  0
  8 25  4  0
  9 15  4  0
  9 17  1  0
 10 21  4  0
 11 25  4  0
 12 23  4  0
 13 20  4  0
 13 26  4  0
 14 19  4  0
 17 18  4  0
 17 24  4  0
 19 23  4  0
 20 24  4  0
 23 26  1  0
M  END
$$$$

 Created by Python create_sdf_string function

 26 30  0  0  0  0  0  0  0  0999 V2000
   10.0084   -1.8019   23.4945 C   0  0  0  0  0  0  0  0  0  0  0  0
   10.0005   -4.2520   16.5631 C   0  0  0  0  0  0  0  0  0  0  0  0
   10.2759   -4.0036   17.8845 C   0  0  0  0  0  0  0  0  0  0  0  0
    8.5652    1.5478   25.3778 N   0  0  0  0  0  0  0  0  0  0  0  0
    6.8048   -7.5457   17.8752 C   0  0  0  0  0  0  0  0  0  0  0  0
    6.1721   -8.2186   15.9886 N   0  0  0  0  0  0  0  0  0  0  0  0
   11.1764   -2.6600   19.5604 C   0  0  0  0  0  0  0  0  0  0  0  0
    9.5491   -0.6380   24.1912 C   0  0  0  0  0  0  0  0  0  0  0  0
    7.5337   -6.9256   16.9519 C   0  0  0  0  0  0  0  0  0  0  0  0
    9.6782    0.5671   23.5143 C   0  0  0  0  0  0  0  0  0  0  0  0
    8.4532    0.3482   26.0821 C   0  0  0  0  0  0  0  0  0  0  0  0
   10.4239   -1.7677   22.2230 N   0  0  0  0  0  0  0  0  0  0  0  0
    9.9468   -4.5953   20.1709 C   0  0  0  0  0  0  0  0  0  0  0  0
   10.0366   -3.0590   23.9864 N   0  0  0  0  0  0  0  0  0  0  0  0
    7.1191   -7.3636   15.7739 C   0  0  0  0  0  0  0  0  0  0  0  0
    5.9612   -8.3203   17.2732 N   0  0  0  0  0  0  0  0  0  0  0  0
    8.5296   -5.9814   17.1841 C   0  0  0  0  0  0  0  0  0  0  0  0
    9.1527   -5.2118   16.2116 C   0  0  0  0  0  0  0  0  0  0  0  0
   10.3364   -3.8368   22.9255 O   0  0  0  0  0  0  0  0  0  0  0  0
    9.6947   -4.8407   18.8534 C   0  0  0  0  0  0  0  0  0  0  0  0
    9.1596    1.7042   24.1381 C   0  0  0  0  0  0  0  0  0  0  0  0
   11.0456   -2.9774   18.2694 N   0  0  0  0  0  0  0  0  0  0  0  0
   10.4788   -3.0457   21.8593 C   0  0  0  0  0  0  0  0  0  0  0  0
    8.8693   -5.8099   18.4657 N   0  0  0  0  0  0  0  0  0  0  0  0
    8.9892   -0.7926   25.4573 C   0  0  0  0  0  0  0  0  0  0  0  0
   10.5677   -3.4462   20.5323 C   0  0  0  0  0  0  0  0  0  0  0  0
  1  8  1  0
  1 12  4  0
  1 14  4  0
  2  3  4  0
  2 18  4  0
  3 20  4  0
  3 22  4  0
  4 11  4  0
  4 21  4  0
  5  9  4  0
  5 16  4  0
  6 15  4  0
  6 16  4  0
  7 22  4  0
  7 26  4  0
  8 10  4  0
  8 25  4  0
  9 15  4  0
  9 17  1  0
 10 21  4  0
 11 25  4  0
 12 23  4  0
 13 20  4  0
 13 26  4  0
 14 19  4  0
 17 18  4  0
 17 24  4  0
 19 23  4  0
 20 24  4  0
 23 26  1  0
M  END
$$$$

 Created by Python create_sdf_string function

 26 30  0  0  0  0  0  0  0  0999 V2000
   10.0084   -1.8019   23.4945 C   0  0  0  0  0  0  0  0  0  0  0  0
   10.0005   -4.2520   16.5631 C   0  0  0  0  0  0  0  0  0  0  0  0
   10.2759   -4.0036   17.8845 C   0  0  0  0  0  0  0  0  0  0  0  0
    8.5652    1.5478   25.3778 N   0  0  0  0  0  0  0  0  0  0  0  0
    6.8048   -7.5457   17.8752 C   0  0  0  0  0  0  0  0  0  0  0  0
    6.1721   -8.2186   15.9886 N   0  0  0  0  0  0  0  0  0  0  0  0
   11.1764   -2.6600   19.5604 C   0  0  0  0  0  0  0  0  0  0  0  0
    9.5491   -0.6380   24.1912 C   0  0  0  0  0  0  0  0  0  0  0  0
    7.5337   -6.9256   16.9519 C   0  0  0  0  0  0  0  0  0  0  0  0
    9.6782    0.5671   23.5143 C   0  0  0  0  0  0  0  0  0  0  0  0
    8.4532    0.3482   26.0821 C   0  0  0  0  0  0  0  0  0  0  0  0
   10.4239   -1.7677   22.2230 N   0  0  0  0  0  0  0  0  0  0  0  0
    9.9468   -4.5953   20.1709 C   0  0  0  0  0  0  0  0  0  0  0  0
   10.0366   -3.0590   23.9864 N   0  0  0  0  0  0  0  0  0  0  0  0
    7.1191   -7.3636   15.7739 C   0  0  0  0  0  0  0  0  0  0  0  0
    5.9612   -8.3203   17.2732 N   0  0  0  0  0  0  0  0  0  0  0  0
    8.5296   -5.9814   17.1841 C   0  0  0  0  0  0  0  0  0  0  0  0
    9.1527   -5.2118   16.2116 C   0  0  0  0  0  0  0  0  0  0  0  0
   10.3364   -3.8368   22.9255 O   0  0  0  0  0  0  0  0  0  0  0  0
    9.6947   -4.8407   18.8534 C   0  0  0  0  0  0  0  0  0  0  0  0
    9.1596    1.7042   24.1381 C   0  0  0  0  0  0  0  0  0  0  0  0
   11.0456   -2.9774   18.2694 N   0  0  0  0  0  0  0  0  0  0  0  0
   10.4788   -3.0457   21.8593 C   0  0  0  0  0  0  0  0  0  0  0  0
    8.8693   -5.8099   18.4657 N   0  0  0  0  0  0  0  0  0  0  0  0
    8.9892   -0.7926   25.4573 C   0  0  0  0  0  0  0  0  0  0  0  0
   10.5677   -3.4462   20.5323 C   0  0  0  0  0  0  0  0  0  0  0  0
  1  8  1  0
  1 12  4  0
  1 14  4  0
  2  3  4  0
  2 18  4  0
  3 20  4  0
  3 22  4  0
  4 11  4  0
  4 21  4  0
  5  9  4  0
  5 16  4  0
  6 15  4  0
  6 16  4  0
  7 22  4  0
  7 26  4  0
  8 10  4  0
  8 25  4  0
  9 15  4  0
  9 17  1  0
 10 21  4  0
 11 25  4  0
 12 23  4  0
 13 20  4  0
 13 26  4  0
 14 19  4  0
 17 18  4  0
 17 24  4  0
 19 23  4  0
 20 24  4  0
 23 26  1  0
M  END
$$$$

 Created by Python create_sdf_string function

 26 30  0  0  0  0  0  0  0  0999 V2000
   10.0084   -1.8019   23.4945 C   0  0  0  0  0  0  0  0  0  0  0  0
   10.0005   -4.2520   16.5631 C   0  0  0  0  0  0  0  0  0  0  0  0
   10.2759   -4.0036   17.8845 C   0  0  0  0  0  0  0  0  0  0  0  0
    8.5652    1.5478   25.3778 N   0  0  0  0  0  0  0  0  0  0  0  0
    6.8048   -7.5457   17.8752 C   0  0  0  0  0  0  0  0  0  0  0  0
    6.1721   -8.2186   15.9886 N   0  0  0  0  0  0  0  0  0  0  0  0
   11.1764   -2.6600   19.5604 C   0  0  0  0  0  0  0  0  0  0  0  0
    9.5491   -0.6380   24.1912 C   0  0  0  0  0  0  0  0  0  0  0  0
    7.5337   -6.9256   16.9519 C   0  0  0  0  0  0  0  0  0  0  0  0
    9.6782    0.5671   23.5143 C   0  0  0  0  0  0  0  0  0  0  0  0
    8.4532    0.3482   26.0821 C   0  0  0  0  0  0  0  0  0  0  0  0
   10.4239   -1.7677   22.2230 N   0  0  0  0  0  0  0  0  0  0  0  0
    9.9468   -4.5953   20.1709 C   0  0  0  0  0  0  0  0  0  0  0  0
   10.0366   -3.0590   23.9864 N   0  0  0  0  0  0  0  0  0  0  0  0
    7.1191   -7.3636   15.7739 C   0  0  0  0  0  0  0  0  0  0  0  0
    5.9612   -8.3203   17.2732 N   0  0  0  0  0  0  0  0  0  0  0  0
    8.5296   -5.9814   17.1841 C   0  0  0  0  0  0  0  0  0  0  0  0
    9.1527   -5.2118   16.2116 C   0  0  0  0  0  0  0  0  0  0  0  0
   10.3364   -3.8368   22.9255 O   0  0  0  0  0  0  0  0  0  0  0  0
    9.6947   -4.8407   18.8534 C   0  0  0  0  0  0  0  0  0  0  0  0
    9.1596    1.7042   24.1381 C   0  0  0  0  0  0  0  0  0  0  0  0
   11.0456   -2.9774   18.2694 N   0  0  0  0  0  0  0  0  0  0  0  0
   10.4788   -3.0457   21.8593 C   0  0  0  0  0  0  0  0  0  0  0  0
    8.8693   -5.8099   18.4657 N   0  0  0  0  0  0  0  0  0  0  0  0
    8.9892   -0.7926   25.4573 C   0  0  0  0  0  0  0  0  0  0  0  0
   10.5677   -3.4462   20.5323 C   0  0  0  0  0  0  0  0  0  0  0  0
  1  8  1  0
  1 12  4  0
  1 14  4  0
  2  3  4  0
  2 18  4  0
  3 20  4  0
  3 22  4  0
  4 11  4  0
  4 21  4  0
  5  9  4  0
  5 16  4  0
  6 15  4  0
  6 16  4  0
  7 22  4  0
  7 26  4  0
  8 10  4  0
  8 25  4  0
  9 15  4  0
  9 17  1  0
 10 21  4  0
 11 25  4  0
 12 23  4  0
 13 20  4  0
 13 26  4  0
 14 19  4  0
 17 18  4  0
 17 24  4  0
 19 23  4  0
 20 24  4  0
 23 26  1  0
M  END
$$$$

 Created by Python create_sdf_string function

 26 30  0  0  0  0  0  0  0  0999 V2000
   10.0084   -1.8019   23.4945 C   0  0  0  0  0  0  0  0  0  0  0  0
   10.0005   -4.2520   16.5631 C   0  0  0  0  0  0  0  0  0  0  0  0
   10.2759   -4.0036   17.8845 C   0  0  0  0  0  0  0  0  0  0  0  0
    8.5652    1.5478   25.3778 N   0  0  0  0  0  0  0  0  0  0  0  0
    6.8048   -7.5457   17.8752 C   0  0  0  0  0  0  0  0  0  0  0  0
    6.1721   -8.2186   15.9886 N   0  0  0  0  0  0  0  0  0  0  0  0
   11.1764   -2.6600   19.5604 C   0  0  0  0  0  0  0  0  0  0  0  0
    9.5491   -0.6380   24.1912 C   0  0  0  0  0  0  0  0  0  0  0  0
    7.5337   -6.9256   16.9519 C   0  0  0  0  0  0  0  0  0  0  0  0
    9.6782    0.5671   23.5143 C   0  0  0  0  0  0  0  0  0  0  0  0
    8.4532    0.3482   26.0821 C   0  0  0  0  0  0  0  0  0  0  0  0
   10.4239   -1.7677   22.2230 N   0  0  0  0  0  0  0  0  0  0  0  0
    9.9468   -4.5953   20.1709 C   0  0  0  0  0  0  0  0  0  0  0  0
   10.0366   -3.0590   23.9864 N   0  0  0  0  0  0  0  0  0  0  0  0
    7.1191   -7.3636   15.7739 C   0  0  0  0  0  0  0  0  0  0  0  0
    5.9612   -8.3203   17.2732 N   0  0  0  0  0  0  0  0  0  0  0  0
    8.5296   -5.9814   17.1841 C   0  0  0  0  0  0  0  0  0  0  0  0
    9.1527   -5.2118   16.2116 C   0  0  0  0  0  0  0  0  0  0  0  0
   10.3364   -3.8368   22.9255 O   0  0  0  0  0  0  0  0  0  0  0  0
    9.6947   -4.8407   18.8534 C   0  0  0  0  0  0  0  0  0  0  0  0
    9.1596    1.7042   24.1381 C   0  0  0  0  0  0  0  0  0  0  0  0
   11.0456   -2.9774   18.2694 N   0  0  0  0  0  0  0  0  0  0  0  0
   10.4788   -3.0457   21.8593 C   0  0  0  0  0  0  0  0  0  0  0  0
    8.8693   -5.8099   18.4657 N   0  0  0  0  0  0  0  0  0  0  0  0
    8.9892   -0.7926   25.4573 C   0  0  0  0  0  0  0  0  0  0  0  0
   10.5677   -3.4462   20.5323 C   0  0  0  0  0  0  0  0  0  0  0  0
  1  8  1  0
  1 12  4  0
  1 14  4  0
  2  3  4  0
  2 18  4  0
  3 20  4  0
  3 22  4  0
  4 11  4  0
  4 21  4  0
  5  9  4  0
  5 16  4  0
  6 15  4  0
  6 16  4  0
  7 22  4  0
  7 26  4  0
  8 10  4  0
  8 25  4  0
  9 15  4  0
  9 17  1  0
 10 21  4  0
 11 25  4  0
 12 23  4  0
 13 20  4  0
 13 26  4  0
 14 19  4  0
 17 18  4  0
 17 24  4  0
 19 23  4  0
 20 24  4  0
 23 26  1  0
M  END
$$$$

 Created by Python create_sdf_string function

 26 30  0  0  0  0  0  0  0  0999 V2000
   10.0084   -1.8019   23.4945 C   0  0  0  0  0  0  0  0  0  0  0  0
   10.0005   -4.2520   16.5631 C   0  0  0  0  0  0  0  0  0  0  0  0
   10.2759   -4.0036   17.8845 C   0  0  0  0  0  0  0  0  0  0  0  0
    8.5652    1.5478   25.3778 N   0  0  0  0  0  0  0  0  0  0  0  0
    6.8048   -7.5457   17.8752 C   0  0  0  0  0  0  0  0  0  0  0  0
    6.1721   -8.2186   15.9886 N   0  0  0  0  0  0  0  0  0  0  0  0
   11.1764   -2.6600   19.5604 C   0  0  0  0  0  0  0  0  0  0  0  0
    9.5491   -0.6380   24.1912 C   0  0  0  0  0  0  0  0  0  0  0  0
    7.5337   -6.9256   16.9519 C   0  0  0  0  0  0  0  0  0  0  0  0
    9.6782    0.5671   23.5143 C   0  0  0  0  0  0  0  0  0  0  0  0
    8.4532    0.3482   26.0821 C   0  0  0  0  0  0  0  0  0  0  0  0
   10.4239   -1.7677   22.2230 N   0  0  0  0  0  0  0  0  0  0  0  0
    9.9468   -4.5953   20.1709 C   0  0  0  0  0  0  0  0  0  0  0  0
   10.0366   -3.0590   23.9864 N   0  0  0  0  0  0  0  0  0  0  0  0
    7.1191   -7.3636   15.7739 C   0  0  0  0  0  0  0  0  0  0  0  0
    5.9612   -8.3203   17.2732 N   0  0  0  0  0  0  0  0  0  0  0  0
    8.5296   -5.9814   17.1841 C   0  0  0  0  0  0  0  0  0  0  0  0
    9.1527   -5.2118   16.2116 C   0  0  0  0  0  0  0  0  0  0  0  0
   10.3364   -3.8368   22.9255 O   0  0  0  0  0  0  0  0  0  0  0  0
    9.6947   -4.8407   18.8534 C   0  0  0  0  0  0  0  0  0  0  0  0
    9.1596    1.7042   24.1381 C   0  0  0  0  0  0  0  0  0  0  0  0
   11.0456   -2.9774   18.2694 N   0  0  0  0  0  0  0  0  0  0  0  0
   10.4788   -3.0457   21.8593 C   0  0  0  0  0  0  0  0  0  0  0  0
    8.8693   -5.8099   18.4657 N   0  0  0  0  0  0  0  0  0  0  0  0
    8.9892   -0.7926   25.4573 C   0  0  0  0  0  0  0  0  0  0  0  0
   10.5677   -3.4462   20.5323 C   0  0  0  0  0  0  0  0  0  0  0  0
  1  8  1  0
  1 12  4  0
  1 14  4  0
  2  3  4  0
  2 18  4  0
  3 20  4  0
  3 22  4  0
  4 11  4  0
  4 21  4  0
  5  9  4  0
  5 16  4  0
  6 15  4  0
  6 16  4  0
  7 22  4  0
  7 26  4  0
  8 10  4  0
  8 25  4  0
  9 15  4  0
  9 17  1  0
 10 21  4  0
 11 25  4  0
 12 23  4  0
 13 20  4  0
 13 26  4  0
 14 19  4  0
 17 18  4  0
 17 24  4  0
 19 23  4  0
 20 24  4  0
 23 26  1  0
M  END
$$$$

 Created by Python create_sdf_string function

 26 30  0  0  0  0  0  0  0  0999 V2000
   10.0084   -1.8019   23.4945 C   0  0  0  0  0  0  0  0  0  0  0  0
   10.0005   -4.2520   16.5631 C   0  0  0  0  0  0  0  0  0  0  0  0
   10.2759   -4.0036   17.8845 C   0  0  0  0  0  0  0  0  0  0  0  0
    8.5652    1.5478   25.3778 N   0  0  0  0  0  0  0  0  0  0  0  0
    6.8048   -7.5457   17.8752 C   0  0  0  0  0  0  0  0  0  0  0  0
    6.1721   -8.2186   15.9886 N   0  0  0  0  0  0  0  0  0  0  0  0
   11.1764   -2.6600   19.5604 C   0  0  0  0  0  0  0  0  0  0  0  0
    9.5491   -0.6380   24.1912 C   0  0  0  0  0  0  0  0  0  0  0  0
    7.5337   -6.9256   16.9519 C   0  0  0  0  0  0  0  0  0  0  0  0
    9.6782    0.5671   23.5143 C   0  0  0  0  0  0  0  0  0  0  0  0
    8.4532    0.3482   26.0821 C   0  0  0  0  0  0  0  0  0  0  0  0
   10.4239   -1.7677   22.2230 N   0  0  0  0  0  0  0  0  0  0  0  0
    9.9468   -4.5953   20.1709 C   0  0  0  0  0  0  0  0  0  0  0  0
   10.0366   -3.0590   23.9864 N   0  0  0  0  0  0  0  0  0  0  0  0
    7.1191   -7.3636   15.7739 C   0  0  0  0  0  0  0  0  0  0  0  0
    5.9612   -8.3203   17.2732 N   0  0  0  0  0  0  0  0  0  0  0  0
    8.5296   -5.9814   17.1841 C   0  0  0  0  0  0  0  0  0  0  0  0
    9.1527   -5.2118   16.2116 C   0  0  0  0  0  0  0  0  0  0  0  0
   10.3364   -3.8368   22.9255 O   0  0  0  0  0  0  0  0  0  0  0  0
    9.6947   -4.8407   18.8534 C   0  0  0  0  0  0  0  0  0  0  0  0
    9.1596    1.7042   24.1381 C   0  0  0  0  0  0  0  0  0  0  0  0
   11.0456   -2.9774   18.2694 N   0  0  0  0  0  0  0  0  0  0  0  0
   10.4788   -3.0457   21.8593 C   0  0  0  0  0  0  0  0  0  0  0  0
    8.8693   -5.8099   18.4657 N   0  0  0  0  0  0  0  0  0  0  0  0
    8.9892   -0.7926   25.4573 C   0  0  0  0  0  0  0  0  0  0  0  0
   10.5677   -3.4462   20.5323 C   0  0  0  0  0  0  0  0  0  0  0  0
  1  8  1  0
  1 12  4  0
  1 14  4  0
  2  3  4  0
  2 18  4  0
  3 20  4  0
  3 22  4  0
  4 11  4  0
  4 21  4  0
  5  9  4  0
  5 16  4  0
  6 15  4  0
  6 16  4  0
  7 22  4  0
  7 26  4  0
  8 10  4  0
  8 25  4  0
  9 15  4  0
  9 17  1  0
 10 21  4  0
 11 25  4  0
 12 23  4  0
 13 20  4  0
 13 26  4  0
 14 19  4  0
 17 18  4  0
 17 24  4  0
 19 23  4  0
 20 24  4  0
 23 26  1  0
M  END
$$$$

 Created by Python create_sdf_string function

 26 30  0  0  0  0  0  0  0  0999 V2000
   10.0084   -1.8019   23.4945 C   0  0  0  0  0  0  0  0  0  0  0  0
   10.0005   -4.2520   16.5631 C   0  0  0  0  0  0  0  0  0  0  0  0
   10.2759   -4.0036   17.8845 C   0  0  0  0  0  0  0  0  0  0  0  0
    8.5652    1.5478   25.3778 N   0  0  0  0  0  0  0  0  0  0  0  0
    6.8048   -7.5457   17.8752 C   0  0  0  0  0  0  0  0  0  0  0  0
    6.1721   -8.2186   15.9886 N   0  0  0  0  0  0  0  0  0  0  0  0
   11.1764   -2.6600   19.5604 C   0  0  0  0  0  0  0  0  0  0  0  0
    9.5491   -0.6380   24.1912 C   0  0  0  0  0  0  0  0  0  0  0  0
    7.5337   -6.9256   16.9519 C   0  0  0  0  0  0  0  0  0  0  0  0
    9.6782    0.5671   23.5143 C   0  0  0  0  0  0  0  0  0  0  0  0
    8.4532    0.3482   26.0821 C   0  0  0  0  0  0  0  0  0  0  0  0
   10.4239   -1.7677   22.2230 N   0  0  0  0  0  0  0  0  0  0  0  0
    9.9468   -4.5953   20.1709 C   0  0  0  0  0  0  0  0  0  0  0  0
   10.0366   -3.0590   23.9864 N   0  0  0  0  0  0  0  0  0  0  0  0
    7.1191   -7.3636   15.7739 C   0  0  0  0  0  0  0  0  0  0  0  0
    5.9612   -8.3203   17.2732 N   0  0  0  0  0  0  0  0  0  0  0  0
    8.5296   -5.9814   17.1841 C   0  0  0  0  0  0  0  0  0  0  0  0
    9.1527   -5.2118   16.2116 C   0  0  0  0  0  0  0  0  0  0  0  0
   10.3364   -3.8368   22.9255 O   0  0  0  0  0  0  0  0  0  0  0  0
    9.6947   -4.8407   18.8534 C   0  0  0  0  0  0  0  0  0  0  0  0
    9.1596    1.7042   24.1381 C   0  0  0  0  0  0  0  0  0  0  0  0
   11.0456   -2.9774   18.2694 N   0  0  0  0  0  0  0  0  0  0  0  0
   10.4788   -3.0457   21.8593 C   0  0  0  0  0  0  0  0  0  0  0  0
    8.8693   -5.8099   18.4657 N   0  0  0  0  0  0  0  0  0  0  0  0
    8.9892   -0.7926   25.4573 C   0  0  0  0  0  0  0  0  0  0  0  0
   10.5677   -3.4462   20.5323 C   0  0  0  0  0  0  0  0  0  0  0  0
  1  8  1  0
  1 12  4  0
  1 14  4  0
  2  3  4  0
  2 18  4  0
  3 20  4  0
  3 22  4  0
  4 11  4  0
  4 21  4  0
  5  9  4  0
  5 16  4  0
  6 15  4  0
  6 16  4  0
  7 22  4  0
  7 26  4  0
  8 10  4  0
  8 25  4  0
  9 15  4  0
  9 17  1  0
 10 21  4  0
 11 25  4  0
 12 23  4  0
 13 20  4  0
 13 26  4  0
 14 19  4  0
 17 18  4  0
 17 24  4  0
 19 23  4  0
 20 24  4  0
 23 26  1  0
M  END
$$$$

 Created by Python create_sdf_string function

 26 30  0  0  0  0  0  0  0  0999 V2000
   10.0084   -1.8019   23.4945 C   0  0  0  0  0  0  0  0  0  0  0  0
   10.0005   -4.2520   16.5631 C   0  0  0  0  0  0  0  0  0  0  0  0
   10.2759   -4.0036   17.8845 C   0  0  0  0  0  0  0  0  0  0  0  0
    8.5652    1.5478   25.3778 N   0  0  0  0  0  0  0  0  0  0  0  0
    6.8048   -7.5457   17.8752 C   0  0  0  0  0  0  0  0  0  0  0  0
    6.1721   -8.2186   15.9886 N   0  0  0  0  0  0  0  0  0  0  0  0
   11.1764   -2.6600   19.5604 C   0  0  0  0  0  0  0  0  0  0  0  0
    9.5491   -0.6380   24.1912 C   0  0  0  0  0  0  0  0  0  0  0  0
    7.5337   -6.9256   16.9519 C   0  0  0  0  0  0  0  0  0  0  0  0
    9.6782    0.5671   23.5143 C   0  0  0  0  0  0  0  0  0  0  0  0
    8.4532    0.3482   26.0821 C   0  0  0  0  0  0  0  0  0  0  0  0
   10.4239   -1.7677   22.2230 N   0  0  0  0  0  0  0  0  0  0  0  0
    9.9468   -4.5953   20.1709 C   0  0  0  0  0  0  0  0  0  0  0  0
   10.0366   -3.0590   23.9864 N   0  0  0  0  0  0  0  0  0  0  0  0
    7.1191   -7.3636   15.7739 C   0  0  0  0  0  0  0  0  0  0  0  0
    5.9612   -8.3203   17.2732 N   0  0  0  0  0  0  0  0  0  0  0  0
    8.5296   -5.9814   17.1841 C   0  0  0  0  0  0  0  0  0  0  0  0
    9.1527   -5.2118   16.2116 C   0  0  0  0  0  0  0  0  0  0  0  0
   10.3364   -3.8368   22.9255 O   0  0  0  0  0  0  0  0  0  0  0  0
    9.6947   -4.8407   18.8534 C   0  0  0  0  0  0  0  0  0  0  0  0
    9.1596    1.7042   24.1381 C   0  0  0  0  0  0  0  0  0  0  0  0
   11.0456   -2.9774   18.2694 N   0  0  0  0  0  0  0  0  0  0  0  0
   10.4788   -3.0457   21.8593 C   0  0  0  0  0  0  0  0  0  0  0  0
    8.8693   -5.8099   18.4657 N   0  0  0  0  0  0  0  0  0  0  0  0
    8.9892   -0.7926   25.4573 C   0  0  0  0  0  0  0  0  0  0  0  0
   10.5677   -3.4462   20.5323 C   0  0  0  0  0  0  0  0  0  0  0  0
  1  8  1  0
  1 12  4  0
  1 14  4  0
  2  3  4  0
  2 18  4  0
  3 20  4  0
  3 22  4  0
  4 11  4  0
  4 21  4  0
  5  9  4  0
  5 16  4  0
  6 15  4  0
  6 16  4  0
  7 22  4  0
  7 26  4  0
  8 10  4  0
  8 25  4  0
  9 15  4  0
  9 17  1  0
 10 21  4  0
 11 25  4  0
 12 23  4  0
 13 20  4  0
 13 26  4  0
 14 19  4  0
 17 18  4  0
 17 24  4  0
 19 23  4  0
 20 24  4  0
 23 26  1  0
M  END
$$$$

 Created by Python create_sdf_string function

 26 30  0  0  0  0  0  0  0  0999 V2000
   10.0084   -1.8019   23.4945 C   0  0  0  0  0  0  0  0  0  0  0  0
   10.0005   -4.2520   16.5631 C   0  0  0  0  0  0  0  0  0  0  0  0
   10.2759   -4.0036   17.8845 C   0  0  0  0  0  0  0  0  0  0  0  0
    8.5652    1.5478   25.3778 N   0  0  0  0  0  0  0  0  0  0  0  0
    6.8048   -7.5457   17.8752 C   0  0  0  0  0  0  0  0  0  0  0  0
    6.1721   -8.2186   15.9886 N   0  0  0  0  0  0  0  0  0  0  0  0
   11.1764   -2.6600   19.5604 C   0  0  0  0  0  0  0  0  0  0  0  0
    9.5491   -0.6380   24.1912 C   0  0  0  0  0  0  0  0  0  0  0  0
    7.5337   -6.9256   16.9519 C   0  0  0  0  0  0  0  0  0  0  0  0
    9.6782    0.5671   23.5143 C   0  0  0  0  0  0  0  0  0  0  0  0
    8.4532    0.3482   26.0821 C   0  0  0  0  0  0  0  0  0  0  0  0
   10.4239   -1.7677   22.2230 N   0  0  0  0  0  0  0  0  0  0  0  0
    9.9468   -4.5953   20.1709 C   0  0  0  0  0  0  0  0  0  0  0  0
   10.0366   -3.0590   23.9864 N   0  0  0  0  0  0  0  0  0  0  0  0
    7.1191   -7.3636   15.7739 C   0  0  0  0  0  0  0  0  0  0  0  0
    5.9612   -8.3203   17.2732 N   0  0  0  0  0  0  0  0  0  0  0  0
    8.5296   -5.9814   17.1841 C   0  0  0  0  0  0  0  0  0  0  0  0
    9.1527   -5.2118   16.2116 C   0  0  0  0  0  0  0  0  0  0  0  0
   10.3364   -3.8368   22.9255 O   0  0  0  0  0  0  0  0  0  0  0  0
    9.6947   -4.8407   18.8534 C   0  0  0  0  0  0  0  0  0  0  0  0
    9.1596    1.7042   24.1381 C   0  0  0  0  0  0  0  0  0  0  0  0
   11.0456   -2.9774   18.2694 N   0  0  0  0  0  0  0  0  0  0  0  0
   10.4788   -3.0457   21.8593 C   0  0  0  0  0  0  0  0  0  0  0  0
    8.8693   -5.8099   18.4657 N   0  0  0  0  0  0  0  0  0  0  0  0
    8.9892   -0.7926   25.4573 C   0  0  0  0  0  0  0  0  0  0  0  0
   10.5677   -3.4462   20.5323 C   0  0  0  0  0  0  0  0  0  0  0  0
  1  8  1  0
  1 12  4  0
  1 14  4  0
  2  3  4  0
  2 18  4  0
  3 20  4  0
  3 22  4  0
  4 11  4  0
  4 21  4  0
  5  9  4  0
  5 16  4  0
  6 15  4  0
  6 16  4  0
  7 22  4  0
  7 26  4  0
  8 10  4  0
  8 25  4  0
  9 15  4  0
  9 17  1  0
 10 21  4  0
 11 25  4  0
 12 23  4  0
 13 20  4  0
 13 26  4  0
 14 19  4  0
 17 18  4  0
 17 24  4  0
 19 23  4  0
 20 24  4  0
 23 26  1  0
M  END
$$$$

 Created by Python create_sdf_string function

 26 30  0  0  0  0  0  0  0  0999 V2000
   10.0084   -1.8019   23.4945 C   0  0  0  0  0  0  0  0  0  0  0  0
   10.0005   -4.2520   16.5631 C   0  0  0  0  0  0  0  0  0  0  0  0
   10.2759   -4.0036   17.8845 C   0  0  0  0  0  0  0  0  0  0  0  0
    8.5652    1.5478   25.3778 N   0  0  0  0  0  0  0  0  0  0  0  0
    6.8048   -7.5457   17.8752 C   0  0  0  0  0  0  0  0  0  0  0  0
    6.1721   -8.2186   15.9886 N   0  0  0  0  0  0  0  0  0  0  0  0
   11.1764   -2.6600   19.5604 C   0  0  0  0  0  0  0  0  0  0  0  0
    9.5491   -0.6380   24.1912 C   0  0  0  0  0  0  0  0  0  0  0  0
    7.5337   -6.9256   16.9519 C   0  0  0  0  0  0  0  0  0  0  0  0
    9.6782    0.5671   23.5143 C   0  0  0  0  0  0  0  0  0  0  0  0
    8.4532    0.3482   26.0821 C   0  0  0  0  0  0  0  0  0  0  0  0
   10.4239   -1.7677   22.2230 N   0  0  0  0  0  0  0  0  0  0  0  0
    9.9468   -4.5953   20.1709 C   0  0  0  0  0  0  0  0  0  0  0  0
   10.0366   -3.0590   23.9864 N   0  0  0  0  0  0  0  0  0  0  0  0
    7.1191   -7.3636   15.7739 C   0  0  0  0  0  0  0  0  0  0  0  0
    5.9612   -8.3203   17.2732 N   0  0  0  0  0  0  0  0  0  0  0  0
    8.5296   -5.9814   17.1841 C   0  0  0  0  0  0  0  0  0  0  0  0
    9.1527   -5.2118   16.2116 C   0  0  0  0  0  0  0  0  0  0  0  0
   10.3364   -3.8368   22.9255 O   0  0  0  0  0  0  0  0  0  0  0  0
    9.6947   -4.8407   18.8534 C   0  0  0  0  0  0  0  0  0  0  0  0
    9.1596    1.7042   24.1381 C   0  0  0  0  0  0  0  0  0  0  0  0
   11.0456   -2.9774   18.2694 N   0  0  0  0  0  0  0  0  0  0  0  0
   10.4788   -3.0457   21.8593 C   0  0  0  0  0  0  0  0  0  0  0  0
    8.8693   -5.8099   18.4657 N   0  0  0  0  0  0  0  0  0  0  0  0
    8.9892   -0.7926   25.4573 C   0  0  0  0  0  0  0  0  0  0  0  0
   10.5677   -3.4462   20.5323 C   0  0  0  0  0  0  0  0  0  0  0  0
  1  8  1  0
  1 12  4  0
  1 14  4  0
  2  3  4  0
  2 18  4  0
  3 20  4  0
  3 22  4  0
  4 11  4  0
  4 21  4  0
  5  9  4  0
  5 16  4  0
  6 15  4  0
  6 16  4  0
  7 22  4  0
  7 26  4  0
  8 10  4  0
  8 25  4  0
  9 15  4  0
  9 17  1  0
 10 21  4  0
 11 25  4  0
 12 23  4  0
 13 20  4  0
 13 26  4  0
 14 19  4  0
 17 18  4  0
 17 24  4  0
 19 23  4  0
 20 24  4  0
 23 26  1  0
M  END
$$$$

 Created by Python create_sdf_string function

 26 30  0  0  0  0  0  0  0  0999 V2000
   10.0084   -1.8019   23.4945 C   0  0  0  0  0  0  0  0  0  0  0  0
   10.0005   -4.2520   16.5631 C   0  0  0  0  0  0  0  0  0  0  0  0
   10.2759   -4.0036   17.8845 C   0  0  0  0  0  0  0  0  0  0  0  0
    8.5652    1.5478   25.3778 N   0  0  0  0  0  0  0  0  0  0  0  0
    6.8048   -7.5457   17.8752 C   0  0  0  0  0  0  0  0  0  0  0  0
    6.1721   -8.2186   15.9886 N   0  0  0  0  0  0  0  0  0  0  0  0
   11.1764   -2.6600   19.5604 C   0  0  0  0  0  0  0  0  0  0  0  0
    9.5491   -0.6380   24.1912 C   0  0  0  0  0  0  0  0  0  0  0  0
    7.5337   -6.9256   16.9519 C   0  0  0  0  0  0  0  0  0  0  0  0
    9.6782    0.5671   23.5143 C   0  0  0  0  0  0  0  0  0  0  0  0
    8.4532    0.3482   26.0821 C   0  0  0  0  0  0  0  0  0  0  0  0
   10.4239   -1.7677   22.2230 N   0  0  0  0  0  0  0  0  0  0  0  0
    9.9468   -4.5953   20.1709 C   0  0  0  0  0  0  0  0  0  0  0  0
   10.0366   -3.0590   23.9864 N   0  0  0  0  0  0  0  0  0  0  0  0
    7.1191   -7.3636   15.7739 C   0  0  0  0  0  0  0  0  0  0  0  0
    5.9612   -8.3203   17.2732 N   0  0  0  0  0  0  0  0  0  0  0  0
    8.5296   -5.9814   17.1841 C   0  0  0  0  0  0  0  0  0  0  0  0
    9.1527   -5.2118   16.2116 C   0  0  0  0  0  0  0  0  0  0  0  0
   10.3364   -3.8368   22.9255 O   0  0  0  0  0  0  0  0  0  0  0  0
    9.6947   -4.8407   18.8534 C   0  0  0  0  0  0  0  0  0  0  0  0
    9.1596    1.7042   24.1381 C   0  0  0  0  0  0  0  0  0  0  0  0
   11.0456   -2.9774   18.2694 N   0  0  0  0  0  0  0  0  0  0  0  0
   10.4788   -3.0457   21.8593 C   0  0  0  0  0  0  0  0  0  0  0  0
    8.8693   -5.8099   18.4657 N   0  0  0  0  0  0  0  0  0  0  0  0
    8.9892   -0.7926   25.4573 C   0  0  0  0  0  0  0  0  0  0  0  0
   10.5677   -3.4462   20.5323 C   0  0  0  0  0  0  0  0  0  0  0  0
  1  8  1  0
  1 12  4  0
  1 14  4  0
  2  3  4  0
  2 18  4  0
  3 20  4  0
  3 22  4  0
  4 11  4  0
  4 21  4  0
  5  9  4  0
  5 16  4  0
  6 15  4  0
  6 16  4  0
  7 22  4  0
  7 26  4  0
  8 10  4  0
  8 25  4  0
  9 15  4  0
  9 17  1  0
 10 21  4  0
 11 25  4  0
 12 23  4  0
 13 20  4  0
 13 26  4  0
 14 19  4  0
 17 18  4  0
 17 24  4  0
 19 23  4  0
 20 24  4  0
 23 26  1  0
M  END
$$$$

 Created by Python create_sdf_string function

 26 30  0  0  0  0  0  0  0  0999 V2000
   10.0084   -1.8019   23.4945 C   0  0  0  0  0  0  0  0  0  0  0  0
   10.0005   -4.2520   16.5631 C   0  0  0  0  0  0  0  0  0  0  0  0
   10.2759   -4.0036   17.8845 C   0  0  0  0  0  0  0  0  0  0  0  0
    8.5652    1.5478   25.3778 N   0  0  0  0  0  0  0  0  0  0  0  0
    6.8048   -7.5457   17.8752 C   0  0  0  0  0  0  0  0  0  0  0  0
    6.1721   -8.2186   15.9886 N   0  0  0  0  0  0  0  0  0  0  0  0
   11.1764   -2.6600   19.5604 C   0  0  0  0  0  0  0  0  0  0  0  0
    9.5491   -0.6380   24.1912 C   0  0  0  0  0  0  0  0  0  0  0  0
    7.5337   -6.9256   16.9519 C   0  0  0  0  0  0  0  0  0  0  0  0
    9.6782    0.5671   23.5143 C   0  0  0  0  0  0  0  0  0  0  0  0
    8.4532    0.3482   26.0821 C   0  0  0  0  0  0  0  0  0  0  0  0
   10.4239   -1.7677   22.2230 N   0  0  0  0  0  0  0  0  0  0  0  0
    9.9468   -4.5953   20.1709 C   0  0  0  0  0  0  0  0  0  0  0  0
   10.0366   -3.0590   23.9864 N   0  0  0  0  0  0  0  0  0  0  0  0
    7.1191   -7.3636   15.7739 C   0  0  0  0  0  0  0  0  0  0  0  0
    5.9612   -8.3203   17.2732 N   0  0  0  0  0  0  0  0  0  0  0  0
    8.5296   -5.9814   17.1841 C   0  0  0  0  0  0  0  0  0  0  0  0
    9.1527   -5.2118   16.2116 C   0  0  0  0  0  0  0  0  0  0  0  0
   10.3364   -3.8368   22.9255 O   0  0  0  0  0  0  0  0  0  0  0  0
    9.6947   -4.8407   18.8534 C   0  0  0  0  0  0  0  0  0  0  0  0
    9.1596    1.7042   24.1381 C   0  0  0  0  0  0  0  0  0  0  0  0
   11.0456   -2.9774   18.2694 N   0  0  0  0  0  0  0  0  0  0  0  0
   10.4788   -3.0457   21.8593 C   0  0  0  0  0  0  0  0  0  0  0  0
    8.8693   -5.8099   18.4657 N   0  0  0  0  0  0  0  0  0  0  0  0
    8.9892   -0.7926   25.4573 C   0  0  0  0  0  0  0  0  0  0  0  0
   10.5677   -3.4462   20.5323 C   0  0  0  0  0  0  0  0  0  0  0  0
  1  8  1  0
  1 12  4  0
  1 14  4  0
  2  3  4  0
  2 18  4  0
  3 20  4  0
  3 22  4  0
  4 11  4  0
  4 21  4  0
  5  9  4  0
  5 16  4  0
  6 15  4  0
  6 16  4  0
  7 22  4  0
  7 26  4  0
  8 10  4  0
  8 25  4  0
  9 15  4  0
  9 17  1  0
 10 21  4  0
 11 25  4  0
 12 23  4  0
 13 20  4  0
 13 26  4  0
 14 19  4  0
 17 18  4  0
 17 24  4  0
 19 23  4  0
 20 24  4  0
 23 26  1  0
M  END
$$$$

 Created by Python create_sdf_string function

 26 30  0  0  0  0  0  0  0  0999 V2000
   10.0084   -1.8019   23.4945 C   0  0  0  0  0  0  0  0  0  0  0  0
   10.0005   -4.2520   16.5631 C   0  0  0  0  0  0  0  0  0  0  0  0
   10.2759   -4.0036   17.8845 C   0  0  0  0  0  0  0  0  0  0  0  0
    8.5652    1.5478   25.3778 N   0  0  0  0  0  0  0  0  0  0  0  0
    6.8048   -7.5457   17.8752 C   0  0  0  0  0  0  0  0  0  0  0  0
    6.1721   -8.2186   15.9886 N   0  0  0  0  0  0  0  0  0  0  0  0
   11.1764   -2.6600   19.5604 C   0  0  0  0  0  0  0  0  0  0  0  0
    9.5491   -0.6380   24.1912 C   0  0  0  0  0  0  0  0  0  0  0  0
    7.5337   -6.9256   16.9519 C   0  0  0  0  0  0  0  0  0  0  0  0
    9.6782    0.5671   23.5143 C   0  0  0  0  0  0  0  0  0  0  0  0
    8.4532    0.3482   26.0821 C   0  0  0  0  0  0  0  0  0  0  0  0
   10.4239   -1.7677   22.2230 N   0  0  0  0  0  0  0  0  0  0  0  0
    9.9468   -4.5953   20.1709 C   0  0  0  0  0  0  0  0  0  0  0  0
   10.0366   -3.0590   23.9864 N   0  0  0  0  0  0  0  0  0  0  0  0
    7.1191   -7.3636   15.7739 C   0  0  0  0  0  0  0  0  0  0  0  0
    5.9612   -8.3203   17.2732 N   0  0  0  0  0  0  0  0  0  0  0  0
    8.5296   -5.9814   17.1841 C   0  0  0  0  0  0  0  0  0  0  0  0
    9.1527   -5.2118   16.2116 C   0  0  0  0  0  0  0  0  0  0  0  0
   10.3364   -3.8368   22.9255 O   0  0  0  0  0  0  0  0  0  0  0  0
    9.6947   -4.8407   18.8534 C   0  0  0  0  0  0  0  0  0  0  0  0
    9.1596    1.7042   24.1381 C   0  0  0  0  0  0  0  0  0  0  0  0
   11.0456   -2.9774   18.2694 N   0  0  0  0  0  0  0  0  0  0  0  0
   10.4788   -3.0457   21.8593 C   0  0  0  0  0  0  0  0  0  0  0  0
    8.8693   -5.8099   18.4657 N   0  0  0  0  0  0  0  0  0  0  0  0
    8.9892   -0.7926   25.4573 C   0  0  0  0  0  0  0  0  0  0  0  0
   10.5677   -3.4462   20.5323 C   0  0  0  0  0  0  0  0  0  0  0  0
  1  8  1  0
  1 12  4  0
  1 14  4  0
  2  3  4  0
  2 18  4  0
  3 20  4  0
  3 22  4  0
  4 11  4  0
  4 21  4  0
  5  9  4  0
  5 16  4  0
  6 15  4  0
  6 16  4  0
  7 22  4  0
  7 26  4  0
  8 10  4  0
  8 25  4  0
  9 15  4  0
  9 17  1  0
 10 21  4  0
 11 25  4  0
 12 23  4  0
 13 20  4  0
 13 26  4  0
 14 19  4  0
 17 18  4  0
 17 24  4  0
 19 23  4  0
 20 24  4  0
 23 26  1  0
M  END
$$$$

 Created by Python create_sdf_string function

 26 30  0  0  0  0  0  0  0  0999 V2000
   10.0084   -1.8019   23.4945 C   0  0  0  0  0  0  0  0  0  0  0  0
   10.0005   -4.2520   16.5631 C   0  0  0  0  0  0  0  0  0  0  0  0
   10.2759   -4.0036   17.8845 C   0  0  0  0  0  0  0  0  0  0  0  0
    8.5652    1.5478   25.3778 N   0  0  0  0  0  0  0  0  0  0  0  0
    6.8048   -7.5457   17.8752 C   0  0  0  0  0  0  0  0  0  0  0  0
    6.1721   -8.2186   15.9886 N   0  0  0  0  0  0  0  0  0  0  0  0
   11.1764   -2.6600   19.5604 C   0  0  0  0  0  0  0  0  0  0  0  0
    9.5491   -0.6380   24.1912 C   0  0  0  0  0  0  0  0  0  0  0  0
    7.5337   -6.9256   16.9519 C   0  0  0  0  0  0  0  0  0  0  0  0
    9.6782    0.5671   23.5143 C   0  0  0  0  0  0  0  0  0  0  0  0
    8.4532    0.3482   26.0821 C   0  0  0  0  0  0  0  0  0  0  0  0
   10.4239   -1.7677   22.2230 N   0  0  0  0  0  0  0  0  0  0  0  0
    9.9468   -4.5953   20.1709 C   0  0  0  0  0  0  0  0  0  0  0  0
   10.0366   -3.0590   23.9864 N   0  0  0  0  0  0  0  0  0  0  0  0
    7.1191   -7.3636   15.7739 C   0  0  0  0  0  0  0  0  0  0  0  0
    5.9612   -8.3203   17.2732 N   0  0  0  0  0  0  0  0  0  0  0  0
    8.5296   -5.9814   17.1841 C   0  0  0  0  0  0  0  0  0  0  0  0
    9.1527   -5.2118   16.2116 C   0  0  0  0  0  0  0  0  0  0  0  0
   10.3364   -3.8368   22.9255 O   0  0  0  0  0  0  0  0  0  0  0  0
    9.6947   -4.8407   18.8534 C   0  0  0  0  0  0  0  0  0  0  0  0
    9.1596    1.7042   24.1381 C   0  0  0  0  0  0  0  0  0  0  0  0
   11.0456   -2.9774   18.2694 N   0  0  0  0  0  0  0  0  0  0  0  0
   10.4788   -3.0457   21.8593 C   0  0  0  0  0  0  0  0  0  0  0  0
    8.8693   -5.8099   18.4657 N   0  0  0  0  0  0  0  0  0  0  0  0
    8.9892   -0.7926   25.4573 C   0  0  0  0  0  0  0  0  0  0  0  0
   10.5677   -3.4462   20.5323 C   0  0  0  0  0  0  0  0  0  0  0  0
  1  8  1  0
  1 12  4  0
  1 14  4  0
  2  3  4  0
  2 18  4  0
  3 20  4  0
  3 22  4  0
  4 11  4  0
  4 21  4  0
  5  9  4  0
  5 16  4  0
  6 15  4  0
  6 16  4  0
  7 22  4  0
  7 26  4  0
  8 10  4  0
  8 25  4  0
  9 15  4  0
  9 17  1  0
 10 21  4  0
 11 25  4  0
 12 23  4  0
 13 20  4  0
 13 26  4  0
 14 19  4  0
 17 18  4  0
 17 24  4  0
 19 23  4  0
 20 24  4  0
 23 26  1  0
M  END
$$$$

 Created by Python create_sdf_string function

 26 30  0  0  0  0  0  0  0  0999 V2000
   10.0084   -1.8019   23.4945 C   0  0  0  0  0  0  0  0  0  0  0  0
   10.0005   -4.2520   16.5631 C   0  0  0  0  0  0  0  0  0  0  0  0
   10.2759   -4.0036   17.8845 C   0  0  0  0  0  0  0  0  0  0  0  0
    8.5652    1.5478   25.3778 N   0  0  0  0  0  0  0  0  0  0  0  0
    6.8048   -7.5457   17.8752 C   0  0  0  0  0  0  0  0  0  0  0  0
    6.1721   -8.2186   15.9886 N   0  0  0  0  0  0  0  0  0  0  0  0
   11.1764   -2.6600   19.5604 C   0  0  0  0  0  0  0  0  0  0  0  0
    9.5491   -0.6380   24.1912 C   0  0  0  0  0  0  0  0  0  0  0  0
    7.5337   -6.9256   16.9519 C   0  0  0  0  0  0  0  0  0  0  0  0
    9.6782    0.5671   23.5143 C   0  0  0  0  0  0  0  0  0  0  0  0
    8.4532    0.3482   26.0821 C   0  0  0  0  0  0  0  0  0  0  0  0
   10.4239   -1.7677   22.2230 N   0  0  0  0  0  0  0  0  0  0  0  0
    9.9468   -4.5953   20.1709 C   0  0  0  0  0  0  0  0  0  0  0  0
   10.0366   -3.0590   23.9864 N   0  0  0  0  0  0  0  0  0  0  0  0
    7.1191   -7.3636   15.7739 C   0  0  0  0  0  0  0  0  0  0  0  0
    5.9612   -8.3203   17.2732 N   0  0  0  0  0  0  0  0  0  0  0  0
    8.5296   -5.9814   17.1841 C   0  0  0  0  0  0  0  0  0  0  0  0
    9.1527   -5.2118   16.2116 C   0  0  0  0  0  0  0  0  0  0  0  0
   10.3364   -3.8368   22.9255 O   0  0  0  0  0  0  0  0  0  0  0  0
    9.6947   -4.8407   18.8534 C   0  0  0  0  0  0  0  0  0  0  0  0
    9.1596    1.7042   24.1381 C   0  0  0  0  0  0  0  0  0  0  0  0
   11.0456   -2.9774   18.2694 N   0  0  0  0  0  0  0  0  0  0  0  0
   10.4788   -3.0457   21.8593 C   0  0  0  0  0  0  0  0  0  0  0  0
    8.8693   -5.8099   18.4657 N   0  0  0  0  0  0  0  0  0  0  0  0
    8.9892   -0.7926   25.4573 C   0  0  0  0  0  0  0  0  0  0  0  0
   10.5677   -3.4462   20.5323 C   0  0  0  0  0  0  0  0  0  0  0  0
  1  8  1  0
  1 12  4  0
  1 14  4  0
  2  3  4  0
  2 18  4  0
  3 20  4  0
  3 22  4  0
  4 11  4  0
  4 21  4  0
  5  9  4  0
  5 16  4  0
  6 15  4  0
  6 16  4  0
  7 22  4  0
  7 26  4  0
  8 10  4  0
  8 25  4  0
  9 15  4  0
  9 17  1  0
 10 21  4  0
 11 25  4  0
 12 23  4  0
 13 20  4  0
 13 26  4  0
 14 19  4  0
 17 18  4  0
 17 24  4  0
 19 23  4  0
 20 24  4  0
 23 26  1  0
M  END
$$$$

 Created by Python create_sdf_string function

 26 30  0  0  0  0  0  0  0  0999 V2000
   10.0084   -1.8019   23.4945 C   0  0  0  0  0  0  0  0  0  0  0  0
   10.0005   -4.2520   16.5631 C   0  0  0  0  0  0  0  0  0  0  0  0
   10.2759   -4.0036   17.8845 C   0  0  0  0  0  0  0  0  0  0  0  0
    8.5652    1.5478   25.3778 N   0  0  0  0  0  0  0  0  0  0  0  0
    6.8048   -7.5457   17.8752 C   0  0  0  0  0  0  0  0  0  0  0  0
    6.1721   -8.2186   15.9886 N   0  0  0  0  0  0  0  0  0  0  0  0
   11.1764   -2.6600   19.5604 C   0  0  0  0  0  0  0  0  0  0  0  0
    9.5491   -0.6380   24.1912 C   0  0  0  0  0  0  0  0  0  0  0  0
    7.5337   -6.9256   16.9519 C   0  0  0  0  0  0  0  0  0  0  0  0
    9.6782    0.5671   23.5143 C   0  0  0  0  0  0  0  0  0  0  0  0
    8.4532    0.3482   26.0821 C   0  0  0  0  0  0  0  0  0  0  0  0
   10.4239   -1.7677   22.2230 N   0  0  0  0  0  0  0  0  0  0  0  0
    9.9468   -4.5953   20.1709 C   0  0  0  0  0  0  0  0  0  0  0  0
   10.0366   -3.0590   23.9864 N   0  0  0  0  0  0  0  0  0  0  0  0
    7.1191   -7.3636   15.7739 C   0  0  0  0  0  0  0  0  0  0  0  0
    5.9612   -8.3203   17.2732 N   0  0  0  0  0  0  0  0  0  0  0  0
    8.5296   -5.9814   17.1841 C   0  0  0  0  0  0  0  0  0  0  0  0
    9.1527   -5.2118   16.2116 C   0  0  0  0  0  0  0  0  0  0  0  0
   10.3364   -3.8368   22.9255 O   0  0  0  0  0  0  0  0  0  0  0  0
    9.6947   -4.8407   18.8534 C   0  0  0  0  0  0  0  0  0  0  0  0
    9.1596    1.7042   24.1381 C   0  0  0  0  0  0  0  0  0  0  0  0
   11.0456   -2.9774   18.2694 N   0  0  0  0  0  0  0  0  0  0  0  0
   10.4788   -3.0457   21.8593 C   0  0  0  0  0  0  0  0  0  0  0  0
    8.8693   -5.8099   18.4657 N   0  0  0  0  0  0  0  0  0  0  0  0
    8.9892   -0.7926   25.4573 C   0  0  0  0  0  0  0  0  0  0  0  0
   10.5677   -3.4462   20.5323 C   0  0  0  0  0  0  0  0  0  0  0  0
  1  8  1  0
  1 12  4  0
  1 14  4  0
  2  3  4  0
  2 18  4  0
  3 20  4  0
  3 22  4  0
  4 11  4  0
  4 21  4  0
  5  9  4  0
  5 16  4  0
  6 15  4  0
  6 16  4  0
  7 22  4  0
  7 26  4  0
  8 10  4  0
  8 25  4  0
  9 15  4  0
  9 17  1  0
 10 21  4  0
 11 25  4  0
 12 23  4  0
 13 20  4  0
 13 26  4  0
 14 19  4  0
 17 18  4  0
 17 24  4  0
 19 23  4  0
 20 24  4  0
 23 26  1  0
M  END
$$$$

 Created by Python create_sdf_string function

 26 30  0  0  0  0  0  0  0  0999 V2000
   10.0084   -1.8019   23.4945 C   0  0  0  0  0  0  0  0  0  0  0  0
   10.0005   -4.2520   16.5631 C   0  0  0  0  0  0  0  0  0  0  0  0
   10.2759   -4.0036   17.8845 C   0  0  0  0  0  0  0  0  0  0  0  0
    8.5652    1.5478   25.3778 N   0  0  0  0  0  0  0  0  0  0  0  0
    6.8048   -7.5457   17.8752 C   0  0  0  0  0  0  0  0  0  0  0  0
    6.1721   -8.2186   15.9886 N   0  0  0  0  0  0  0  0  0  0  0  0
   11.1764   -2.6600   19.5604 C   0  0  0  0  0  0  0  0  0  0  0  0
    9.5491   -0.6380   24.1912 C   0  0  0  0  0  0  0  0  0  0  0  0
    7.5337   -6.9256   16.9519 C   0  0  0  0  0  0  0  0  0  0  0  0
    9.6782    0.5671   23.5143 C   0  0  0  0  0  0  0  0  0  0  0  0
    8.4532    0.3482   26.0821 C   0  0  0  0  0  0  0  0  0  0  0  0
   10.4239   -1.7677   22.2230 N   0  0  0  0  0  0  0  0  0  0  0  0
    9.9468   -4.5953   20.1709 C   0  0  0  0  0  0  0  0  0  0  0  0
   10.0366   -3.0590   23.9864 N   0  0  0  0  0  0  0  0  0  0  0  0
    7.1191   -7.3636   15.7739 C   0  0  0  0  0  0  0  0  0  0  0  0
    5.9612   -8.3203   17.2732 N   0  0  0  0  0  0  0  0  0  0  0  0
    8.5296   -5.9814   17.1841 C   0  0  0  0  0  0  0  0  0  0  0  0
    9.1527   -5.2118   16.2116 C   0  0  0  0  0  0  0  0  0  0  0  0
   10.3364   -3.8368   22.9255 O   0  0  0  0  0  0  0  0  0  0  0  0
    9.6947   -4.8407   18.8534 C   0  0  0  0  0  0  0  0  0  0  0  0
    9.1596    1.7042   24.1381 C   0  0  0  0  0  0  0  0  0  0  0  0
   11.0456   -2.9774   18.2694 N   0  0  0  0  0  0  0  0  0  0  0  0
   10.4788   -3.0457   21.8593 C   0  0  0  0  0  0  0  0  0  0  0  0
    8.8693   -5.8099   18.4657 N   0  0  0  0  0  0  0  0  0  0  0  0
    8.9892   -0.7926   25.4573 C   0  0  0  0  0  0  0  0  0  0  0  0
   10.5677   -3.4462   20.5323 C   0  0  0  0  0  0  0  0  0  0  0  0
  1  8  1  0
  1 12  4  0
  1 14  4  0
  2  3  4  0
  2 18  4  0
  3 20  4  0
  3 22  4  0
  4 11  4  0
  4 21  4  0
  5  9  4  0
  5 16  4  0
  6 15  4  0
  6 16  4  0
  7 22  4  0
  7 26  4  0
  8 10  4  0
  8 25  4  0
  9 15  4  0
  9 17  1  0
 10 21  4  0
 11 25  4  0
 12 23  4  0
 13 20  4  0
 13 26  4  0
 14 19  4  0
 17 18  4  0
 17 24  4  0
 19 23  4  0
 20 24  4  0
 23 26  1  0
M  END
$$$$

 Created by Python create_sdf_string function

 26 30  0  0  0  0  0  0  0  0999 V2000
   10.0084   -1.8019   23.4945 C   0  0  0  0  0  0  0  0  0  0  0  0
   10.0005   -4.2520   16.5631 C   0  0  0  0  0  0  0  0  0  0  0  0
   10.2759   -4.0036   17.8845 C   0  0  0  0  0  0  0  0  0  0  0  0
    8.5652    1.5478   25.3778 N   0  0  0  0  0  0  0  0  0  0  0  0
    6.8048   -7.5457   17.8752 C   0  0  0  0  0  0  0  0  0  0  0  0
    6.1721   -8.2186   15.9886 N   0  0  0  0  0  0  0  0  0  0  0  0
   11.1764   -2.6600   19.5604 C   0  0  0  0  0  0  0  0  0  0  0  0
    9.5491   -0.6380   24.1912 C   0  0  0  0  0  0  0  0  0  0  0  0
    7.5337   -6.9256   16.9519 C   0  0  0  0  0  0  0  0  0  0  0  0
    9.6782    0.5671   23.5143 C   0  0  0  0  0  0  0  0  0  0  0  0
    8.4532    0.3482   26.0821 C   0  0  0  0  0  0  0  0  0  0  0  0
   10.4239   -1.7677   22.2230 N   0  0  0  0  0  0  0  0  0  0  0  0
    9.9468   -4.5953   20.1709 C   0  0  0  0  0  0  0  0  0  0  0  0
   10.0366   -3.0590   23.9864 N   0  0  0  0  0  0  0  0  0  0  0  0
    7.1191   -7.3636   15.7739 C   0  0  0  0  0  0  0  0  0  0  0  0
    5.9612   -8.3203   17.2732 N   0  0  0  0  0  0  0  0  0  0  0  0
    8.5296   -5.9814   17.1841 C   0  0  0  0  0  0  0  0  0  0  0  0
    9.1527   -5.2118   16.2116 C   0  0  0  0  0  0  0  0  0  0  0  0
   10.3364   -3.8368   22.9255 O   0  0  0  0  0  0  0  0  0  0  0  0
    9.6947   -4.8407   18.8534 C   0  0  0  0  0  0  0  0  0  0  0  0
    9.1596    1.7042   24.1381 C   0  0  0  0  0  0  0  0  0  0  0  0
   11.0456   -2.9774   18.2694 N   0  0  0  0  0  0  0  0  0  0  0  0
   10.4788   -3.0457   21.8593 C   0  0  0  0  0  0  0  0  0  0  0  0
    8.8693   -5.8099   18.4657 N   0  0  0  0  0  0  0  0  0  0  0  0
    8.9892   -0.7926   25.4573 C   0  0  0  0  0  0  0  0  0  0  0  0
   10.5677   -3.4462   20.5323 C   0  0  0  0  0  0  0  0  0  0  0  0
  1  8  1  0
  1 12  4  0
  1 14  4  0
  2  3  4  0
  2 18  4  0
  3 20  4  0
  3 22  4  0
  4 11  4  0
  4 21  4  0
  5  9  4  0
  5 16  4  0
  6 15  4  0
  6 16  4  0
  7 22  4  0
  7 26  4  0
  8 10  4  0
  8 25  4  0
  9 15  4  0
  9 17  1  0
 10 21  4  0
 11 25  4  0
 12 23  4  0
 13 20  4  0
 13 26  4  0
 14 19  4  0
 17 18  4  0
 17 24  4  0
 19 23  4  0
 20 24  4  0
 23 26  1  0
M  END
$$$$

 Created by Python create_sdf_string function

 26 30  0  0  0  0  0  0  0  0999 V2000
   10.0084   -1.8019   23.4945 C   0  0  0  0  0  0  0  0  0  0  0  0
   10.0005   -4.2520   16.5631 C   0  0  0  0  0  0  0  0  0  0  0  0
   10.2759   -4.0036   17.8845 C   0  0  0  0  0  0  0  0  0  0  0  0
    8.5652    1.5478   25.3778 N   0  0  0  0  0  0  0  0  0  0  0  0
    6.8048   -7.5457   17.8752 C   0  0  0  0  0  0  0  0  0  0  0  0
    6.1721   -8.2186   15.9886 N   0  0  0  0  0  0  0  0  0  0  0  0
   11.1764   -2.6600   19.5604 C   0  0  0  0  0  0  0  0  0  0  0  0
    9.5491   -0.6380   24.1912 C   0  0  0  0  0  0  0  0  0  0  0  0
    7.5337   -6.9256   16.9519 C   0  0  0  0  0  0  0  0  0  0  0  0
    9.6782    0.5671   23.5143 C   0  0  0  0  0  0  0  0  0  0  0  0
    8.4532    0.3482   26.0821 C   0  0  0  0  0  0  0  0  0  0  0  0
   10.4239   -1.7677   22.2230 N   0  0  0  0  0  0  0  0  0  0  0  0
    9.9468   -4.5953   20.1709 C   0  0  0  0  0  0  0  0  0  0  0  0
   10.0366   -3.0590   23.9864 N   0  0  0  0  0  0  0  0  0  0  0  0
    7.1191   -7.3636   15.7739 C   0  0  0  0  0  0  0  0  0  0  0  0
    5.9612   -8.3203   17.2732 N   0  0  0  0  0  0  0  0  0  0  0  0
    8.5296   -5.9814   17.1841 C   0  0  0  0  0  0  0  0  0  0  0  0
    9.1527   -5.2118   16.2116 C   0  0  0  0  0  0  0  0  0  0  0  0
   10.3364   -3.8368   22.9255 O   0  0  0  0  0  0  0  0  0  0  0  0
    9.6947   -4.8407   18.8534 C   0  0  0  0  0  0  0  0  0  0  0  0
    9.1596    1.7042   24.1381 C   0  0  0  0  0  0  0  0  0  0  0  0
   11.0456   -2.9774   18.2694 N   0  0  0  0  0  0  0  0  0  0  0  0
   10.4788   -3.0457   21.8593 C   0  0  0  0  0  0  0  0  0  0  0  0
    8.8693   -5.8099   18.4657 N   0  0  0  0  0  0  0  0  0  0  0  0
    8.9892   -0.7926   25.4573 C   0  0  0  0  0  0  0  0  0  0  0  0
   10.5677   -3.4462   20.5323 C   0  0  0  0  0  0  0  0  0  0  0  0
  1  8  1  0
  1 12  4  0
  1 14  4  0
  2  3  4  0
  2 18  4  0
  3 20  4  0
  3 22  4  0
  4 11  4  0
  4 21  4  0
  5  9  4  0
  5 16  4  0
  6 15  4  0
  6 16  4  0
  7 22  4  0
  7 26  4  0
  8 10  4  0
  8 25  4  0
  9 15  4  0
  9 17  1  0
 10 21  4  0
 11 25  4  0
 12 23  4  0
 13 20  4  0
 13 26  4  0
 14 19  4  0
 17 18  4  0
 17 24  4  0
 19 23  4  0
 20 24  4  0
 23 26  1  0
M  END
$$$$

 Created by Python create_sdf_string function

 26 30  0  0  0  0  0  0  0  0999 V2000
   10.0084   -1.8019   23.4945 C   0  0  0  0  0  0  0  0  0  0  0  0
   10.0005   -4.2520   16.5631 C   0  0  0  0  0  0  0  0  0  0  0  0
   10.2759   -4.0036   17.8845 C   0  0  0  0  0  0  0  0  0  0  0  0
    8.5652    1.5478   25.3778 N   0  0  0  0  0  0  0  0  0  0  0  0
    6.8048   -7.5457   17.8752 C   0  0  0  0  0  0  0  0  0  0  0  0
    6.1721   -8.2186   15.9886 N   0  0  0  0  0  0  0  0  0  0  0  0
   11.1764   -2.6600   19.5604 C   0  0  0  0  0  0  0  0  0  0  0  0
    9.5491   -0.6380   24.1912 C   0  0  0  0  0  0  0  0  0  0  0  0
    7.5337   -6.9256   16.9519 C   0  0  0  0  0  0  0  0  0  0  0  0
    9.6782    0.5671   23.5143 C   0  0  0  0  0  0  0  0  0  0  0  0
    8.4532    0.3482   26.0821 C   0  0  0  0  0  0  0  0  0  0  0  0
   10.4239   -1.7677   22.2230 N   0  0  0  0  0  0  0  0  0  0  0  0
    9.9468   -4.5953   20.1709 C   0  0  0  0  0  0  0  0  0  0  0  0
   10.0366   -3.0590   23.9864 N   0  0  0  0  0  0  0  0  0  0  0  0
    7.1191   -7.3636   15.7739 C   0  0  0  0  0  0  0  0  0  0  0  0
    5.9612   -8.3203   17.2732 N   0  0  0  0  0  0  0  0  0  0  0  0
    8.5296   -5.9814   17.1841 C   0  0  0  0  0  0  0  0  0  0  0  0
    9.1527   -5.2118   16.2116 C   0  0  0  0  0  0  0  0  0  0  0  0
   10.3364   -3.8368   22.9255 O   0  0  0  0  0  0  0  0  0  0  0  0
    9.6947   -4.8407   18.8534 C   0  0  0  0  0  0  0  0  0  0  0  0
    9.1596    1.7042   24.1381 C   0  0  0  0  0  0  0  0  0  0  0  0
   11.0456   -2.9774   18.2694 N   0  0  0  0  0  0  0  0  0  0  0  0
   10.4788   -3.0457   21.8593 C   0  0  0  0  0  0  0  0  0  0  0  0
    8.8693   -5.8099   18.4657 N   0  0  0  0  0  0  0  0  0  0  0  0
    8.9892   -0.7926   25.4573 C   0  0  0  0  0  0  0  0  0  0  0  0
   10.5677   -3.4462   20.5323 C   0  0  0  0  0  0  0  0  0  0  0  0
  1  8  1  0
  1 12  4  0
  1 14  4  0
  2  3  4  0
  2 18  4  0
  3 20  4  0
  3 22  4  0
  4 11  4  0
  4 21  4  0
  5  9  4  0
  5 16  4  0
  6 15  4  0
  6 16  4  0
  7 22  4  0
  7 26  4  0
  8 10  4  0
  8 25  4  0
  9 15  4  0
  9 17  1  0
 10 21  4  0
 11 25  4  0
 12 23  4  0
 13 20  4  0
 13 26  4  0
 14 19  4  0
 17 18  4  0
 17 24  4  0
 19 23  4  0
 20 24  4  0
 23 26  1  0
M  END
$$$$

 Created by Python create_sdf_string function

 26 30  0  0  0  0  0  0  0  0999 V2000
   10.0084   -1.8019   23.4945 C   0  0  0  0  0  0  0  0  0  0  0  0
   10.0005   -4.2520   16.5631 C   0  0  0  0  0  0  0  0  0  0  0  0
   10.2759   -4.0036   17.8845 C   0  0  0  0  0  0  0  0  0  0  0  0
    8.5652    1.5478   25.3778 N   0  0  0  0  0  0  0  0  0  0  0  0
    6.8048   -7.5457   17.8752 C   0  0  0  0  0  0  0  0  0  0  0  0
    6.1721   -8.2186   15.9886 N   0  0  0  0  0  0  0  0  0  0  0  0
   11.1764   -2.6600   19.5604 C   0  0  0  0  0  0  0  0  0  0  0  0
    9.5491   -0.6380   24.1912 C   0  0  0  0  0  0  0  0  0  0  0  0
    7.5337   -6.9256   16.9519 C   0  0  0  0  0  0  0  0  0  0  0  0
    9.6782    0.5671   23.5143 C   0  0  0  0  0  0  0  0  0  0  0  0
    8.4532    0.3482   26.0821 C   0  0  0  0  0  0  0  0  0  0  0  0
   10.4239   -1.7677   22.2230 N   0  0  0  0  0  0  0  0  0  0  0  0
    9.9468   -4.5953   20.1709 C   0  0  0  0  0  0  0  0  0  0  0  0
   10.0366   -3.0590   23.9864 N   0  0  0  0  0  0  0  0  0  0  0  0
    7.1191   -7.3636   15.7739 C   0  0  0  0  0  0  0  0  0  0  0  0
    5.9612   -8.3203   17.2732 N   0  0  0  0  0  0  0  0  0  0  0  0
    8.5296   -5.9814   17.1841 C   0  0  0  0  0  0  0  0  0  0  0  0
    9.1527   -5.2118   16.2116 C   0  0  0  0  0  0  0  0  0  0  0  0
   10.3364   -3.8368   22.9255 O   0  0  0  0  0  0  0  0  0  0  0  0
    9.6947   -4.8407   18.8534 C   0  0  0  0  0  0  0  0  0  0  0  0
    9.1596    1.7042   24.1381 C   0  0  0  0  0  0  0  0  0  0  0  0
   11.0456   -2.9774   18.2694 N   0  0  0  0  0  0  0  0  0  0  0  0
   10.4788   -3.0457   21.8593 C   0  0  0  0  0  0  0  0  0  0  0  0
    8.8693   -5.8099   18.4657 N   0  0  0  0  0  0  0  0  0  0  0  0
    8.9892   -0.7926   25.4573 C   0  0  0  0  0  0  0  0  0  0  0  0
   10.5677   -3.4462   20.5323 C   0  0  0  0  0  0  0  0  0  0  0  0
  1  8  1  0
  1 12  4  0
  1 14  4  0
  2  3  4  0
  2 18  4  0
  3 20  4  0
  3 22  4  0
  4 11  4  0
  4 21  4  0
  5  9  4  0
  5 16  4  0
  6 15  4  0
  6 16  4  0
  7 22  4  0
  7 26  4  0
  8 10  4  0
  8 25  4  0
  9 15  4  0
  9 17  1  0
 10 21  4  0
 11 25  4  0
 12 23  4  0
 13 20  4  0
 13 26  4  0
 14 19  4  0
 17 18  4  0
 17 24  4  0
 19 23  4  0
 20 24  4  0
 23 26  1  0
M  END
$$$$

 Created by Python create_sdf_string function

 26 30  0  0  0  0  0  0  0  0999 V2000
   10.0084   -1.8019   23.4945 C   0  0  0  0  0  0  0  0  0  0  0  0
   10.0005   -4.2520   16.5631 C   0  0  0  0  0  0  0  0  0  0  0  0
   10.2759   -4.0036   17.8845 C   0  0  0  0  0  0  0  0  0  0  0  0
    8.5652    1.5478   25.3778 N   0  0  0  0  0  0  0  0  0  0  0  0
    6.8048   -7.5457   17.8752 C   0  0  0  0  0  0  0  0  0  0  0  0
    6.1721   -8.2186   15.9886 N   0  0  0  0  0  0  0  0  0  0  0  0
   11.1764   -2.6600   19.5604 C   0  0  0  0  0  0  0  0  0  0  0  0
    9.5491   -0.6380   24.1912 C   0  0  0  0  0  0  0  0  0  0  0  0
    7.5337   -6.9256   16.9519 C   0  0  0  0  0  0  0  0  0  0  0  0
    9.6782    0.5671   23.5143 C   0  0  0  0  0  0  0  0  0  0  0  0
    8.4532    0.3482   26.0821 C   0  0  0  0  0  0  0  0  0  0  0  0
   10.4239   -1.7677   22.2230 N   0  0  0  0  0  0  0  0  0  0  0  0
    9.9468   -4.5953   20.1709 C   0  0  0  0  0  0  0  0  0  0  0  0
   10.0366   -3.0590   23.9864 N   0  0  0  0  0  0  0  0  0  0  0  0
    7.1191   -7.3636   15.7739 C   0  0  0  0  0  0  0  0  0  0  0  0
    5.9612   -8.3203   17.2732 N   0  0  0  0  0  0  0  0  0  0  0  0
    8.5296   -5.9814   17.1841 C   0  0  0  0  0  0  0  0  0  0  0  0
    9.1527   -5.2118   16.2116 C   0  0  0  0  0  0  0  0  0  0  0  0
   10.3364   -3.8368   22.9255 O   0  0  0  0  0  0  0  0  0  0  0  0
    9.6947   -4.8407   18.8534 C   0  0  0  0  0  0  0  0  0  0  0  0
    9.1596    1.7042   24.1381 C   0  0  0  0  0  0  0  0  0  0  0  0
   11.0456   -2.9774   18.2694 N   0  0  0  0  0  0  0  0  0  0  0  0
   10.4788   -3.0457   21.8593 C   0  0  0  0  0  0  0  0  0  0  0  0
    8.8693   -5.8099   18.4657 N   0  0  0  0  0  0  0  0  0  0  0  0
    8.9892   -0.7926   25.4573 C   0  0  0  0  0  0  0  0  0  0  0  0
   10.5677   -3.4462   20.5323 C   0  0  0  0  0  0  0  0  0  0  0  0
  1  8  1  0
  1 12  4  0
  1 14  4  0
  2  3  4  0
  2 18  4  0
  3 20  4  0
  3 22  4  0
  4 11  4  0
  4 21  4  0
  5  9  4  0
  5 16  4  0
  6 15  4  0
  6 16  4  0
  7 22  4  0
  7 26  4  0
  8 10  4  0
  8 25  4  0
  9 15  4  0
  9 17  1  0
 10 21  4  0
 11 25  4  0
 12 23  4  0
 13 20  4  0
 13 26  4  0
 14 19  4  0
 17 18  4  0
 17 24  4  0
 19 23  4  0
 20 24  4  0
 23 26  1  0
M  END
$$$$

 Created by Python create_sdf_string function

 26 30  0  0  0  0  0  0  0  0999 V2000
   10.0084   -1.8019   23.4945 C   0  0  0  0  0  0  0  0  0  0  0  0
   10.0005   -4.2520   16.5631 C   0  0  0  0  0  0  0  0  0  0  0  0
   10.2759   -4.0036   17.8845 C   0  0  0  0  0  0  0  0  0  0  0  0
    8.5652    1.5478   25.3778 N   0  0  0  0  0  0  0  0  0  0  0  0
    6.8048   -7.5457   17.8752 C   0  0  0  0  0  0  0  0  0  0  0  0
    6.1721   -8.2186   15.9886 N   0  0  0  0  0  0  0  0  0  0  0  0
   11.1764   -2.6600   19.5604 C   0  0  0  0  0  0  0  0  0  0  0  0
    9.5491   -0.6380   24.1912 C   0  0  0  0  0  0  0  0  0  0  0  0
    7.5337   -6.9256   16.9519 C   0  0  0  0  0  0  0  0  0  0  0  0
    9.6782    0.5671   23.5143 C   0  0  0  0  0  0  0  0  0  0  0  0
    8.4532    0.3482   26.0821 C   0  0  0  0  0  0  0  0  0  0  0  0
   10.4239   -1.7677   22.2230 N   0  0  0  0  0  0  0  0  0  0  0  0
    9.9468   -4.5953   20.1709 C   0  0  0  0  0  0  0  0  0  0  0  0
   10.0366   -3.0590   23.9864 N   0  0  0  0  0  0  0  0  0  0  0  0
    7.1191   -7.3636   15.7739 C   0  0  0  0  0  0  0  0  0  0  0  0
    5.9612   -8.3203   17.2732 N   0  0  0  0  0  0  0  0  0  0  0  0
    8.5296   -5.9814   17.1841 C   0  0  0  0  0  0  0  0  0  0  0  0
    9.1527   -5.2118   16.2116 C   0  0  0  0  0  0  0  0  0  0  0  0
   10.3364   -3.8368   22.9255 O   0  0  0  0  0  0  0  0  0  0  0  0
    9.6947   -4.8407   18.8534 C   0  0  0  0  0  0  0  0  0  0  0  0
    9.1596    1.7042   24.1381 C   0  0  0  0  0  0  0  0  0  0  0  0
   11.0456   -2.9774   18.2694 N   0  0  0  0  0  0  0  0  0  0  0  0
   10.4788   -3.0457   21.8593 C   0  0  0  0  0  0  0  0  0  0  0  0
    8.8693   -5.8099   18.4657 N   0  0  0  0  0  0  0  0  0  0  0  0
    8.9892   -0.7926   25.4573 C   0  0  0  0  0  0  0  0  0  0  0  0
   10.5677   -3.4462   20.5323 C   0  0  0  0  0  0  0  0  0  0  0  0
  1  8  1  0
  1 12  4  0
  1 14  4  0
  2  3  4  0
  2 18  4  0
  3 20  4  0
  3 22  4  0
  4 11  4  0
  4 21  4  0
  5  9  4  0
  5 16  4  0
  6 15  4  0
  6 16  4  0
  7 22  4  0
  7 26  4  0
  8 10  4  0
  8 25  4  0
  9 15  4  0
  9 17  1  0
 10 21  4  0
 11 25  4  0
 12 23  4  0
 13 20  4  0
 13 26  4  0
 14 19  4  0
 17 18  4  0
 17 24  4  0
 19 23  4  0
 20 24  4  0
 23 26  1  0
M  END
$$$$

 Created by Python create_sdf_string function

 26 30  0  0  0  0  0  0  0  0999 V2000
   10.0084   -1.8019   23.4945 C   0  0  0  0  0  0  0  0  0  0  0  0
   10.0005   -4.2520   16.5631 C   0  0  0  0  0  0  0  0  0  0  0  0
   10.2759   -4.0036   17.8845 C   0  0  0  0  0  0  0  0  0  0  0  0
    8.5652    1.5478   25.3778 N   0  0  0  0  0  0  0  0  0  0  0  0
    6.8048   -7.5457   17.8752 C   0  0  0  0  0  0  0  0  0  0  0  0
    6.1721   -8.2186   15.9886 N   0  0  0  0  0  0  0  0  0  0  0  0
   11.1764   -2.6600   19.5604 C   0  0  0  0  0  0  0  0  0  0  0  0
    9.5491   -0.6380   24.1912 C   0  0  0  0  0  0  0  0  0  0  0  0
    7.5337   -6.9256   16.9519 C   0  0  0  0  0  0  0  0  0  0  0  0
    9.6782    0.5671   23.5143 C   0  0  0  0  0  0  0  0  0  0  0  0
    8.4532    0.3482   26.0821 C   0  0  0  0  0  0  0  0  0  0  0  0
   10.4239   -1.7677   22.2230 N   0  0  0  0  0  0  0  0  0  0  0  0
    9.9468   -4.5953   20.1709 C   0  0  0  0  0  0  0  0  0  0  0  0
   10.0366   -3.0590   23.9864 N   0  0  0  0  0  0  0  0  0  0  0  0
    7.1191   -7.3636   15.7739 C   0  0  0  0  0  0  0  0  0  0  0  0
    5.9612   -8.3203   17.2732 N   0  0  0  0  0  0  0  0  0  0  0  0
    8.5296   -5.9814   17.1841 C   0  0  0  0  0  0  0  0  0  0  0  0
    9.1527   -5.2118   16.2116 C   0  0  0  0  0  0  0  0  0  0  0  0
   10.3364   -3.8368   22.9255 O   0  0  0  0  0  0  0  0  0  0  0  0
    9.6947   -4.8407   18.8534 C   0  0  0  0  0  0  0  0  0  0  0  0
    9.1596    1.7042   24.1381 C   0  0  0  0  0  0  0  0  0  0  0  0
   11.0456   -2.9774   18.2694 N   0  0  0  0  0  0  0  0  0  0  0  0
   10.4788   -3.0457   21.8593 C   0  0  0  0  0  0  0  0  0  0  0  0
    8.8693   -5.8099   18.4657 N   0  0  0  0  0  0  0  0  0  0  0  0
    8.9892   -0.7926   25.4573 C   0  0  0  0  0  0  0  0  0  0  0  0
   10.5677   -3.4462   20.5323 C   0  0  0  0  0  0  0  0  0  0  0  0
  1  8  1  0
  1 12  4  0
  1 14  4  0
  2  3  4  0
  2 18  4  0
  3 20  4  0
  3 22  4  0
  4 11  4  0
  4 21  4  0
  5  9  4  0
  5 16  4  0
  6 15  4  0
  6 16  4  0
  7 22  4  0
  7 26  4  0
  8 10  4  0
  8 25  4  0
  9 15  4  0
  9 17  1  0
 10 21  4  0
 11 25  4  0
 12 23  4  0
 13 20  4  0
 13 26  4  0
 14 19  4  0
 17 18  4  0
 17 24  4  0
 19 23  4  0
 20 24  4  0
 23 26  1  0
M  END
$$$$

 Created by Python create_sdf_string function

 26 30  0  0  0  0  0  0  0  0999 V2000
   10.0084   -1.8019   23.4945 C   0  0  0  0  0  0  0  0  0  0  0  0
   10.0005   -4.2520   16.5631 C   0  0  0  0  0  0  0  0  0  0  0  0
   10.2759   -4.0036   17.8845 C   0  0  0  0  0  0  0  0  0  0  0  0
    8.5652    1.5478   25.3778 N   0  0  0  0  0  0  0  0  0  0  0  0
    6.8048   -7.5457   17.8752 C   0  0  0  0  0  0  0  0  0  0  0  0
    6.1721   -8.2186   15.9886 N   0  0  0  0  0  0  0  0  0  0  0  0
   11.1764   -2.6600   19.5604 C   0  0  0  0  0  0  0  0  0  0  0  0
    9.5491   -0.6380   24.1912 C   0  0  0  0  0  0  0  0  0  0  0  0
    7.5337   -6.9256   16.9519 C   0  0  0  0  0  0  0  0  0  0  0  0
    9.6782    0.5671   23.5143 C   0  0  0  0  0  0  0  0  0  0  0  0
    8.4532    0.3482   26.0821 C   0  0  0  0  0  0  0  0  0  0  0  0
   10.4239   -1.7677   22.2230 N   0  0  0  0  0  0  0  0  0  0  0  0
    9.9468   -4.5953   20.1709 C   0  0  0  0  0  0  0  0  0  0  0  0
   10.0366   -3.0590   23.9864 N   0  0  0  0  0  0  0  0  0  0  0  0
    7.1191   -7.3636   15.7739 C   0  0  0  0  0  0  0  0  0  0  0  0
    5.9612   -8.3203   17.2732 N   0  0  0  0  0  0  0  0  0  0  0  0
    8.5296   -5.9814   17.1841 C   0  0  0  0  0  0  0  0  0  0  0  0
    9.1527   -5.2118   16.2116 C   0  0  0  0  0  0  0  0  0  0  0  0
   10.3364   -3.8368   22.9255 O   0  0  0  0  0  0  0  0  0  0  0  0
    9.6947   -4.8407   18.8534 C   0  0  0  0  0  0  0  0  0  0  0  0
    9.1596    1.7042   24.1381 C   0  0  0  0  0  0  0  0  0  0  0  0
   11.0456   -2.9774   18.2694 N   0  0  0  0  0  0  0  0  0  0  0  0
   10.4788   -3.0457   21.8593 C   0  0  0  0  0  0  0  0  0  0  0  0
    8.8693   -5.8099   18.4657 N   0  0  0  0  0  0  0  0  0  0  0  0
    8.9892   -0.7926   25.4573 C   0  0  0  0  0  0  0  0  0  0  0  0
   10.5677   -3.4462   20.5323 C   0  0  0  0  0  0  0  0  0  0  0  0
  1  8  1  0
  1 12  4  0
  1 14  4  0
  2  3  4  0
  2 18  4  0
  3 20  4  0
  3 22  4  0
  4 11  4  0
  4 21  4  0
  5  9  4  0
  5 16  4  0
  6 15  4  0
  6 16  4  0
  7 22  4  0
  7 26  4  0
  8 10  4  0
  8 25  4  0
  9 15  4  0
  9 17  1  0
 10 21  4  0
 11 25  4  0
 12 23  4  0
 13 20  4  0
 13 26  4  0
 14 19  4  0
 17 18  4  0
 17 24  4  0
 19 23  4  0
 20 24  4  0
 23 26  1  0
M  END
$$$$

 Created by Python create_sdf_string function

 26 30  0  0  0  0  0  0  0  0999 V2000
   10.0084   -1.8019   23.4945 C   0  0  0  0  0  0  0  0  0  0  0  0
   10.0005   -4.2520   16.5631 C   0  0  0  0  0  0  0  0  0  0  0  0
   10.2759   -4.0036   17.8845 C   0  0  0  0  0  0  0  0  0  0  0  0
    8.5652    1.5478   25.3778 N   0  0  0  0  0  0  0  0  0  0  0  0
    6.8048   -7.5457   17.8752 C   0  0  0  0  0  0  0  0  0  0  0  0
    6.1721   -8.2186   15.9886 N   0  0  0  0  0  0  0  0  0  0  0  0
   11.1764   -2.6600   19.5604 C   0  0  0  0  0  0  0  0  0  0  0  0
    9.5491   -0.6380   24.1912 C   0  0  0  0  0  0  0  0  0  0  0  0
    7.5337   -6.9256   16.9519 C   0  0  0  0  0  0  0  0  0  0  0  0
    9.6782    0.5671   23.5143 C   0  0  0  0  0  0  0  0  0  0  0  0
    8.4532    0.3482   26.0821 C   0  0  0  0  0  0  0  0  0  0  0  0
   10.4239   -1.7677   22.2230 N   0  0  0  0  0  0  0  0  0  0  0  0
    9.9468   -4.5953   20.1709 C   0  0  0  0  0  0  0  0  0  0  0  0
   10.0366   -3.0590   23.9864 N   0  0  0  0  0  0  0  0  0  0  0  0
    7.1191   -7.3636   15.7739 C   0  0  0  0  0  0  0  0  0  0  0  0
    5.9612   -8.3203   17.2732 N   0  0  0  0  0  0  0  0  0  0  0  0
    8.5296   -5.9814   17.1841 C   0  0  0  0  0  0  0  0  0  0  0  0
    9.1527   -5.2118   16.2116 C   0  0  0  0  0  0  0  0  0  0  0  0
   10.3364   -3.8368   22.9255 O   0  0  0  0  0  0  0  0  0  0  0  0
    9.6947   -4.8407   18.8534 C   0  0  0  0  0  0  0  0  0  0  0  0
    9.1596    1.7042   24.1381 C   0  0  0  0  0  0  0  0  0  0  0  0
   11.0456   -2.9774   18.2694 N   0  0  0  0  0  0  0  0  0  0  0  0
   10.4788   -3.0457   21.8593 C   0  0  0  0  0  0  0  0  0  0  0  0
    8.8693   -5.8099   18.4657 N   0  0  0  0  0  0  0  0  0  0  0  0
    8.9892   -0.7926   25.4573 C   0  0  0  0  0  0  0  0  0  0  0  0
   10.5677   -3.4462   20.5323 C   0  0  0  0  0  0  0  0  0  0  0  0
  1  8  1  0
  1 12  4  0
  1 14  4  0
  2  3  4  0
  2 18  4  0
  3 20  4  0
  3 22  4  0
  4 11  4  0
  4 21  4  0
  5  9  4  0
  5 16  4  0
  6 15  4  0
  6 16  4  0
  7 22  4  0
  7 26  4  0
  8 10  4  0
  8 25  4  0
  9 15  4  0
  9 17  1  0
 10 21  4  0
 11 25  4  0
 12 23  4  0
 13 20  4  0
 13 26  4  0
 14 19  4  0
 17 18  4  0
 17 24  4  0
 19 23  4  0
 20 24  4  0
 23 26  1  0
M  END
$$$$

 Created by Python create_sdf_string function

 26 30  0  0  0  0  0  0  0  0999 V2000
   10.0084   -1.8019   23.4945 C   0  0  0  0  0  0  0  0  0  0  0  0
   10.0005   -4.2520   16.5631 C   0  0  0  0  0  0  0  0  0  0  0  0
   10.2759   -4.0036   17.8845 C   0  0  0  0  0  0  0  0  0  0  0  0
    8.5652    1.5478   25.3778 N   0  0  0  0  0  0  0  0  0  0  0  0
    6.8048   -7.5457   17.8752 C   0  0  0  0  0  0  0  0  0  0  0  0
    6.1721   -8.2186   15.9886 N   0  0  0  0  0  0  0  0  0  0  0  0
   11.1764   -2.6600   19.5604 C   0  0  0  0  0  0  0  0  0  0  0  0
    9.5491   -0.6380   24.1912 C   0  0  0  0  0  0  0  0  0  0  0  0
    7.5337   -6.9256   16.9519 C   0  0  0  0  0  0  0  0  0  0  0  0
    9.6782    0.5671   23.5143 C   0  0  0  0  0  0  0  0  0  0  0  0
    8.4532    0.3482   26.0821 C   0  0  0  0  0  0  0  0  0  0  0  0
   10.4239   -1.7677   22.2230 N   0  0  0  0  0  0  0  0  0  0  0  0
    9.9468   -4.5953   20.1709 C   0  0  0  0  0  0  0  0  0  0  0  0
   10.0366   -3.0590   23.9864 N   0  0  0  0  0  0  0  0  0  0  0  0
    7.1191   -7.3636   15.7739 C   0  0  0  0  0  0  0  0  0  0  0  0
    5.9612   -8.3203   17.2732 N   0  0  0  0  0  0  0  0  0  0  0  0
    8.5296   -5.9814   17.1841 C   0  0  0  0  0  0  0  0  0  0  0  0
    9.1527   -5.2118   16.2116 C   0  0  0  0  0  0  0  0  0  0  0  0
   10.3364   -3.8368   22.9255 O   0  0  0  0  0  0  0  0  0  0  0  0
    9.6947   -4.8407   18.8534 C   0  0  0  0  0  0  0  0  0  0  0  0
    9.1596    1.7042   24.1381 C   0  0  0  0  0  0  0  0  0  0  0  0
   11.0456   -2.9774   18.2694 N   0  0  0  0  0  0  0  0  0  0  0  0
   10.4788   -3.0457   21.8593 C   0  0  0  0  0  0  0  0  0  0  0  0
    8.8693   -5.8099   18.4657 N   0  0  0  0  0  0  0  0  0  0  0  0
    8.9892   -0.7926   25.4573 C   0  0  0  0  0  0  0  0  0  0  0  0
   10.5677   -3.4462   20.5323 C   0  0  0  0  0  0  0  0  0  0  0  0
  1  8  1  0
  1 12  4  0
  1 14  4  0
  2  3  4  0
  2 18  4  0
  3 20  4  0
  3 22  4  0
  4 11  4  0
  4 21  4  0
  5  9  4  0
  5 16  4  0
  6 15  4  0
  6 16  4  0
  7 22  4  0
  7 26  4  0
  8 10  4  0
  8 25  4  0
  9 15  4  0
  9 17  1  0
 10 21  4  0
 11 25  4  0
 12 23  4  0
 13 20  4  0
 13 26  4  0
 14 19  4  0
 17 18  4  0
 17 24  4  0
 19 23  4  0
 20 24  4  0
 23 26  1  0
M  END
$$$$

 Created by Python create_sdf_string function

 26 30  0  0  0  0  0  0  0  0999 V2000
   10.0084   -1.8019   23.4945 C   0  0  0  0  0  0  0  0  0  0  0  0
   10.0005   -4.2520   16.5631 C   0  0  0  0  0  0  0  0  0  0  0  0
   10.2759   -4.0036   17.8845 C   0  0  0  0  0  0  0  0  0  0  0  0
    8.5652    1.5478   25.3778 N   0  0  0  0  0  0  0  0  0  0  0  0
    6.8048   -7.5457   17.8752 C   0  0  0  0  0  0  0  0  0  0  0  0
    6.1721   -8.2186   15.9886 N   0  0  0  0  0  0  0  0  0  0  0  0
   11.1764   -2.6600   19.5604 C   0  0  0  0  0  0  0  0  0  0  0  0
    9.5491   -0.6380   24.1912 C   0  0  0  0  0  0  0  0  0  0  0  0
    7.5337   -6.9256   16.9519 C   0  0  0  0  0  0  0  0  0  0  0  0
    9.6782    0.5671   23.5143 C   0  0  0  0  0  0  0  0  0  0  0  0
    8.4532    0.3482   26.0821 C   0  0  0  0  0  0  0  0  0  0  0  0
   10.4239   -1.7677   22.2230 N   0  0  0  0  0  0  0  0  0  0  0  0
    9.9468   -4.5953   20.1709 C   0  0  0  0  0  0  0  0  0  0  0  0
   10.0366   -3.0590   23.9864 N   0  0  0  0  0  0  0  0  0  0  0  0
    7.1191   -7.3636   15.7739 C   0  0  0  0  0  0  0  0  0  0  0  0
    5.9612   -8.3203   17.2732 N   0  0  0  0  0  0  0  0  0  0  0  0
    8.5296   -5.9814   17.1841 C   0  0  0  0  0  0  0  0  0  0  0  0
    9.1527   -5.2118   16.2116 C   0  0  0  0  0  0  0  0  0  0  0  0
   10.3364   -3.8368   22.9255 O   0  0  0  0  0  0  0  0  0  0  0  0
    9.6947   -4.8407   18.8534 C   0  0  0  0  0  0  0  0  0  0  0  0
    9.1596    1.7042   24.1381 C   0  0  0  0  0  0  0  0  0  0  0  0
   11.0456   -2.9774   18.2694 N   0  0  0  0  0  0  0  0  0  0  0  0
   10.4788   -3.0457   21.8593 C   0  0  0  0  0  0  0  0  0  0  0  0
    8.8693   -5.8099   18.4657 N   0  0  0  0  0  0  0  0  0  0  0  0
    8.9892   -0.7926   25.4573 C   0  0  0  0  0  0  0  0  0  0  0  0
   10.5677   -3.4462   20.5323 C   0  0  0  0  0  0  0  0  0  0  0  0
  1  8  1  0
  1 12  4  0
  1 14  4  0
  2  3  4  0
  2 18  4  0
  3 20  4  0
  3 22  4  0
  4 11  4  0
  4 21  4  0
  5  9  4  0
  5 16  4  0
  6 15  4  0
  6 16  4  0
  7 22  4  0
  7 26  4  0
  8 10  4  0
  8 25  4  0
  9 15  4  0
  9 17  1  0
 10 21  4  0
 11 25  4  0
 12 23  4  0
 13 20  4  0
 13 26  4  0
 14 19  4  0
 17 18  4  0
 17 24  4  0
 19 23  4  0
 20 24  4  0
 23 26  1  0
M  END
$$$$

 Created by Python create_sdf_string function

 26 30  0  0  0  0  0  0  0  0999 V2000
   10.0084   -1.8019   23.4945 C   0  0  0  0  0  0  0  0  0  0  0  0
   10.0005   -4.2520   16.5631 C   0  0  0  0  0  0  0  0  0  0  0  0
   10.2759   -4.0036   17.8845 C   0  0  0  0  0  0  0  0  0  0  0  0
    8.5652    1.5478   25.3778 N   0  0  0  0  0  0  0  0  0  0  0  0
    6.8048   -7.5457   17.8752 C   0  0  0  0  0  0  0  0  0  0  0  0
    6.1721   -8.2186   15.9886 N   0  0  0  0  0  0  0  0  0  0  0  0
   11.1764   -2.6600   19.5604 C   0  0  0  0  0  0  0  0  0  0  0  0
    9.5491   -0.6380   24.1912 C   0  0  0  0  0  0  0  0  0  0  0  0
    7.5337   -6.9256   16.9519 C   0  0  0  0  0  0  0  0  0  0  0  0
    9.6782    0.5671   23.5143 C   0  0  0  0  0  0  0  0  0  0  0  0
    8.4532    0.3482   26.0821 C   0  0  0  0  0  0  0  0  0  0  0  0
   10.4239   -1.7677   22.2230 N   0  0  0  0  0  0  0  0  0  0  0  0
    9.9468   -4.5953   20.1709 C   0  0  0  0  0  0  0  0  0  0  0  0
   10.0366   -3.0590   23.9864 N   0  0  0  0  0  0  0  0  0  0  0  0
    7.1191   -7.3636   15.7739 C   0  0  0  0  0  0  0  0  0  0  0  0
    5.9612   -8.3203   17.2732 N   0  0  0  0  0  0  0  0  0  0  0  0
    8.5296   -5.9814   17.1841 C   0  0  0  0  0  0  0  0  0  0  0  0
    9.1527   -5.2118   16.2116 C   0  0  0  0  0  0  0  0  0  0  0  0
   10.3364   -3.8368   22.9255 O   0  0  0  0  0  0  0  0  0  0  0  0
    9.6947   -4.8407   18.8534 C   0  0  0  0  0  0  0  0  0  0  0  0
    9.1596    1.7042   24.1381 C   0  0  0  0  0  0  0  0  0  0  0  0
   11.0456   -2.9774   18.2694 N   0  0  0  0  0  0  0  0  0  0  0  0
   10.4788   -3.0457   21.8593 C   0  0  0  0  0  0  0  0  0  0  0  0
    8.8693   -5.8099   18.4657 N   0  0  0  0  0  0  0  0  0  0  0  0
    8.9892   -0.7926   25.4573 C   0  0  0  0  0  0  0  0  0  0  0  0
   10.5677   -3.4462   20.5323 C   0  0  0  0  0  0  0  0  0  0  0  0
  1  8  1  0
  1 12  4  0
  1 14  4  0
  2  3  4  0
  2 18  4  0
  3 20  4  0
  3 22  4  0
  4 11  4  0
  4 21  4  0
  5  9  4  0
  5 16  4  0
  6 15  4  0
  6 16  4  0
  7 22  4  0
  7 26  4  0
  8 10  4  0
  8 25  4  0
  9 15  4  0
  9 17  1  0
 10 21  4  0
 11 25  4  0
 12 23  4  0
 13 20  4  0
 13 26  4  0
 14 19  4  0
 17 18  4  0
 17 24  4  0
 19 23  4  0
 20 24  4  0
 23 26  1  0
M  END
$$$$

 Created by Python create_sdf_string function

 26 30  0  0  0  0  0  0  0  0999 V2000
   10.0084   -1.8019   23.4945 C   0  0  0  0  0  0  0  0  0  0  0  0
   10.0005   -4.2520   16.5631 C   0  0  0  0  0  0  0  0  0  0  0  0
   10.2759   -4.0036   17.8845 C   0  0  0  0  0  0  0  0  0  0  0  0
    8.5652    1.5478   25.3778 N   0  0  0  0  0  0  0  0  0  0  0  0
    6.8048   -7.5457   17.8752 C   0  0  0  0  0  0  0  0  0  0  0  0
    6.1721   -8.2186   15.9886 N   0  0  0  0  0  0  0  0  0  0  0  0
   11.1764   -2.6600   19.5604 C   0  0  0  0  0  0  0  0  0  0  0  0
    9.5491   -0.6380   24.1912 C   0  0  0  0  0  0  0  0  0  0  0  0
    7.5337   -6.9256   16.9519 C   0  0  0  0  0  0  0  0  0  0  0  0
    9.6782    0.5671   23.5143 C   0  0  0  0  0  0  0  0  0  0  0  0
    8.4532    0.3482   26.0821 C   0  0  0  0  0  0  0  0  0  0  0  0
   10.4239   -1.7677   22.2230 N   0  0  0  0  0  0  0  0  0  0  0  0
    9.9468   -4.5953   20.1709 C   0  0  0  0  0  0  0  0  0  0  0  0
   10.0366   -3.0590   23.9864 N   0  0  0  0  0  0  0  0  0  0  0  0
    7.1191   -7.3636   15.7739 C   0  0  0  0  0  0  0  0  0  0  0  0
    5.9612   -8.3203   17.2732 N   0  0  0  0  0  0  0  0  0  0  0  0
    8.5296   -5.9814   17.1841 C   0  0  0  0  0  0  0  0  0  0  0  0
    9.1527   -5.2118   16.2116 C   0  0  0  0  0  0  0  0  0  0  0  0
   10.3364   -3.8368   22.9255 O   0  0  0  0  0  0  0  0  0  0  0  0
    9.6947   -4.8407   18.8534 C   0  0  0  0  0  0  0  0  0  0  0  0
    9.1596    1.7042   24.1381 C   0  0  0  0  0  0  0  0  0  0  0  0
   11.0456   -2.9774   18.2694 N   0  0  0  0  0  0  0  0  0  0  0  0
   10.4788   -3.0457   21.8593 C   0  0  0  0  0  0  0  0  0  0  0  0
    8.8693   -5.8099   18.4657 N   0  0  0  0  0  0  0  0  0  0  0  0
    8.9892   -0.7926   25.4573 C   0  0  0  0  0  0  0  0  0  0  0  0
   10.5677   -3.4462   20.5323 C   0  0  0  0  0  0  0  0  0  0  0  0
  1  8  1  0
  1 12  4  0
  1 14  4  0
  2  3  4  0
  2 18  4  0
  3 20  4  0
  3 22  4  0
  4 11  4  0
  4 21  4  0
  5  9  4  0
  5 16  4  0
  6 15  4  0
  6 16  4  0
  7 22  4  0
  7 26  4  0
  8 10  4  0
  8 25  4  0
  9 15  4  0
  9 17  1  0
 10 21  4  0
 11 25  4  0
 12 23  4  0
 13 20  4  0
 13 26  4  0
 14 19  4  0
 17 18  4  0
 17 24  4  0
 19 23  4  0
 20 24  4  0
 23 26  1  0
M  END
$$$$

 Created by Python create_sdf_string function

 26 30  0  0  0  0  0  0  0  0999 V2000
   10.0084   -1.8019   23.4945 C   0  0  0  0  0  0  0  0  0  0  0  0
   10.0005   -4.2520   16.5631 C   0  0  0  0  0  0  0  0  0  0  0  0
   10.2759   -4.0036   17.8845 C   0  0  0  0  0  0  0  0  0  0  0  0
    8.5652    1.5478   25.3778 N   0  0  0  0  0  0  0  0  0  0  0  0
    6.8048   -7.5457   17.8752 C   0  0  0  0  0  0  0  0  0  0  0  0
    6.1721   -8.2186   15.9886 N   0  0  0  0  0  0  0  0  0  0  0  0
   11.1764   -2.6600   19.5604 C   0  0  0  0  0  0  0  0  0  0  0  0
    9.5491   -0.6380   24.1912 C   0  0  0  0  0  0  0  0  0  0  0  0
    7.5337   -6.9256   16.9519 C   0  0  0  0  0  0  0  0  0  0  0  0
    9.6782    0.5671   23.5143 C   0  0  0  0  0  0  0  0  0  0  0  0
    8.4532    0.3482   26.0821 C   0  0  0  0  0  0  0  0  0  0  0  0
   10.4239   -1.7677   22.2230 N   0  0  0  0  0  0  0  0  0  0  0  0
    9.9468   -4.5953   20.1709 C   0  0  0  0  0  0  0  0  0  0  0  0
   10.0366   -3.0590   23.9864 N   0  0  0  0  0  0  0  0  0  0  0  0
    7.1191   -7.3636   15.7739 C   0  0  0  0  0  0  0  0  0  0  0  0
    5.9612   -8.3203   17.2732 N   0  0  0  0  0  0  0  0  0  0  0  0
    8.5296   -5.9814   17.1841 C   0  0  0  0  0  0  0  0  0  0  0  0
    9.1527   -5.2118   16.2116 C   0  0  0  0  0  0  0  0  0  0  0  0
   10.3364   -3.8368   22.9255 O   0  0  0  0  0  0  0  0  0  0  0  0
    9.6947   -4.8407   18.8534 C   0  0  0  0  0  0  0  0  0  0  0  0
    9.1596    1.7042   24.1381 C   0  0  0  0  0  0  0  0  0  0  0  0
   11.0456   -2.9774   18.2694 N   0  0  0  0  0  0  0  0  0  0  0  0
   10.4788   -3.0457   21.8593 C   0  0  0  0  0  0  0  0  0  0  0  0
    8.8693   -5.8099   18.4657 N   0  0  0  0  0  0  0  0  0  0  0  0
    8.9892   -0.7926   25.4573 C   0  0  0  0  0  0  0  0  0  0  0  0
   10.5677   -3.4462   20.5323 C   0  0  0  0  0  0  0  0  0  0  0  0
  1  8  1  0
  1 12  4  0
  1 14  4  0
  2  3  4  0
  2 18  4  0
  3 20  4  0
  3 22  4  0
  4 11  4  0
  4 21  4  0
  5  9  4  0
  5 16  4  0
  6 15  4  0
  6 16  4  0
  7 22  4  0
  7 26  4  0
  8 10  4  0
  8 25  4  0
  9 15  4  0
  9 17  1  0
 10 21  4  0
 11 25  4  0
 12 23  4  0
 13 20  4  0
 13 26  4  0
 14 19  4  0
 17 18  4  0
 17 24  4  0
 19 23  4  0
 20 24  4  0
 23 26  1  0
M  END
$$$$

 Created by Python create_sdf_string function

 26 30  0  0  0  0  0  0  0  0999 V2000
   10.0084   -1.8019   23.4945 C   0  0  0  0  0  0  0  0  0  0  0  0
   10.0005   -4.2520   16.5631 C   0  0  0  0  0  0  0  0  0  0  0  0
   10.2759   -4.0036   17.8845 C   0  0  0  0  0  0  0  0  0  0  0  0
    8.5652    1.5478   25.3778 N   0  0  0  0  0  0  0  0  0  0  0  0
    6.8048   -7.5457   17.8752 C   0  0  0  0  0  0  0  0  0  0  0  0
    6.1721   -8.2186   15.9886 N   0  0  0  0  0  0  0  0  0  0  0  0
   11.1764   -2.6600   19.5604 C   0  0  0  0  0  0  0  0  0  0  0  0
    9.5491   -0.6380   24.1912 C   0  0  0  0  0  0  0  0  0  0  0  0
    7.5337   -6.9256   16.9519 C   0  0  0  0  0  0  0  0  0  0  0  0
    9.6782    0.5671   23.5143 C   0  0  0  0  0  0  0  0  0  0  0  0
    8.4532    0.3482   26.0821 C   0  0  0  0  0  0  0  0  0  0  0  0
   10.4239   -1.7677   22.2230 N   0  0  0  0  0  0  0  0  0  0  0  0
    9.9468   -4.5953   20.1709 C   0  0  0  0  0  0  0  0  0  0  0  0
   10.0366   -3.0590   23.9864 N   0  0  0  0  0  0  0  0  0  0  0  0
    7.1191   -7.3636   15.7739 C   0  0  0  0  0  0  0  0  0  0  0  0
    5.9612   -8.3203   17.2732 N   0  0  0  0  0  0  0  0  0  0  0  0
    8.5296   -5.9814   17.1841 C   0  0  0  0  0  0  0  0  0  0  0  0
    9.1527   -5.2118   16.2116 C   0  0  0  0  0  0  0  0  0  0  0  0
   10.3364   -3.8368   22.9255 O   0  0  0  0  0  0  0  0  0  0  0  0
    9.6947   -4.8407   18.8534 C   0  0  0  0  0  0  0  0  0  0  0  0
    9.1596    1.7042   24.1381 C   0  0  0  0  0  0  0  0  0  0  0  0
   11.0456   -2.9774   18.2694 N   0  0  0  0  0  0  0  0  0  0  0  0
   10.4788   -3.0457   21.8593 C   0  0  0  0  0  0  0  0  0  0  0  0
    8.8693   -5.8099   18.4657 N   0  0  0  0  0  0  0  0  0  0  0  0
    8.9892   -0.7926   25.4573 C   0  0  0  0  0  0  0  0  0  0  0  0
   10.5677   -3.4462   20.5323 C   0  0  0  0  0  0  0  0  0  0  0  0
  1  8  1  0
  1 12  4  0
  1 14  4  0
  2  3  4  0
  2 18  4  0
  3 20  4  0
  3 22  4  0
  4 11  4  0
  4 21  4  0
  5  9  4  0
  5 16  4  0
  6 15  4  0
  6 16  4  0
  7 22  4  0
  7 26  4  0
  8 10  4  0
  8 25  4  0
  9 15  4  0
  9 17  1  0
 10 21  4  0
 11 25  4  0
 12 23  4  0
 13 20  4  0
 13 26  4  0
 14 19  4  0
 17 18  4  0
 17 24  4  0
 19 23  4  0
 20 24  4  0
 23 26  1  0
M  END
$$$$

 Created by Python create_sdf_string function

 26 30  0  0  0  0  0  0  0  0999 V2000
   10.0084   -1.8019   23.4945 C   0  0  0  0  0  0  0  0  0  0  0  0
   10.0005   -4.2520   16.5631 C   0  0  0  0  0  0  0  0  0  0  0  0
   10.2759   -4.0036   17.8845 C   0  0  0  0  0  0  0  0  0  0  0  0
    8.5652    1.5478   25.3778 N   0  0  0  0  0  0  0  0  0  0  0  0
    6.8048   -7.5457   17.8752 C   0  0  0  0  0  0  0  0  0  0  0  0
    6.1721   -8.2186   15.9886 N   0  0  0  0  0  0  0  0  0  0  0  0
   11.1764   -2.6600   19.5604 C   0  0  0  0  0  0  0  0  0  0  0  0
    9.5491   -0.6380   24.1912 C   0  0  0  0  0  0  0  0  0  0  0  0
    7.5337   -6.9256   16.9519 C   0  0  0  0  0  0  0  0  0  0  0  0
    9.6782    0.5671   23.5143 C   0  0  0  0  0  0  0  0  0  0  0  0
    8.4532    0.3482   26.0821 C   0  0  0  0  0  0  0  0  0  0  0  0
   10.4239   -1.7677   22.2230 N   0  0  0  0  0  0  0  0  0  0  0  0
    9.9468   -4.5953   20.1709 C   0  0  0  0  0  0  0  0  0  0  0  0
   10.0366   -3.0590   23.9864 N   0  0  0  0  0  0  0  0  0  0  0  0
    7.1191   -7.3636   15.7739 C   0  0  0  0  0  0  0  0  0  0  0  0
    5.9612   -8.3203   17.2732 N   0  0  0  0  0  0  0  0  0  0  0  0
    8.5296   -5.9814   17.1841 C   0  0  0  0  0  0  0  0  0  0  0  0
    9.1527   -5.2118   16.2116 C   0  0  0  0  0  0  0  0  0  0  0  0
   10.3364   -3.8368   22.9255 O   0  0  0  0  0  0  0  0  0  0  0  0
    9.6947   -4.8407   18.8534 C   0  0  0  0  0  0  0  0  0  0  0  0
    9.1596    1.7042   24.1381 C   0  0  0  0  0  0  0  0  0  0  0  0
   11.0456   -2.9774   18.2694 N   0  0  0  0  0  0  0  0  0  0  0  0
   10.4788   -3.0457   21.8593 C   0  0  0  0  0  0  0  0  0  0  0  0
    8.8693   -5.8099   18.4657 N   0  0  0  0  0  0  0  0  0  0  0  0
    8.9892   -0.7926   25.4573 C   0  0  0  0  0  0  0  0  0  0  0  0
   10.5677   -3.4462   20.5323 C   0  0  0  0  0  0  0  0  0  0  0  0
  1  8  1  0
  1 12  4  0
  1 14  4  0
  2  3  4  0
  2 18  4  0
  3 20  4  0
  3 22  4  0
  4 11  4  0
  4 21  4  0
  5  9  4  0
  5 16  4  0
  6 15  4  0
  6 16  4  0
  7 22  4  0
  7 26  4  0
  8 10  4  0
  8 25  4  0
  9 15  4  0
  9 17  1  0
 10 21  4  0
 11 25  4  0
 12 23  4  0
 13 20  4  0
 13 26  4  0
 14 19  4  0
 17 18  4  0
 17 24  4  0
 19 23  4  0
 20 24  4  0
 23 26  1  0
M  END
$$$$

 Created by Python create_sdf_string function

 26 30  0  0  0  0  0  0  0  0999 V2000
   10.0084   -1.8019   23.4945 C   0  0  0  0  0  0  0  0  0  0  0  0
   10.0005   -4.2520   16.5631 C   0  0  0  0  0  0  0  0  0  0  0  0
   10.2759   -4.0036   17.8845 C   0  0  0  0  0  0  0  0  0  0  0  0
    8.5652    1.5478   25.3778 N   0  0  0  0  0  0  0  0  0  0  0  0
    6.8048   -7.5457   17.8752 C   0  0  0  0  0  0  0  0  0  0  0  0
    6.1721   -8.2186   15.9886 N   0  0  0  0  0  0  0  0  0  0  0  0
   11.1764   -2.6600   19.5604 C   0  0  0  0  0  0  0  0  0  0  0  0
    9.5491   -0.6380   24.1912 C   0  0  0  0  0  0  0  0  0  0  0  0
    7.5337   -6.9256   16.9519 C   0  0  0  0  0  0  0  0  0  0  0  0
    9.6782    0.5671   23.5143 C   0  0  0  0  0  0  0  0  0  0  0  0
    8.4532    0.3482   26.0821 C   0  0  0  0  0  0  0  0  0  0  0  0
   10.4239   -1.7677   22.2230 N   0  0  0  0  0  0  0  0  0  0  0  0
    9.9468   -4.5953   20.1709 C   0  0  0  0  0  0  0  0  0  0  0  0
   10.0366   -3.0590   23.9864 N   0  0  0  0  0  0  0  0  0  0  0  0
    7.1191   -7.3636   15.7739 C   0  0  0  0  0  0  0  0  0  0  0  0
    5.9612   -8.3203   17.2732 N   0  0  0  0  0  0  0  0  0  0  0  0
    8.5296   -5.9814   17.1841 C   0  0  0  0  0  0  0  0  0  0  0  0
    9.1527   -5.2118   16.2116 C   0  0  0  0  0  0  0  0  0  0  0  0
   10.3364   -3.8368   22.9255 O   0  0  0  0  0  0  0  0  0  0  0  0
    9.6947   -4.8407   18.8534 C   0  0  0  0  0  0  0  0  0  0  0  0
    9.1596    1.7042   24.1381 C   0  0  0  0  0  0  0  0  0  0  0  0
   11.0456   -2.9774   18.2694 N   0  0  0  0  0  0  0  0  0  0  0  0
   10.4788   -3.0457   21.8593 C   0  0  0  0  0  0  0  0  0  0  0  0
    8.8693   -5.8099   18.4657 N   0  0  0  0  0  0  0  0  0  0  0  0
    8.9892   -0.7926   25.4573 C   0  0  0  0  0  0  0  0  0  0  0  0
   10.5677   -3.4462   20.5323 C   0  0  0  0  0  0  0  0  0  0  0  0
  1  8  1  0
  1 12  4  0
  1 14  4  0
  2  3  4  0
  2 18  4  0
  3 20  4  0
  3 22  4  0
  4 11  4  0
  4 21  4  0
  5  9  4  0
  5 16  4  0
  6 15  4  0
  6 16  4  0
  7 22  4  0
  7 26  4  0
  8 10  4  0
  8 25  4  0
  9 15  4  0
  9 17  1  0
 10 21  4  0
 11 25  4  0
 12 23  4  0
 13 20  4  0
 13 26  4  0
 14 19  4  0
 17 18  4  0
 17 24  4  0
 19 23  4  0
 20 24  4  0
 23 26  1  0
M  END
$$$$

 Created by Python create_sdf_string function

 26 30  0  0  0  0  0  0  0  0999 V2000
   10.0084   -1.8019   23.4945 C   0  0  0  0  0  0  0  0  0  0  0  0
   10.0005   -4.2520   16.5631 C   0  0  0  0  0  0  0  0  0  0  0  0
   10.2759   -4.0036   17.8845 C   0  0  0  0  0  0  0  0  0  0  0  0
    8.5652    1.5478   25.3778 N   0  0  0  0  0  0  0  0  0  0  0  0
    6.8048   -7.5457   17.8752 C   0  0  0  0  0  0  0  0  0  0  0  0
    6.1721   -8.2186   15.9886 N   0  0  0  0  0  0  0  0  0  0  0  0
   11.1764   -2.6600   19.5604 C   0  0  0  0  0  0  0  0  0  0  0  0
    9.5491   -0.6380   24.1912 C   0  0  0  0  0  0  0  0  0  0  0  0
    7.5337   -6.9256   16.9519 C   0  0  0  0  0  0  0  0  0  0  0  0
    9.6782    0.5671   23.5143 C   0  0  0  0  0  0  0  0  0  0  0  0
    8.4532    0.3482   26.0821 C   0  0  0  0  0  0  0  0  0  0  0  0
   10.4239   -1.7677   22.2230 N   0  0  0  0  0  0  0  0  0  0  0  0
    9.9468   -4.5953   20.1709 C   0  0  0  0  0  0  0  0  0  0  0  0
   10.0366   -3.0590   23.9864 N   0  0  0  0  0  0  0  0  0  0  0  0
    7.1191   -7.3636   15.7739 C   0  0  0  0  0  0  0  0  0  0  0  0
    5.9612   -8.3203   17.2732 N   0  0  0  0  0  0  0  0  0  0  0  0
    8.5296   -5.9814   17.1841 C   0  0  0  0  0  0  0  0  0  0  0  0
    9.1527   -5.2118   16.2116 C   0  0  0  0  0  0  0  0  0  0  0  0
   10.3364   -3.8368   22.9255 O   0  0  0  0  0  0  0  0  0  0  0  0
    9.6947   -4.8407   18.8534 C   0  0  0  0  0  0  0  0  0  0  0  0
    9.1596    1.7042   24.1381 C   0  0  0  0  0  0  0  0  0  0  0  0
   11.0456   -2.9774   18.2694 N   0  0  0  0  0  0  0  0  0  0  0  0
   10.4788   -3.0457   21.8593 C   0  0  0  0  0  0  0  0  0  0  0  0
    8.8693   -5.8099   18.4657 N   0  0  0  0  0  0  0  0  0  0  0  0
    8.9892   -0.7926   25.4573 C   0  0  0  0  0  0  0  0  0  0  0  0
   10.5677   -3.4462   20.5323 C   0  0  0  0  0  0  0  0  0  0  0  0
  1  8  1  0
  1 12  4  0
  1 14  4  0
  2  3  4  0
  2 18  4  0
  3 20  4  0
  3 22  4  0
  4 11  4  0
  4 21  4  0
  5  9  4  0
  5 16  4  0
  6 15  4  0
  6 16  4  0
  7 22  4  0
  7 26  4  0
  8 10  4  0
  8 25  4  0
  9 15  4  0
  9 17  1  0
 10 21  4  0
 11 25  4  0
 12 23  4  0
 13 20  4  0
 13 26  4  0
 14 19  4  0
 17 18  4  0
 17 24  4  0
 19 23  4  0
 20 24  4  0
 23 26  1  0
M  END
$$$$

 Created by Python create_sdf_string function

 26 30  0  0  0  0  0  0  0  0999 V2000
   10.0084   -1.8019   23.4945 C   0  0  0  0  0  0  0  0  0  0  0  0
   10.0005   -4.2520   16.5631 C   0  0  0  0  0  0  0  0  0  0  0  0
   10.2759   -4.0036   17.8845 C   0  0  0  0  0  0  0  0  0  0  0  0
    8.5652    1.5478   25.3778 N   0  0  0  0  0  0  0  0  0  0  0  0
    6.8048   -7.5457   17.8752 C   0  0  0  0  0  0  0  0  0  0  0  0
    6.1721   -8.2186   15.9886 N   0  0  0  0  0  0  0  0  0  0  0  0
   11.1764   -2.6600   19.5604 C   0  0  0  0  0  0  0  0  0  0  0  0
    9.5491   -0.6380   24.1912 C   0  0  0  0  0  0  0  0  0  0  0  0
    7.5337   -6.9256   16.9519 C   0  0  0  0  0  0  0  0  0  0  0  0
    9.6782    0.5671   23.5143 C   0  0  0  0  0  0  0  0  0  0  0  0
    8.4532    0.3482   26.0821 C   0  0  0  0  0  0  0  0  0  0  0  0
   10.4239   -1.7677   22.2230 N   0  0  0  0  0  0  0  0  0  0  0  0
    9.9468   -4.5953   20.1709 C   0  0  0  0  0  0  0  0  0  0  0  0
   10.0366   -3.0590   23.9864 N   0  0  0  0  0  0  0  0  0  0  0  0
    7.1191   -7.3636   15.7739 C   0  0  0  0  0  0  0  0  0  0  0  0
    5.9612   -8.3203   17.2732 N   0  0  0  0  0  0  0  0  0  0  0  0
    8.5296   -5.9814   17.1841 C   0  0  0  0  0  0  0  0  0  0  0  0
    9.1527   -5.2118   16.2116 C   0  0  0  0  0  0  0  0  0  0  0  0
   10.3364   -3.8368   22.9255 O   0  0  0  0  0  0  0  0  0  0  0  0
    9.6947   -4.8407   18.8534 C   0  0  0  0  0  0  0  0  0  0  0  0
    9.1596    1.7042   24.1381 C   0  0  0  0  0  0  0  0  0  0  0  0
   11.0456   -2.9774   18.2694 N   0  0  0  0  0  0  0  0  0  0  0  0
   10.4788   -3.0457   21.8593 C   0  0  0  0  0  0  0  0  0  0  0  0
    8.8693   -5.8099   18.4657 N   0  0  0  0  0  0  0  0  0  0  0  0
    8.9892   -0.7926   25.4573 C   0  0  0  0  0  0  0  0  0  0  0  0
   10.5677   -3.4462   20.5323 C   0  0  0  0  0  0  0  0  0  0  0  0
  1  8  1  0
  1 12  4  0
  1 14  4  0
  2  3  4  0
  2 18  4  0
  3 20  4  0
  3 22  4  0
  4 11  4  0
  4 21  4  0
  5  9  4  0
  5 16  4  0
  6 15  4  0
  6 16  4  0
  7 22  4  0
  7 26  4  0
  8 10  4  0
  8 25  4  0
  9 15  4  0
  9 17  1  0
 10 21  4  0
 11 25  4  0
 12 23  4  0
 13 20  4  0
 13 26  4  0
 14 19  4  0
 17 18  4  0
 17 24  4  0
 19 23  4  0
 20 24  4  0
 23 26  1  0
M  END
$$$$

 Created by Python create_sdf_string function

 26 30  0  0  0  0  0  0  0  0999 V2000
   10.0084   -1.8019   23.4945 C   0  0  0  0  0  0  0  0  0  0  0  0
   10.0005   -4.2520   16.5631 C   0  0  0  0  0  0  0  0  0  0  0  0
   10.2759   -4.0036   17.8845 C   0  0  0  0  0  0  0  0  0  0  0  0
    8.5652    1.5478   25.3778 N   0  0  0  0  0  0  0  0  0  0  0  0
    6.8048   -7.5457   17.8752 C   0  0  0  0  0  0  0  0  0  0  0  0
    6.1721   -8.2186   15.9886 N   0  0  0  0  0  0  0  0  0  0  0  0
   11.1764   -2.6600   19.5604 C   0  0  0  0  0  0  0  0  0  0  0  0
    9.5491   -0.6380   24.1912 C   0  0  0  0  0  0  0  0  0  0  0  0
    7.5337   -6.9256   16.9519 C   0  0  0  0  0  0  0  0  0  0  0  0
    9.6782    0.5671   23.5143 C   0  0  0  0  0  0  0  0  0  0  0  0
    8.4532    0.3482   26.0821 C   0  0  0  0  0  0  0  0  0  0  0  0
   10.4239   -1.7677   22.2230 N   0  0  0  0  0  0  0  0  0  0  0  0
    9.9468   -4.5953   20.1709 C   0  0  0  0  0  0  0  0  0  0  0  0
   10.0366   -3.0590   23.9864 N   0  0  0  0  0  0  0  0  0  0  0  0
    7.1191   -7.3636   15.7739 C   0  0  0  0  0  0  0  0  0  0  0  0
    5.9612   -8.3203   17.2732 N   0  0  0  0  0  0  0  0  0  0  0  0
    8.5296   -5.9814   17.1841 C   0  0  0  0  0  0  0  0  0  0  0  0
    9.1527   -5.2118   16.2116 C   0  0  0  0  0  0  0  0  0  0  0  0
   10.3364   -3.8368   22.9255 O   0  0  0  0  0  0  0  0  0  0  0  0
    9.6947   -4.8407   18.8534 C   0  0  0  0  0  0  0  0  0  0  0  0
    9.1596    1.7042   24.1381 C   0  0  0  0  0  0  0  0  0  0  0  0
   11.0456   -2.9774   18.2694 N   0  0  0  0  0  0  0  0  0  0  0  0
   10.4788   -3.0457   21.8593 C   0  0  0  0  0  0  0  0  0  0  0  0
    8.8693   -5.8099   18.4657 N   0  0  0  0  0  0  0  0  0  0  0  0
    8.9892   -0.7926   25.4573 C   0  0  0  0  0  0  0  0  0  0  0  0
   10.5677   -3.4462   20.5323 C   0  0  0  0  0  0  0  0  0  0  0  0
  1  8  1  0
  1 12  4  0
  1 14  4  0
  2  3  4  0
  2 18  4  0
  3 20  4  0
  3 22  4  0
  4 11  4  0
  4 21  4  0
  5  9  4  0
  5 16  4  0
  6 15  4  0
  6 16  4  0
  7 22  4  0
  7 26  4  0
  8 10  4  0
  8 25  4  0
  9 15  4  0
  9 17  1  0
 10 21  4  0
 11 25  4  0
 12 23  4  0
 13 20  4  0
 13 26  4  0
 14 19  4  0
 17 18  4  0
 17 24  4  0
 19 23  4  0
 20 24  4  0
 23 26  1  0
M  END
$$$$

 Created by Python create_sdf_string function

 26 30  0  0  0  0  0  0  0  0999 V2000
   10.0084   -1.8019   23.4945 C   0  0  0  0  0  0  0  0  0  0  0  0
   10.0005   -4.2520   16.5631 C   0  0  0  0  0  0  0  0  0  0  0  0
   10.2759   -4.0036   17.8845 C   0  0  0  0  0  0  0  0  0  0  0  0
    8.5652    1.5478   25.3778 N   0  0  0  0  0  0  0  0  0  0  0  0
    6.8048   -7.5457   17.8752 C   0  0  0  0  0  0  0  0  0  0  0  0
    6.1721   -8.2186   15.9886 N   0  0  0  0  0  0  0  0  0  0  0  0
   11.1764   -2.6600   19.5604 C   0  0  0  0  0  0  0  0  0  0  0  0
    9.5491   -0.6380   24.1912 C   0  0  0  0  0  0  0  0  0  0  0  0
    7.5337   -6.9256   16.9519 C   0  0  0  0  0  0  0  0  0  0  0  0
    9.6782    0.5671   23.5143 C   0  0  0  0  0  0  0  0  0  0  0  0
    8.4532    0.3482   26.0821 C   0  0  0  0  0  0  0  0  0  0  0  0
   10.4239   -1.7677   22.2230 N   0  0  0  0  0  0  0  0  0  0  0  0
    9.9468   -4.5953   20.1709 C   0  0  0  0  0  0  0  0  0  0  0  0
   10.0366   -3.0590   23.9864 N   0  0  0  0  0  0  0  0  0  0  0  0
    7.1191   -7.3636   15.7739 C   0  0  0  0  0  0  0  0  0  0  0  0
    5.9612   -8.3203   17.2732 N   0  0  0  0  0  0  0  0  0  0  0  0
    8.5296   -5.9814   17.1841 C   0  0  0  0  0  0  0  0  0  0  0  0
    9.1527   -5.2118   16.2116 C   0  0  0  0  0  0  0  0  0  0  0  0
   10.3364   -3.8368   22.9255 O   0  0  0  0  0  0  0  0  0  0  0  0
    9.6947   -4.8407   18.8534 C   0  0  0  0  0  0  0  0  0  0  0  0
    9.1596    1.7042   24.1381 C   0  0  0  0  0  0  0  0  0  0  0  0
   11.0456   -2.9774   18.2694 N   0  0  0  0  0  0  0  0  0  0  0  0
   10.4788   -3.0457   21.8593 C   0  0  0  0  0  0  0  0  0  0  0  0
    8.8693   -5.8099   18.4657 N   0  0  0  0  0  0  0  0  0  0  0  0
    8.9892   -0.7926   25.4573 C   0  0  0  0  0  0  0  0  0  0  0  0
   10.5677   -3.4462   20.5323 C   0  0  0  0  0  0  0  0  0  0  0  0
  1  8  1  0
  1 12  4  0
  1 14  4  0
  2  3  4  0
  2 18  4  0
  3 20  4  0
  3 22  4  0
  4 11  4  0
  4 21  4  0
  5  9  4  0
  5 16  4  0
  6 15  4  0
  6 16  4  0
  7 22  4  0
  7 26  4  0
  8 10  4  0
  8 25  4  0
  9 15  4  0
  9 17  1  0
 10 21  4  0
 11 25  4  0
 12 23  4  0
 13 20  4  0
 13 26  4  0
 14 19  4  0
 17 18  4  0
 17 24  4  0
 19 23  4  0
 20 24  4  0
 23 26  1  0
M  END
$$$$

 Created by Python create_sdf_string function

 26 30  0  0  0  0  0  0  0  0999 V2000
   10.0084   -1.8019   23.4945 C   0  0  0  0  0  0  0  0  0  0  0  0
   10.0005   -4.2520   16.5631 C   0  0  0  0  0  0  0  0  0  0  0  0
   10.2759   -4.0036   17.8845 C   0  0  0  0  0  0  0  0  0  0  0  0
    8.5652    1.5478   25.3778 N   0  0  0  0  0  0  0  0  0  0  0  0
    6.8048   -7.5457   17.8752 C   0  0  0  0  0  0  0  0  0  0  0  0
    6.1721   -8.2186   15.9886 N   0  0  0  0  0  0  0  0  0  0  0  0
   11.1764   -2.6600   19.5604 C   0  0  0  0  0  0  0  0  0  0  0  0
    9.5491   -0.6380   24.1912 C   0  0  0  0  0  0  0  0  0  0  0  0
    7.5337   -6.9256   16.9519 C   0  0  0  0  0  0  0  0  0  0  0  0
    9.6782    0.5671   23.5143 C   0  0  0  0  0  0  0  0  0  0  0  0
    8.4532    0.3482   26.0821 C   0  0  0  0  0  0  0  0  0  0  0  0
   10.4239   -1.7677   22.2230 N   0  0  0  0  0  0  0  0  0  0  0  0
    9.9468   -4.5953   20.1709 C   0  0  0  0  0  0  0  0  0  0  0  0
   10.0366   -3.0590   23.9864 N   0  0  0  0  0  0  0  0  0  0  0  0
    7.1191   -7.3636   15.7739 C   0  0  0  0  0  0  0  0  0  0  0  0
    5.9612   -8.3203   17.2732 N   0  0  0  0  0  0  0  0  0  0  0  0
    8.5296   -5.9814   17.1841 C   0  0  0  0  0  0  0  0  0  0  0  0
    9.1527   -5.2118   16.2116 C   0  0  0  0  0  0  0  0  0  0  0  0
   10.3364   -3.8368   22.9255 O   0  0  0  0  0  0  0  0  0  0  0  0
    9.6947   -4.8407   18.8534 C   0  0  0  0  0  0  0  0  0  0  0  0
    9.1596    1.7042   24.1381 C   0  0  0  0  0  0  0  0  0  0  0  0
   11.0456   -2.9774   18.2694 N   0  0  0  0  0  0  0  0  0  0  0  0
   10.4788   -3.0457   21.8593 C   0  0  0  0  0  0  0  0  0  0  0  0
    8.8693   -5.8099   18.4657 N   0  0  0  0  0  0  0  0  0  0  0  0
    8.9892   -0.7926   25.4573 C   0  0  0  0  0  0  0  0  0  0  0  0
   10.5677   -3.4462   20.5323 C   0  0  0  0  0  0  0  0  0  0  0  0
  1  8  1  0
  1 12  4  0
  1 14  4  0
  2  3  4  0
  2 18  4  0
  3 20  4  0
  3 22  4  0
  4 11  4  0
  4 21  4  0
  5  9  4  0
  5 16  4  0
  6 15  4  0
  6 16  4  0
  7 22  4  0
  7 26  4  0
  8 10  4  0
  8 25  4  0
  9 15  4  0
  9 17  1  0
 10 21  4  0
 11 25  4  0
 12 23  4  0
 13 20  4  0
 13 26  4  0
 14 19  4  0
 17 18  4  0
 17 24  4  0
 19 23  4  0
 20 24  4  0
 23 26  1  0
M  END
$$$$

 Created by Python create_sdf_string function

 26 30  0  0  0  0  0  0  0  0999 V2000
   10.0084   -1.8019   23.4945 C   0  0  0  0  0  0  0  0  0  0  0  0
   10.0005   -4.2520   16.5631 C   0  0  0  0  0  0  0  0  0  0  0  0
   10.2759   -4.0036   17.8845 C   0  0  0  0  0  0  0  0  0  0  0  0
    8.5652    1.5478   25.3778 N   0  0  0  0  0  0  0  0  0  0  0  0
    6.8048   -7.5457   17.8752 C   0  0  0  0  0  0  0  0  0  0  0  0
    6.1721   -8.2186   15.9886 N   0  0  0  0  0  0  0  0  0  0  0  0
   11.1764   -2.6600   19.5604 C   0  0  0  0  0  0  0  0  0  0  0  0
    9.5491   -0.6380   24.1912 C   0  0  0  0  0  0  0  0  0  0  0  0
    7.5337   -6.9256   16.9519 C   0  0  0  0  0  0  0  0  0  0  0  0
    9.6782    0.5671   23.5143 C   0  0  0  0  0  0  0  0  0  0  0  0
    8.4532    0.3482   26.0821 C   0  0  0  0  0  0  0  0  0  0  0  0
   10.4239   -1.7677   22.2230 N   0  0  0  0  0  0  0  0  0  0  0  0
    9.9468   -4.5953   20.1709 C   0  0  0  0  0  0  0  0  0  0  0  0
   10.0366   -3.0590   23.9864 N   0  0  0  0  0  0  0  0  0  0  0  0
    7.1191   -7.3636   15.7739 C   0  0  0  0  0  0  0  0  0  0  0  0
    5.9612   -8.3203   17.2732 N   0  0  0  0  0  0  0  0  0  0  0  0
    8.5296   -5.9814   17.1841 C   0  0  0  0  0  0  0  0  0  0  0  0
    9.1527   -5.2118   16.2116 C   0  0  0  0  0  0  0  0  0  0  0  0
   10.3364   -3.8368   22.9255 O   0  0  0  0  0  0  0  0  0  0  0  0
    9.6947   -4.8407   18.8534 C   0  0  0  0  0  0  0  0  0  0  0  0
    9.1596    1.7042   24.1381 C   0  0  0  0  0  0  0  0  0  0  0  0
   11.0456   -2.9774   18.2694 N   0  0  0  0  0  0  0  0  0  0  0  0
   10.4788   -3.0457   21.8593 C   0  0  0  0  0  0  0  0  0  0  0  0
    8.8693   -5.8099   18.4657 N   0  0  0  0  0  0  0  0  0  0  0  0
    8.9892   -0.7926   25.4573 C   0  0  0  0  0  0  0  0  0  0  0  0
   10.5677   -3.4462   20.5323 C   0  0  0  0  0  0  0  0  0  0  0  0
  1  8  1  0
  1 12  4  0
  1 14  4  0
  2  3  4  0
  2 18  4  0
  3 20  4  0
  3 22  4  0
  4 11  4  0
  4 21  4  0
  5  9  4  0
  5 16  4  0
  6 15  4  0
  6 16  4  0
  7 22  4  0
  7 26  4  0
  8 10  4  0
  8 25  4  0
  9 15  4  0
  9 17  1  0
 10 21  4  0
 11 25  4  0
 12 23  4  0
 13 20  4  0
 13 26  4  0
 14 19  4  0
 17 18  4  0
 17 24  4  0
 19 23  4  0
 20 24  4  0
 23 26  1  0
M  END
$$$$

 Created by Python create_sdf_string function

 26 30  0  0  0  0  0  0  0  0999 V2000
   10.0084   -1.8019   23.4945 C   0  0  0  0  0  0  0  0  0  0  0  0
   10.0005   -4.2520   16.5631 C   0  0  0  0  0  0  0  0  0  0  0  0
   10.2759   -4.0036   17.8845 C   0  0  0  0  0  0  0  0  0  0  0  0
    8.5652    1.5478   25.3778 N   0  0  0  0  0  0  0  0  0  0  0  0
    6.8048   -7.5457   17.8752 C   0  0  0  0  0  0  0  0  0  0  0  0
    6.1721   -8.2186   15.9886 N   0  0  0  0  0  0  0  0  0  0  0  0
   11.1764   -2.6600   19.5604 C   0  0  0  0  0  0  0  0  0  0  0  0
    9.5491   -0.6380   24.1912 C   0  0  0  0  0  0  0  0  0  0  0  0
    7.5337   -6.9256   16.9519 C   0  0  0  0  0  0  0  0  0  0  0  0
    9.6782    0.5671   23.5143 C   0  0  0  0  0  0  0  0  0  0  0  0
    8.4532    0.3482   26.0821 C   0  0  0  0  0  0  0  0  0  0  0  0
   10.4239   -1.7677   22.2230 N   0  0  0  0  0  0  0  0  0  0  0  0
    9.9468   -4.5953   20.1709 C   0  0  0  0  0  0  0  0  0  0  0  0
   10.0366   -3.0590   23.9864 N   0  0  0  0  0  0  0  0  0  0  0  0
    7.1191   -7.3636   15.7739 C   0  0  0  0  0  0  0  0  0  0  0  0
    5.9612   -8.3203   17.2732 N   0  0  0  0  0  0  0  0  0  0  0  0
    8.5296   -5.9814   17.1841 C   0  0  0  0  0  0  0  0  0  0  0  0
    9.1527   -5.2118   16.2116 C   0  0  0  0  0  0  0  0  0  0  0  0
   10.3364   -3.8368   22.9255 O   0  0  0  0  0  0  0  0  0  0  0  0
    9.6947   -4.8407   18.8534 C   0  0  0  0  0  0  0  0  0  0  0  0
    9.1596    1.7042   24.1381 C   0  0  0  0  0  0  0  0  0  0  0  0
   11.0456   -2.9774   18.2694 N   0  0  0  0  0  0  0  0  0  0  0  0
   10.4788   -3.0457   21.8593 C   0  0  0  0  0  0  0  0  0  0  0  0
    8.8693   -5.8099   18.4657 N   0  0  0  0  0  0  0  0  0  0  0  0
    8.9892   -0.7926   25.4573 C   0  0  0  0  0  0  0  0  0  0  0  0
   10.5677   -3.4462   20.5323 C   0  0  0  0  0  0  0  0  0  0  0  0
  1  8  1  0
  1 12  4  0
  1 14  4  0
  2  3  4  0
  2 18  4  0
  3 20  4  0
  3 22  4  0
  4 11  4  0
  4 21  4  0
  5  9  4  0
  5 16  4  0
  6 15  4  0
  6 16  4  0
  7 22  4  0
  7 26  4  0
  8 10  4  0
  8 25  4  0
  9 15  4  0
  9 17  1  0
 10 21  4  0
 11 25  4  0
 12 23  4  0
 13 20  4  0
 13 26  4  0
 14 19  4  0
 17 18  4  0
 17 24  4  0
 19 23  4  0
 20 24  4  0
 23 26  1  0
M  END
$$$$

 Created by Python create_sdf_string function

 26 30  0  0  0  0  0  0  0  0999 V2000
   10.0084   -1.8019   23.4945 C   0  0  0  0  0  0  0  0  0  0  0  0
   10.0005   -4.2520   16.5631 C   0  0  0  0  0  0  0  0  0  0  0  0
   10.2759   -4.0036   17.8845 C   0  0  0  0  0  0  0  0  0  0  0  0
    8.5652    1.5478   25.3778 N   0  0  0  0  0  0  0  0  0  0  0  0
    6.8048   -7.5457   17.8752 C   0  0  0  0  0  0  0  0  0  0  0  0
    6.1721   -8.2186   15.9886 N   0  0  0  0  0  0  0  0  0  0  0  0
   11.1764   -2.6600   19.5604 C   0  0  0  0  0  0  0  0  0  0  0  0
    9.5491   -0.6380   24.1912 C   0  0  0  0  0  0  0  0  0  0  0  0
    7.5337   -6.9256   16.9519 C   0  0  0  0  0  0  0  0  0  0  0  0
    9.6782    0.5671   23.5143 C   0  0  0  0  0  0  0  0  0  0  0  0
    8.4532    0.3482   26.0821 C   0  0  0  0  0  0  0  0  0  0  0  0
   10.4239   -1.7677   22.2230 N   0  0  0  0  0  0  0  0  0  0  0  0
    9.9468   -4.5953   20.1709 C   0  0  0  0  0  0  0  0  0  0  0  0
   10.0366   -3.0590   23.9864 N   0  0  0  0  0  0  0  0  0  0  0  0
    7.1191   -7.3636   15.7739 C   0  0  0  0  0  0  0  0  0  0  0  0
    5.9612   -8.3203   17.2732 N   0  0  0  0  0  0  0  0  0  0  0  0
    8.5296   -5.9814   17.1841 C   0  0  0  0  0  0  0  0  0  0  0  0
    9.1527   -5.2118   16.2116 C   0  0  0  0  0  0  0  0  0  0  0  0
   10.3364   -3.8368   22.9255 O   0  0  0  0  0  0  0  0  0  0  0  0
    9.6947   -4.8407   18.8534 C   0  0  0  0  0  0  0  0  0  0  0  0
    9.1596    1.7042   24.1381 C   0  0  0  0  0  0  0  0  0  0  0  0
   11.0456   -2.9774   18.2694 N   0  0  0  0  0  0  0  0  0  0  0  0
   10.4788   -3.0457   21.8593 C   0  0  0  0  0  0  0  0  0  0  0  0
    8.8693   -5.8099   18.4657 N   0  0  0  0  0  0  0  0  0  0  0  0
    8.9892   -0.7926   25.4573 C   0  0  0  0  0  0  0  0  0  0  0  0
   10.5677   -3.4462   20.5323 C   0  0  0  0  0  0  0  0  0  0  0  0
  1  8  1  0
  1 12  4  0
  1 14  4  0
  2  3  4  0
  2 18  4  0
  3 20  4  0
  3 22  4  0
  4 11  4  0
  4 21  4  0
  5  9  4  0
  5 16  4  0
  6 15  4  0
  6 16  4  0
  7 22  4  0
  7 26  4  0
  8 10  4  0
  8 25  4  0
  9 15  4  0
  9 17  1  0
 10 21  4  0
 11 25  4  0
 12 23  4  0
 13 20  4  0
 13 26  4  0
 14 19  4  0
 17 18  4  0
 17 24  4  0
 19 23  4  0
 20 24  4  0
 23 26  1  0
M  END
$$$$

 Created by Python create_sdf_string function

 26 30  0  0  0  0  0  0  0  0999 V2000
   10.0084   -1.8019   23.4945 C   0  0  0  0  0  0  0  0  0  0  0  0
   10.0005   -4.2520   16.5631 C   0  0  0  0  0  0  0  0  0  0  0  0
   10.2759   -4.0036   17.8845 C   0  0  0  0  0  0  0  0  0  0  0  0
    8.5652    1.5478   25.3778 N   0  0  0  0  0  0  0  0  0  0  0  0
    6.8048   -7.5457   17.8752 C   0  0  0  0  0  0  0  0  0  0  0  0
    6.1721   -8.2186   15.9886 N   0  0  0  0  0  0  0  0  0  0  0  0
   11.1764   -2.6600   19.5604 C   0  0  0  0  0  0  0  0  0  0  0  0
    9.5491   -0.6380   24.1912 C   0  0  0  0  0  0  0  0  0  0  0  0
    7.5337   -6.9256   16.9519 C   0  0  0  0  0  0  0  0  0  0  0  0
    9.6782    0.5671   23.5143 C   0  0  0  0  0  0  0  0  0  0  0  0
    8.4532    0.3482   26.0821 C   0  0  0  0  0  0  0  0  0  0  0  0
   10.4239   -1.7677   22.2230 N   0  0  0  0  0  0  0  0  0  0  0  0
    9.9468   -4.5953   20.1709 C   0  0  0  0  0  0  0  0  0  0  0  0
   10.0366   -3.0590   23.9864 N   0  0  0  0  0  0  0  0  0  0  0  0
    7.1191   -7.3636   15.7739 C   0  0  0  0  0  0  0  0  0  0  0  0
    5.9612   -8.3203   17.2732 N   0  0  0  0  0  0  0  0  0  0  0  0
    8.5296   -5.9814   17.1841 C   0  0  0  0  0  0  0  0  0  0  0  0
    9.1527   -5.2118   16.2116 C   0  0  0  0  0  0  0  0  0  0  0  0
   10.3364   -3.8368   22.9255 O   0  0  0  0  0  0  0  0  0  0  0  0
    9.6947   -4.8407   18.8534 C   0  0  0  0  0  0  0  0  0  0  0  0
    9.1596    1.7042   24.1381 C   0  0  0  0  0  0  0  0  0  0  0  0
   11.0456   -2.9774   18.2694 N   0  0  0  0  0  0  0  0  0  0  0  0
   10.4788   -3.0457   21.8593 C   0  0  0  0  0  0  0  0  0  0  0  0
    8.8693   -5.8099   18.4657 N   0  0  0  0  0  0  0  0  0  0  0  0
    8.9892   -0.7926   25.4573 C   0  0  0  0  0  0  0  0  0  0  0  0
   10.5677   -3.4462   20.5323 C   0  0  0  0  0  0  0  0  0  0  0  0
  1  8  1  0
  1 12  4  0
  1 14  4  0
  2  3  4  0
  2 18  4  0
  3 20  4  0
  3 22  4  0
  4 11  4  0
  4 21  4  0
  5  9  4  0
  5 16  4  0
  6 15  4  0
  6 16  4  0
  7 22  4  0
  7 26  4  0
  8 10  4  0
  8 25  4  0
  9 15  4  0
  9 17  1  0
 10 21  4  0
 11 25  4  0
 12 23  4  0
 13 20  4  0
 13 26  4  0
 14 19  4  0
 17 18  4  0
 17 24  4  0
 19 23  4  0
 20 24  4  0
 23 26  1  0
M  END
$$$$

 Created by Python create_sdf_string function

 26 30  0  0  0  0  0  0  0  0999 V2000
   10.0084   -1.8019   23.4945 C   0  0  0  0  0  0  0  0  0  0  0  0
   10.0005   -4.2520   16.5631 C   0  0  0  0  0  0  0  0  0  0  0  0
   10.2759   -4.0036   17.8845 C   0  0  0  0  0  0  0  0  0  0  0  0
    8.5652    1.5478   25.3778 N   0  0  0  0  0  0  0  0  0  0  0  0
    6.8048   -7.5457   17.8752 C   0  0  0  0  0  0  0  0  0  0  0  0
    6.1721   -8.2186   15.9886 N   0  0  0  0  0  0  0  0  0  0  0  0
   11.1764   -2.6600   19.5604 C   0  0  0  0  0  0  0  0  0  0  0  0
    9.5491   -0.6380   24.1912 C   0  0  0  0  0  0  0  0  0  0  0  0
    7.5337   -6.9256   16.9519 C   0  0  0  0  0  0  0  0  0  0  0  0
    9.6782    0.5671   23.5143 C   0  0  0  0  0  0  0  0  0  0  0  0
    8.4532    0.3482   26.0821 C   0  0  0  0  0  0  0  0  0  0  0  0
   10.4239   -1.7677   22.2230 N   0  0  0  0  0  0  0  0  0  0  0  0
    9.9468   -4.5953   20.1709 C   0  0  0  0  0  0  0  0  0  0  0  0
   10.0366   -3.0590   23.9864 N   0  0  0  0  0  0  0  0  0  0  0  0
    7.1191   -7.3636   15.7739 C   0  0  0  0  0  0  0  0  0  0  0  0
    5.9612   -8.3203   17.2732 N   0  0  0  0  0  0  0  0  0  0  0  0
    8.5296   -5.9814   17.1841 C   0  0  0  0  0  0  0  0  0  0  0  0
    9.1527   -5.2118   16.2116 C   0  0  0  0  0  0  0  0  0  0  0  0
   10.3364   -3.8368   22.9255 O   0  0  0  0  0  0  0  0  0  0  0  0
    9.6947   -4.8407   18.8534 C   0  0  0  0  0  0  0  0  0  0  0  0
    9.1596    1.7042   24.1381 C   0  0  0  0  0  0  0  0  0  0  0  0
   11.0456   -2.9774   18.2694 N   0  0  0  0  0  0  0  0  0  0  0  0
   10.4788   -3.0457   21.8593 C   0  0  0  0  0  0  0  0  0  0  0  0
    8.8693   -5.8099   18.4657 N   0  0  0  0  0  0  0  0  0  0  0  0
    8.9892   -0.7926   25.4573 C   0  0  0  0  0  0  0  0  0  0  0  0
   10.5677   -3.4462   20.5323 C   0  0  0  0  0  0  0  0  0  0  0  0
  1  8  1  0
  1 12  4  0
  1 14  4  0
  2  3  4  0
  2 18  4  0
  3 20  4  0
  3 22  4  0
  4 11  4  0
  4 21  4  0
  5  9  4  0
  5 16  4  0
  6 15  4  0
  6 16  4  0
  7 22  4  0
  7 26  4  0
  8 10  4  0
  8 25  4  0
  9 15  4  0
  9 17  1  0
 10 21  4  0
 11 25  4  0
 12 23  4  0
 13 20  4  0
 13 26  4  0
 14 19  4  0
 17 18  4  0
 17 24  4  0
 19 23  4  0
 20 24  4  0
 23 26  1  0
M  END
$$$$

 Created by Python create_sdf_string function

 26 30  0  0  0  0  0  0  0  0999 V2000
   10.0084   -1.8019   23.4945 C   0  0  0  0  0  0  0  0  0  0  0  0
   10.0005   -4.2520   16.5631 C   0  0  0  0  0  0  0  0  0  0  0  0
   10.2759   -4.0036   17.8845 C   0  0  0  0  0  0  0  0  0  0  0  0
    8.5652    1.5478   25.3778 N   0  0  0  0  0  0  0  0  0  0  0  0
    6.8048   -7.5457   17.8752 C   0  0  0  0  0  0  0  0  0  0  0  0
    6.1721   -8.2186   15.9886 N   0  0  0  0  0  0  0  0  0  0  0  0
   11.1764   -2.6600   19.5604 C   0  0  0  0  0  0  0  0  0  0  0  0
    9.5491   -0.6380   24.1912 C   0  0  0  0  0  0  0  0  0  0  0  0
    7.5337   -6.9256   16.9519 C   0  0  0  0  0  0  0  0  0  0  0  0
    9.6782    0.5671   23.5143 C   0  0  0  0  0  0  0  0  0  0  0  0
    8.4532    0.3482   26.0821 C   0  0  0  0  0  0  0  0  0  0  0  0
   10.4239   -1.7677   22.2230 N   0  0  0  0  0  0  0  0  0  0  0  0
    9.9468   -4.5953   20.1709 C   0  0  0  0  0  0  0  0  0  0  0  0
   10.0366   -3.0590   23.9864 N   0  0  0  0  0  0  0  0  0  0  0  0
    7.1191   -7.3636   15.7739 C   0  0  0  0  0  0  0  0  0  0  0  0
    5.9612   -8.3203   17.2732 N   0  0  0  0  0  0  0  0  0  0  0  0
    8.5296   -5.9814   17.1841 C   0  0  0  0  0  0  0  0  0  0  0  0
    9.1527   -5.2118   16.2116 C   0  0  0  0  0  0  0  0  0  0  0  0
   10.3364   -3.8368   22.9255 O   0  0  0  0  0  0  0  0  0  0  0  0
    9.6947   -4.8407   18.8534 C   0  0  0  0  0  0  0  0  0  0  0  0
    9.1596    1.7042   24.1381 C   0  0  0  0  0  0  0  0  0  0  0  0
   11.0456   -2.9774   18.2694 N   0  0  0  0  0  0  0  0  0  0  0  0
   10.4788   -3.0457   21.8593 C   0  0  0  0  0  0  0  0  0  0  0  0
    8.8693   -5.8099   18.4657 N   0  0  0  0  0  0  0  0  0  0  0  0
    8.9892   -0.7926   25.4573 C   0  0  0  0  0  0  0  0  0  0  0  0
   10.5677   -3.4462   20.5323 C   0  0  0  0  0  0  0  0  0  0  0  0
  1  8  1  0
  1 12  4  0
  1 14  4  0
  2  3  4  0
  2 18  4  0
  3 20  4  0
  3 22  4  0
  4 11  4  0
  4 21  4  0
  5  9  4  0
  5 16  4  0
  6 15  4  0
  6 16  4  0
  7 22  4  0
  7 26  4  0
  8 10  4  0
  8 25  4  0
  9 15  4  0
  9 17  1  0
 10 21  4  0
 11 25  4  0
 12 23  4  0
 13 20  4  0
 13 26  4  0
 14 19  4  0
 17 18  4  0
 17 24  4  0
 19 23  4  0
 20 24  4  0
 23 26  1  0
M  END
$$$$

 Created by Python create_sdf_string function

 26 30  0  0  0  0  0  0  0  0999 V2000
   10.0084   -1.8019   23.4945 C   0  0  0  0  0  0  0  0  0  0  0  0
   10.0005   -4.2520   16.5631 C   0  0  0  0  0  0  0  0  0  0  0  0
   10.2759   -4.0036   17.8845 C   0  0  0  0  0  0  0  0  0  0  0  0
    8.5652    1.5478   25.3778 N   0  0  0  0  0  0  0  0  0  0  0  0
    6.8048   -7.5457   17.8752 C   0  0  0  0  0  0  0  0  0  0  0  0
    6.1721   -8.2186   15.9886 N   0  0  0  0  0  0  0  0  0  0  0  0
   11.1764   -2.6600   19.5604 C   0  0  0  0  0  0  0  0  0  0  0  0
    9.5491   -0.6380   24.1912 C   0  0  0  0  0  0  0  0  0  0  0  0
    7.5337   -6.9256   16.9519 C   0  0  0  0  0  0  0  0  0  0  0  0
    9.6782    0.5671   23.5143 C   0  0  0  0  0  0  0  0  0  0  0  0
    8.4532    0.3482   26.0821 C   0  0  0  0  0  0  0  0  0  0  0  0
   10.4239   -1.7677   22.2230 N   0  0  0  0  0  0  0  0  0  0  0  0
    9.9468   -4.5953   20.1709 C   0  0  0  0  0  0  0  0  0  0  0  0
   10.0366   -3.0590   23.9864 N   0  0  0  0  0  0  0  0  0  0  0  0
    7.1191   -7.3636   15.7739 C   0  0  0  0  0  0  0  0  0  0  0  0
    5.9612   -8.3203   17.2732 N   0  0  0  0  0  0  0  0  0  0  0  0
    8.5296   -5.9814   17.1841 C   0  0  0  0  0  0  0  0  0  0  0  0
    9.1527   -5.2118   16.2116 C   0  0  0  0  0  0  0  0  0  0  0  0
   10.3364   -3.8368   22.9255 O   0  0  0  0  0  0  0  0  0  0  0  0
    9.6947   -4.8407   18.8534 C   0  0  0  0  0  0  0  0  0  0  0  0
    9.1596    1.7042   24.1381 C   0  0  0  0  0  0  0  0  0  0  0  0
   11.0456   -2.9774   18.2694 N   0  0  0  0  0  0  0  0  0  0  0  0
   10.4788   -3.0457   21.8593 C   0  0  0  0  0  0  0  0  0  0  0  0
    8.8693   -5.8099   18.4657 N   0  0  0  0  0  0  0  0  0  0  0  0
    8.9892   -0.7926   25.4573 C   0  0  0  0  0  0  0  0  0  0  0  0
   10.5677   -3.4462   20.5323 C   0  0  0  0  0  0  0  0  0  0  0  0
  1  8  1  0
  1 12  4  0
  1 14  4  0
  2  3  4  0
  2 18  4  0
  3 20  4  0
  3 22  4  0
  4 11  4  0
  4 21  4  0
  5  9  4  0
  5 16  4  0
  6 15  4  0
  6 16  4  0
  7 22  4  0
  7 26  4  0
  8 10  4  0
  8 25  4  0
  9 15  4  0
  9 17  1  0
 10 21  4  0
 11 25  4  0
 12 23  4  0
 13 20  4  0
 13 26  4  0
 14 19  4  0
 17 18  4  0
 17 24  4  0
 19 23  4  0
 20 24  4  0
 23 26  1  0
M  END
$$$$

 Created by Python create_sdf_string function

 26 30  0  0  0  0  0  0  0  0999 V2000
   10.0084   -1.8019   23.4945 C   0  0  0  0  0  0  0  0  0  0  0  0
   10.0005   -4.2520   16.5631 C   0  0  0  0  0  0  0  0  0  0  0  0
   10.2759   -4.0036   17.8845 C   0  0  0  0  0  0  0  0  0  0  0  0
    8.5652    1.5478   25.3778 N   0  0  0  0  0  0  0  0  0  0  0  0
    6.8048   -7.5457   17.8752 C   0  0  0  0  0  0  0  0  0  0  0  0
    6.1721   -8.2186   15.9886 N   0  0  0  0  0  0  0  0  0  0  0  0
   11.1764   -2.6600   19.5604 C   0  0  0  0  0  0  0  0  0  0  0  0
    9.5491   -0.6380   24.1912 C   0  0  0  0  0  0  0  0  0  0  0  0
    7.5337   -6.9256   16.9519 C   0  0  0  0  0  0  0  0  0  0  0  0
    9.6782    0.5671   23.5143 C   0  0  0  0  0  0  0  0  0  0  0  0
    8.4532    0.3482   26.0821 C   0  0  0  0  0  0  0  0  0  0  0  0
   10.4239   -1.7677   22.2230 N   0  0  0  0  0  0  0  0  0  0  0  0
    9.9468   -4.5953   20.1709 C   0  0  0  0  0  0  0  0  0  0  0  0
   10.0366   -3.0590   23.9864 N   0  0  0  0  0  0  0  0  0  0  0  0
    7.1191   -7.3636   15.7739 C   0  0  0  0  0  0  0  0  0  0  0  0
    5.9612   -8.3203   17.2732 N   0  0  0  0  0  0  0  0  0  0  0  0
    8.5296   -5.9814   17.1841 C   0  0  0  0  0  0  0  0  0  0  0  0
    9.1527   -5.2118   16.2116 C   0  0  0  0  0  0  0  0  0  0  0  0
   10.3364   -3.8368   22.9255 O   0  0  0  0  0  0  0  0  0  0  0  0
    9.6947   -4.8407   18.8534 C   0  0  0  0  0  0  0  0  0  0  0  0
    9.1596    1.7042   24.1381 C   0  0  0  0  0  0  0  0  0  0  0  0
   11.0456   -2.9774   18.2694 N   0  0  0  0  0  0  0  0  0  0  0  0
   10.4788   -3.0457   21.8593 C   0  0  0  0  0  0  0  0  0  0  0  0
    8.8693   -5.8099   18.4657 N   0  0  0  0  0  0  0  0  0  0  0  0
    8.9892   -0.7926   25.4573 C   0  0  0  0  0  0  0  0  0  0  0  0
   10.5677   -3.4462   20.5323 C   0  0  0  0  0  0  0  0  0  0  0  0
  1  8  1  0
  1 12  4  0
  1 14  4  0
  2  3  4  0
  2 18  4  0
  3 20  4  0
  3 22  4  0
  4 11  4  0
  4 21  4  0
  5  9  4  0
  5 16  4  0
  6 15  4  0
  6 16  4  0
  7 22  4  0
  7 26  4  0
  8 10  4  0
  8 25  4  0
  9 15  4  0
  9 17  1  0
 10 21  4  0
 11 25  4  0
 12 23  4  0
 13 20  4  0
 13 26  4  0
 14 19  4  0
 17 18  4  0
 17 24  4  0
 19 23  4  0
 20 24  4  0
 23 26  1  0
M  END
$$$$

 Created by Python create_sdf_string function

 26 30  0  0  0  0  0  0  0  0999 V2000
   10.0084   -1.8019   23.4945 C   0  0  0  0  0  0  0  0  0  0  0  0
   10.0005   -4.2520   16.5631 C   0  0  0  0  0  0  0  0  0  0  0  0
   10.2759   -4.0036   17.8845 C   0  0  0  0  0  0  0  0  0  0  0  0
    8.5652    1.5478   25.3778 N   0  0  0  0  0  0  0  0  0  0  0  0
    6.8048   -7.5457   17.8752 C   0  0  0  0  0  0  0  0  0  0  0  0
    6.1721   -8.2186   15.9886 N   0  0  0  0  0  0  0  0  0  0  0  0
   11.1764   -2.6600   19.5604 C   0  0  0  0  0  0  0  0  0  0  0  0
    9.5491   -0.6380   24.1912 C   0  0  0  0  0  0  0  0  0  0  0  0
    7.5337   -6.9256   16.9519 C   0  0  0  0  0  0  0  0  0  0  0  0
    9.6782    0.5671   23.5143 C   0  0  0  0  0  0  0  0  0  0  0  0
    8.4532    0.3482   26.0821 C   0  0  0  0  0  0  0  0  0  0  0  0
   10.4239   -1.7677   22.2230 N   0  0  0  0  0  0  0  0  0  0  0  0
    9.9468   -4.5953   20.1709 C   0  0  0  0  0  0  0  0  0  0  0  0
   10.0366   -3.0590   23.9864 N   0  0  0  0  0  0  0  0  0  0  0  0
    7.1191   -7.3636   15.7739 C   0  0  0  0  0  0  0  0  0  0  0  0
    5.9612   -8.3203   17.2732 N   0  0  0  0  0  0  0  0  0  0  0  0
    8.5296   -5.9814   17.1841 C   0  0  0  0  0  0  0  0  0  0  0  0
    9.1527   -5.2118   16.2116 C   0  0  0  0  0  0  0  0  0  0  0  0
   10.3364   -3.8368   22.9255 O   0  0  0  0  0  0  0  0  0  0  0  0
    9.6947   -4.8407   18.8534 C   0  0  0  0  0  0  0  0  0  0  0  0
    9.1596    1.7042   24.1381 C   0  0  0  0  0  0  0  0  0  0  0  0
   11.0456   -2.9774   18.2694 N   0  0  0  0  0  0  0  0  0  0  0  0
   10.4788   -3.0457   21.8593 C   0  0  0  0  0  0  0  0  0  0  0  0
    8.8693   -5.8099   18.4657 N   0  0  0  0  0  0  0  0  0  0  0  0
    8.9892   -0.7926   25.4573 C   0  0  0  0  0  0  0  0  0  0  0  0
   10.5677   -3.4462   20.5323 C   0  0  0  0  0  0  0  0  0  0  0  0
  1  8  1  0
  1 12  4  0
  1 14  4  0
  2  3  4  0
  2 18  4  0
  3 20  4  0
  3 22  4  0
  4 11  4  0
  4 21  4  0
  5  9  4  0
  5 16  4  0
  6 15  4  0
  6 16  4  0
  7 22  4  0
  7 26  4  0
  8 10  4  0
  8 25  4  0
  9 15  4  0
  9 17  1  0
 10 21  4  0
 11 25  4  0
 12 23  4  0
 13 20  4  0
 13 26  4  0
 14 19  4  0
 17 18  4  0
 17 24  4  0
 19 23  4  0
 20 24  4  0
 23 26  1  0
M  END
$$$$

 Created by Python create_sdf_string function

 26 30  0  0  0  0  0  0  0  0999 V2000
   10.0084   -1.8019   23.4945 C   0  0  0  0  0  0  0  0  0  0  0  0
   10.0005   -4.2520   16.5631 C   0  0  0  0  0  0  0  0  0  0  0  0
   10.2759   -4.0036   17.8845 C   0  0  0  0  0  0  0  0  0  0  0  0
    8.5652    1.5478   25.3778 N   0  0  0  0  0  0  0  0  0  0  0  0
    6.8048   -7.5457   17.8752 C   0  0  0  0  0  0  0  0  0  0  0  0
    6.1721   -8.2186   15.9886 N   0  0  0  0  0  0  0  0  0  0  0  0
   11.1764   -2.6600   19.5604 C   0  0  0  0  0  0  0  0  0  0  0  0
    9.5491   -0.6380   24.1912 C   0  0  0  0  0  0  0  0  0  0  0  0
    7.5337   -6.9256   16.9519 C   0  0  0  0  0  0  0  0  0  0  0  0
    9.6782    0.5671   23.5143 C   0  0  0  0  0  0  0  0  0  0  0  0
    8.4532    0.3482   26.0821 C   0  0  0  0  0  0  0  0  0  0  0  0
   10.4239   -1.7677   22.2230 N   0  0  0  0  0  0  0  0  0  0  0  0
    9.9468   -4.5953   20.1709 C   0  0  0  0  0  0  0  0  0  0  0  0
   10.0366   -3.0590   23.9864 N   0  0  0  0  0  0  0  0  0  0  0  0
    7.1191   -7.3636   15.7739 C   0  0  0  0  0  0  0  0  0  0  0  0
    5.9612   -8.3203   17.2732 N   0  0  0  0  0  0  0  0  0  0  0  0
    8.5296   -5.9814   17.1841 C   0  0  0  0  0  0  0  0  0  0  0  0
    9.1527   -5.2118   16.2116 C   0  0  0  0  0  0  0  0  0  0  0  0
   10.3364   -3.8368   22.9255 O   0  0  0  0  0  0  0  0  0  0  0  0
    9.6947   -4.8407   18.8534 C   0  0  0  0  0  0  0  0  0  0  0  0
    9.1596    1.7042   24.1381 C   0  0  0  0  0  0  0  0  0  0  0  0
   11.0456   -2.9774   18.2694 N   0  0  0  0  0  0  0  0  0  0  0  0
   10.4788   -3.0457   21.8593 C   0  0  0  0  0  0  0  0  0  0  0  0
    8.8693   -5.8099   18.4657 N   0  0  0  0  0  0  0  0  0  0  0  0
    8.9892   -0.7926   25.4573 C   0  0  0  0  0  0  0  0  0  0  0  0
   10.5677   -3.4462   20.5323 C   0  0  0  0  0  0  0  0  0  0  0  0
  1  8  1  0
  1 12  4  0
  1 14  4  0
  2  3  4  0
  2 18  4  0
  3 20  4  0
  3 22  4  0
  4 11  4  0
  4 21  4  0
  5  9  4  0
  5 16  4  0
  6 15  4  0
  6 16  4  0
  7 22  4  0
  7 26  4  0
  8 10  4  0
  8 25  4  0
  9 15  4  0
  9 17  1  0
 10 21  4  0
 11 25  4  0
 12 23  4  0
 13 20  4  0
 13 26  4  0
 14 19  4  0
 17 18  4  0
 17 24  4  0
 19 23  4  0
 20 24  4  0
 23 26  1  0
M  END
$$$$

 Created by Python create_sdf_string function

 26 30  0  0  0  0  0  0  0  0999 V2000
   10.0084   -1.8019   23.4945 C   0  0  0  0  0  0  0  0  0  0  0  0
   10.0005   -4.2520   16.5631 C   0  0  0  0  0  0  0  0  0  0  0  0
   10.2759   -4.0036   17.8845 C   0  0  0  0  0  0  0  0  0  0  0  0
    8.5652    1.5478   25.3778 N   0  0  0  0  0  0  0  0  0  0  0  0
    6.8048   -7.5457   17.8752 C   0  0  0  0  0  0  0  0  0  0  0  0
    6.1721   -8.2186   15.9886 N   0  0  0  0  0  0  0  0  0  0  0  0
   11.1764   -2.6600   19.5604 C   0  0  0  0  0  0  0  0  0  0  0  0
    9.5491   -0.6380   24.1912 C   0  0  0  0  0  0  0  0  0  0  0  0
    7.5337   -6.9256   16.9519 C   0  0  0  0  0  0  0  0  0  0  0  0
    9.6782    0.5671   23.5143 C   0  0  0  0  0  0  0  0  0  0  0  0
    8.4532    0.3482   26.0821 C   0  0  0  0  0  0  0  0  0  0  0  0
   10.4239   -1.7677   22.2230 N   0  0  0  0  0  0  0  0  0  0  0  0
    9.9468   -4.5953   20.1709 C   0  0  0  0  0  0  0  0  0  0  0  0
   10.0366   -3.0590   23.9864 N   0  0  0  0  0  0  0  0  0  0  0  0
    7.1191   -7.3636   15.7739 C   0  0  0  0  0  0  0  0  0  0  0  0
    5.9612   -8.3203   17.2732 N   0  0  0  0  0  0  0  0  0  0  0  0
    8.5296   -5.9814   17.1841 C   0  0  0  0  0  0  0  0  0  0  0  0
    9.1527   -5.2118   16.2116 C   0  0  0  0  0  0  0  0  0  0  0  0
   10.3364   -3.8368   22.9255 O   0  0  0  0  0  0  0  0  0  0  0  0
    9.6947   -4.8407   18.8534 C   0  0  0  0  0  0  0  0  0  0  0  0
    9.1596    1.7042   24.1381 C   0  0  0  0  0  0  0  0  0  0  0  0
   11.0456   -2.9774   18.2694 N   0  0  0  0  0  0  0  0  0  0  0  0
   10.4788   -3.0457   21.8593 C   0  0  0  0  0  0  0  0  0  0  0  0
    8.8693   -5.8099   18.4657 N   0  0  0  0  0  0  0  0  0  0  0  0
    8.9892   -0.7926   25.4573 C   0  0  0  0  0  0  0  0  0  0  0  0
   10.5677   -3.4462   20.5323 C   0  0  0  0  0  0  0  0  0  0  0  0
  1  8  1  0
  1 12  4  0
  1 14  4  0
  2  3  4  0
  2 18  4  0
  3 20  4  0
  3 22  4  0
  4 11  4  0
  4 21  4  0
  5  9  4  0
  5 16  4  0
  6 15  4  0
  6 16  4  0
  7 22  4  0
  7 26  4  0
  8 10  4  0
  8 25  4  0
  9 15  4  0
  9 17  1  0
 10 21  4  0
 11 25  4  0
 12 23  4  0
 13 20  4  0
 13 26  4  0
 14 19  4  0
 17 18  4  0
 17 24  4  0
 19 23  4  0
 20 24  4  0
 23 26  1  0
M  END
$$$$

 Created by Python create_sdf_string function

 26 30  0  0  0  0  0  0  0  0999 V2000
   10.0084   -1.8019   23.4945 C   0  0  0  0  0  0  0  0  0  0  0  0
   10.0005   -4.2520   16.5631 C   0  0  0  0  0  0  0  0  0  0  0  0
   10.2759   -4.0036   17.8845 C   0  0  0  0  0  0  0  0  0  0  0  0
    8.5652    1.5478   25.3778 N   0  0  0  0  0  0  0  0  0  0  0  0
    6.8048   -7.5457   17.8752 C   0  0  0  0  0  0  0  0  0  0  0  0
    6.1721   -8.2186   15.9886 N   0  0  0  0  0  0  0  0  0  0  0  0
   11.1764   -2.6600   19.5604 C   0  0  0  0  0  0  0  0  0  0  0  0
    9.5491   -0.6380   24.1912 C   0  0  0  0  0  0  0  0  0  0  0  0
    7.5337   -6.9256   16.9519 C   0  0  0  0  0  0  0  0  0  0  0  0
    9.6782    0.5671   23.5143 C   0  0  0  0  0  0  0  0  0  0  0  0
    8.4532    0.3482   26.0821 C   0  0  0  0  0  0  0  0  0  0  0  0
   10.4239   -1.7677   22.2230 N   0  0  0  0  0  0  0  0  0  0  0  0
    9.9468   -4.5953   20.1709 C   0  0  0  0  0  0  0  0  0  0  0  0
   10.0366   -3.0590   23.9864 N   0  0  0  0  0  0  0  0  0  0  0  0
    7.1191   -7.3636   15.7739 C   0  0  0  0  0  0  0  0  0  0  0  0
    5.9612   -8.3203   17.2732 N   0  0  0  0  0  0  0  0  0  0  0  0
    8.5296   -5.9814   17.1841 C   0  0  0  0  0  0  0  0  0  0  0  0
    9.1527   -5.2118   16.2116 C   0  0  0  0  0  0  0  0  0  0  0  0
   10.3364   -3.8368   22.9255 O   0  0  0  0  0  0  0  0  0  0  0  0
    9.6947   -4.8407   18.8534 C   0  0  0  0  0  0  0  0  0  0  0  0
    9.1596    1.7042   24.1381 C   0  0  0  0  0  0  0  0  0  0  0  0
   11.0456   -2.9774   18.2694 N   0  0  0  0  0  0  0  0  0  0  0  0
   10.4788   -3.0457   21.8593 C   0  0  0  0  0  0  0  0  0  0  0  0
    8.8693   -5.8099   18.4657 N   0  0  0  0  0  0  0  0  0  0  0  0
    8.9892   -0.7926   25.4573 C   0  0  0  0  0  0  0  0  0  0  0  0
   10.5677   -3.4462   20.5323 C   0  0  0  0  0  0  0  0  0  0  0  0
  1  8  1  0
  1 12  4  0
  1 14  4  0
  2  3  4  0
  2 18  4  0
  3 20  4  0
  3 22  4  0
  4 11  4  0
  4 21  4  0
  5  9  4  0
  5 16  4  0
  6 15  4  0
  6 16  4  0
  7 22  4  0
  7 26  4  0
  8 10  4  0
  8 25  4  0
  9 15  4  0
  9 17  1  0
 10 21  4  0
 11 25  4  0
 12 23  4  0
 13 20  4  0
 13 26  4  0
 14 19  4  0
 17 18  4  0
 17 24  4  0
 19 23  4  0
 20 24  4  0
 23 26  1  0
M  END
$$$$

 Created by Python create_sdf_string function

 26 30  0  0  0  0  0  0  0  0999 V2000
   10.0084   -1.8019   23.4945 C   0  0  0  0  0  0  0  0  0  0  0  0
   10.0005   -4.2520   16.5631 C   0  0  0  0  0  0  0  0  0  0  0  0
   10.2759   -4.0036   17.8845 C   0  0  0  0  0  0  0  0  0  0  0  0
    8.5652    1.5478   25.3778 N   0  0  0  0  0  0  0  0  0  0  0  0
    6.8048   -7.5457   17.8752 C   0  0  0  0  0  0  0  0  0  0  0  0
    6.1721   -8.2186   15.9886 N   0  0  0  0  0  0  0  0  0  0  0  0
   11.1764   -2.6600   19.5604 C   0  0  0  0  0  0  0  0  0  0  0  0
    9.5491   -0.6380   24.1912 C   0  0  0  0  0  0  0  0  0  0  0  0
    7.5337   -6.9256   16.9519 C   0  0  0  0  0  0  0  0  0  0  0  0
    9.6782    0.5671   23.5143 C   0  0  0  0  0  0  0  0  0  0  0  0
    8.4532    0.3482   26.0821 C   0  0  0  0  0  0  0  0  0  0  0  0
   10.4239   -1.7677   22.2230 N   0  0  0  0  0  0  0  0  0  0  0  0
    9.9468   -4.5953   20.1709 C   0  0  0  0  0  0  0  0  0  0  0  0
   10.0366   -3.0590   23.9864 N   0  0  0  0  0  0  0  0  0  0  0  0
    7.1191   -7.3636   15.7739 C   0  0  0  0  0  0  0  0  0  0  0  0
    5.9612   -8.3203   17.2732 N   0  0  0  0  0  0  0  0  0  0  0  0
    8.5296   -5.9814   17.1841 C   0  0  0  0  0  0  0  0  0  0  0  0
    9.1527   -5.2118   16.2116 C   0  0  0  0  0  0  0  0  0  0  0  0
   10.3364   -3.8368   22.9255 O   0  0  0  0  0  0  0  0  0  0  0  0
    9.6947   -4.8407   18.8534 C   0  0  0  0  0  0  0  0  0  0  0  0
    9.1596    1.7042   24.1381 C   0  0  0  0  0  0  0  0  0  0  0  0
   11.0456   -2.9774   18.2694 N   0  0  0  0  0  0  0  0  0  0  0  0
   10.4788   -3.0457   21.8593 C   0  0  0  0  0  0  0  0  0  0  0  0
    8.8693   -5.8099   18.4657 N   0  0  0  0  0  0  0  0  0  0  0  0
    8.9892   -0.7926   25.4573 C   0  0  0  0  0  0  0  0  0  0  0  0
   10.5677   -3.4462   20.5323 C   0  0  0  0  0  0  0  0  0  0  0  0
  1  8  1  0
  1 12  4  0
  1 14  4  0
  2  3  4  0
  2 18  4  0
  3 20  4  0
  3 22  4  0
  4 11  4  0
  4 21  4  0
  5  9  4  0
  5 16  4  0
  6 15  4  0
  6 16  4  0
  7 22  4  0
  7 26  4  0
  8 10  4  0
  8 25  4  0
  9 15  4  0
  9 17  1  0
 10 21  4  0
 11 25  4  0
 12 23  4  0
 13 20  4  0
 13 26  4  0
 14 19  4  0
 17 18  4  0
 17 24  4  0
 19 23  4  0
 20 24  4  0
 23 26  1  0
M  END
$$$$

 Created by Python create_sdf_string function

 26 30  0  0  0  0  0  0  0  0999 V2000
   10.0084   -1.8019   23.4945 C   0  0  0  0  0  0  0  0  0  0  0  0
   10.0005   -4.2520   16.5631 C   0  0  0  0  0  0  0  0  0  0  0  0
   10.2759   -4.0036   17.8845 C   0  0  0  0  0  0  0  0  0  0  0  0
    8.5652    1.5478   25.3778 N   0  0  0  0  0  0  0  0  0  0  0  0
    6.8048   -7.5457   17.8752 C   0  0  0  0  0  0  0  0  0  0  0  0
    6.1721   -8.2186   15.9886 N   0  0  0  0  0  0  0  0  0  0  0  0
   11.1764   -2.6600   19.5604 C   0  0  0  0  0  0  0  0  0  0  0  0
    9.5491   -0.6380   24.1912 C   0  0  0  0  0  0  0  0  0  0  0  0
    7.5337   -6.9256   16.9519 C   0  0  0  0  0  0  0  0  0  0  0  0
    9.6782    0.5671   23.5143 C   0  0  0  0  0  0  0  0  0  0  0  0
    8.4532    0.3482   26.0821 C   0  0  0  0  0  0  0  0  0  0  0  0
   10.4239   -1.7677   22.2230 N   0  0  0  0  0  0  0  0  0  0  0  0
    9.9468   -4.5953   20.1709 C   0  0  0  0  0  0  0  0  0  0  0  0
   10.0366   -3.0590   23.9864 N   0  0  0  0  0  0  0  0  0  0  0  0
    7.1191   -7.3636   15.7739 C   0  0  0  0  0  0  0  0  0  0  0  0
    5.9612   -8.3203   17.2732 N   0  0  0  0  0  0  0  0  0  0  0  0
    8.5296   -5.9814   17.1841 C   0  0  0  0  0  0  0  0  0  0  0  0
    9.1527   -5.2118   16.2116 C   0  0  0  0  0  0  0  0  0  0  0  0
   10.3364   -3.8368   22.9255 O   0  0  0  0  0  0  0  0  0  0  0  0
    9.6947   -4.8407   18.8534 C   0  0  0  0  0  0  0  0  0  0  0  0
    9.1596    1.7042   24.1381 C   0  0  0  0  0  0  0  0  0  0  0  0
   11.0456   -2.9774   18.2694 N   0  0  0  0  0  0  0  0  0  0  0  0
   10.4788   -3.0457   21.8593 C   0  0  0  0  0  0  0  0  0  0  0  0
    8.8693   -5.8099   18.4657 N   0  0  0  0  0  0  0  0  0  0  0  0
    8.9892   -0.7926   25.4573 C   0  0  0  0  0  0  0  0  0  0  0  0
   10.5677   -3.4462   20.5323 C   0  0  0  0  0  0  0  0  0  0  0  0
  1  8  1  0
  1 12  4  0
  1 14  4  0
  2  3  4  0
  2 18  4  0
  3 20  4  0
  3 22  4  0
  4 11  4  0
  4 21  4  0
  5  9  4  0
  5 16  4  0
  6 15  4  0
  6 16  4  0
  7 22  4  0
  7 26  4  0
  8 10  4  0
  8 25  4  0
  9 15  4  0
  9 17  1  0
 10 21  4  0
 11 25  4  0
 12 23  4  0
 13 20  4  0
 13 26  4  0
 14 19  4  0
 17 18  4  0
 17 24  4  0
 19 23  4  0
 20 24  4  0
 23 26  1  0
M  END
$$$$

 Created by Python create_sdf_string function

 26 30  0  0  0  0  0  0  0  0999 V2000
   10.0084   -1.8019   23.4945 C   0  0  0  0  0  0  0  0  0  0  0  0
   10.0005   -4.2520   16.5631 C   0  0  0  0  0  0  0  0  0  0  0  0
   10.2759   -4.0036   17.8845 C   0  0  0  0  0  0  0  0  0  0  0  0
    8.5652    1.5478   25.3778 N   0  0  0  0  0  0  0  0  0  0  0  0
    6.8048   -7.5457   17.8752 C   0  0  0  0  0  0  0  0  0  0  0  0
    6.1721   -8.2186   15.9886 N   0  0  0  0  0  0  0  0  0  0  0  0
   11.1764   -2.6600   19.5604 C   0  0  0  0  0  0  0  0  0  0  0  0
    9.5491   -0.6380   24.1912 C   0  0  0  0  0  0  0  0  0  0  0  0
    7.5337   -6.9256   16.9519 C   0  0  0  0  0  0  0  0  0  0  0  0
    9.6782    0.5671   23.5143 C   0  0  0  0  0  0  0  0  0  0  0  0
    8.4532    0.3482   26.0821 C   0  0  0  0  0  0  0  0  0  0  0  0
   10.4239   -1.7677   22.2230 N   0  0  0  0  0  0  0  0  0  0  0  0
    9.9468   -4.5953   20.1709 C   0  0  0  0  0  0  0  0  0  0  0  0
   10.0366   -3.0590   23.9864 N   0  0  0  0  0  0  0  0  0  0  0  0
    7.1191   -7.3636   15.7739 C   0  0  0  0  0  0  0  0  0  0  0  0
    5.9612   -8.3203   17.2732 N   0  0  0  0  0  0  0  0  0  0  0  0
    8.5296   -5.9814   17.1841 C   0  0  0  0  0  0  0  0  0  0  0  0
    9.1527   -5.2118   16.2116 C   0  0  0  0  0  0  0  0  0  0  0  0
   10.3364   -3.8368   22.9255 O   0  0  0  0  0  0  0  0  0  0  0  0
    9.6947   -4.8407   18.8534 C   0  0  0  0  0  0  0  0  0  0  0  0
    9.1596    1.7042   24.1381 C   0  0  0  0  0  0  0  0  0  0  0  0
   11.0456   -2.9774   18.2694 N   0  0  0  0  0  0  0  0  0  0  0  0
   10.4788   -3.0457   21.8593 C   0  0  0  0  0  0  0  0  0  0  0  0
    8.8693   -5.8099   18.4657 N   0  0  0  0  0  0  0  0  0  0  0  0
    8.9892   -0.7926   25.4573 C   0  0  0  0  0  0  0  0  0  0  0  0
   10.5677   -3.4462   20.5323 C   0  0  0  0  0  0  0  0  0  0  0  0
  1  8  1  0
  1 12  4  0
  1 14  4  0
  2  3  4  0
  2 18  4  0
  3 20  4  0
  3 22  4  0
  4 11  4  0
  4 21  4  0
  5  9  4  0
  5 16  4  0
  6 15  4  0
  6 16  4  0
  7 22  4  0
  7 26  4  0
  8 10  4  0
  8 25  4  0
  9 15  4  0
  9 17  1  0
 10 21  4  0
 11 25  4  0
 12 23  4  0
 13 20  4  0
 13 26  4  0
 14 19  4  0
 17 18  4  0
 17 24  4  0
 19 23  4  0
 20 24  4  0
 23 26  1  0
M  END
$$$$

 Created by Python create_sdf_string function

 26 30  0  0  0  0  0  0  0  0999 V2000
   10.0084   -1.8019   23.4945 C   0  0  0  0  0  0  0  0  0  0  0  0
   10.0005   -4.2520   16.5631 C   0  0  0  0  0  0  0  0  0  0  0  0
   10.2759   -4.0036   17.8845 C   0  0  0  0  0  0  0  0  0  0  0  0
    8.5652    1.5478   25.3778 N   0  0  0  0  0  0  0  0  0  0  0  0
    6.8048   -7.5457   17.8752 C   0  0  0  0  0  0  0  0  0  0  0  0
    6.1721   -8.2186   15.9886 N   0  0  0  0  0  0  0  0  0  0  0  0
   11.1764   -2.6600   19.5604 C   0  0  0  0  0  0  0  0  0  0  0  0
    9.5491   -0.6380   24.1912 C   0  0  0  0  0  0  0  0  0  0  0  0
    7.5337   -6.9256   16.9519 C   0  0  0  0  0  0  0  0  0  0  0  0
    9.6782    0.5671   23.5143 C   0  0  0  0  0  0  0  0  0  0  0  0
    8.4532    0.3482   26.0821 C   0  0  0  0  0  0  0  0  0  0  0  0
   10.4239   -1.7677   22.2230 N   0  0  0  0  0  0  0  0  0  0  0  0
    9.9468   -4.5953   20.1709 C   0  0  0  0  0  0  0  0  0  0  0  0
   10.0366   -3.0590   23.9864 N   0  0  0  0  0  0  0  0  0  0  0  0
    7.1191   -7.3636   15.7739 C   0  0  0  0  0  0  0  0  0  0  0  0
    5.9612   -8.3203   17.2732 N   0  0  0  0  0  0  0  0  0  0  0  0
    8.5296   -5.9814   17.1841 C   0  0  0  0  0  0  0  0  0  0  0  0
    9.1527   -5.2118   16.2116 C   0  0  0  0  0  0  0  0  0  0  0  0
   10.3364   -3.8368   22.9255 O   0  0  0  0  0  0  0  0  0  0  0  0
    9.6947   -4.8407   18.8534 C   0  0  0  0  0  0  0  0  0  0  0  0
    9.1596    1.7042   24.1381 C   0  0  0  0  0  0  0  0  0  0  0  0
   11.0456   -2.9774   18.2694 N   0  0  0  0  0  0  0  0  0  0  0  0
   10.4788   -3.0457   21.8593 C   0  0  0  0  0  0  0  0  0  0  0  0
    8.8693   -5.8099   18.4657 N   0  0  0  0  0  0  0  0  0  0  0  0
    8.9892   -0.7926   25.4573 C   0  0  0  0  0  0  0  0  0  0  0  0
   10.5677   -3.4462   20.5323 C   0  0  0  0  0  0  0  0  0  0  0  0
  1  8  1  0
  1 12  4  0
  1 14  4  0
  2  3  4  0
  2 18  4  0
  3 20  4  0
  3 22  4  0
  4 11  4  0
  4 21  4  0
  5  9  4  0
  5 16  4  0
  6 15  4  0
  6 16  4  0
  7 22  4  0
  7 26  4  0
  8 10  4  0
  8 25  4  0
  9 15  4  0
  9 17  1  0
 10 21  4  0
 11 25  4  0
 12 23  4  0
 13 20  4  0
 13 26  4  0
 14 19  4  0
 17 18  4  0
 17 24  4  0
 19 23  4  0
 20 24  4  0
 23 26  1  0
M  END
$$$$

 Created by Python create_sdf_string function

 26 30  0  0  0  0  0  0  0  0999 V2000
   10.0084   -1.8019   23.4945 C   0  0  0  0  0  0  0  0  0  0  0  0
   10.0005   -4.2520   16.5631 C   0  0  0  0  0  0  0  0  0  0  0  0
   10.2759   -4.0036   17.8845 C   0  0  0  0  0  0  0  0  0  0  0  0
    8.5652    1.5478   25.3778 N   0  0  0  0  0  0  0  0  0  0  0  0
    6.8048   -7.5457   17.8752 C   0  0  0  0  0  0  0  0  0  0  0  0
    6.1721   -8.2186   15.9886 N   0  0  0  0  0  0  0  0  0  0  0  0
   11.1764   -2.6600   19.5604 C   0  0  0  0  0  0  0  0  0  0  0  0
    9.5491   -0.6380   24.1912 C   0  0  0  0  0  0  0  0  0  0  0  0
    7.5337   -6.9256   16.9519 C   0  0  0  0  0  0  0  0  0  0  0  0
    9.6782    0.5671   23.5143 C   0  0  0  0  0  0  0  0  0  0  0  0
    8.4532    0.3482   26.0821 C   0  0  0  0  0  0  0  0  0  0  0  0
   10.4239   -1.7677   22.2230 N   0  0  0  0  0  0  0  0  0  0  0  0
    9.9468   -4.5953   20.1709 C   0  0  0  0  0  0  0  0  0  0  0  0
   10.0366   -3.0590   23.9864 N   0  0  0  0  0  0  0  0  0  0  0  0
    7.1191   -7.3636   15.7739 C   0  0  0  0  0  0  0  0  0  0  0  0
    5.9612   -8.3203   17.2732 N   0  0  0  0  0  0  0  0  0  0  0  0
    8.5296   -5.9814   17.1841 C   0  0  0  0  0  0  0  0  0  0  0  0
    9.1527   -5.2118   16.2116 C   0  0  0  0  0  0  0  0  0  0  0  0
   10.3364   -3.8368   22.9255 O   0  0  0  0  0  0  0  0  0  0  0  0
    9.6947   -4.8407   18.8534 C   0  0  0  0  0  0  0  0  0  0  0  0
    9.1596    1.7042   24.1381 C   0  0  0  0  0  0  0  0  0  0  0  0
   11.0456   -2.9774   18.2694 N   0  0  0  0  0  0  0  0  0  0  0  0
   10.4788   -3.0457   21.8593 C   0  0  0  0  0  0  0  0  0  0  0  0
    8.8693   -5.8099   18.4657 N   0  0  0  0  0  0  0  0  0  0  0  0
    8.9892   -0.7926   25.4573 C   0  0  0  0  0  0  0  0  0  0  0  0
   10.5677   -3.4462   20.5323 C   0  0  0  0  0  0  0  0  0  0  0  0
  1  8  1  0
  1 12  4  0
  1 14  4  0
  2  3  4  0
  2 18  4  0
  3 20  4  0
  3 22  4  0
  4 11  4  0
  4 21  4  0
  5  9  4  0
  5 16  4  0
  6 15  4  0
  6 16  4  0
  7 22  4  0
  7 26  4  0
  8 10  4  0
  8 25  4  0
  9 15  4  0
  9 17  1  0
 10 21  4  0
 11 25  4  0
 12 23  4  0
 13 20  4  0
 13 26  4  0
 14 19  4  0
 17 18  4  0
 17 24  4  0
 19 23  4  0
 20 24  4  0
 23 26  1  0
M  END
$$$$

 Created by Python create_sdf_string function

 26 30  0  0  0  0  0  0  0  0999 V2000
   10.0084   -1.8019   23.4945 C   0  0  0  0  0  0  0  0  0  0  0  0
   10.0005   -4.2520   16.5631 C   0  0  0  0  0  0  0  0  0  0  0  0
   10.2759   -4.0036   17.8845 C   0  0  0  0  0  0  0  0  0  0  0  0
    8.5652    1.5478   25.3778 N   0  0  0  0  0  0  0  0  0  0  0  0
    6.8048   -7.5457   17.8752 C   0  0  0  0  0  0  0  0  0  0  0  0
    6.1721   -8.2186   15.9886 N   0  0  0  0  0  0  0  0  0  0  0  0
   11.1764   -2.6600   19.5604 C   0  0  0  0  0  0  0  0  0  0  0  0
    9.5491   -0.6380   24.1912 C   0  0  0  0  0  0  0  0  0  0  0  0
    7.5337   -6.9256   16.9519 C   0  0  0  0  0  0  0  0  0  0  0  0
    9.6782    0.5671   23.5143 C   0  0  0  0  0  0  0  0  0  0  0  0
    8.4532    0.3482   26.0821 C   0  0  0  0  0  0  0  0  0  0  0  0
   10.4239   -1.7677   22.2230 N   0  0  0  0  0  0  0  0  0  0  0  0
    9.9468   -4.5953   20.1709 C   0  0  0  0  0  0  0  0  0  0  0  0
   10.0366   -3.0590   23.9864 N   0  0  0  0  0  0  0  0  0  0  0  0
    7.1191   -7.3636   15.7739 C   0  0  0  0  0  0  0  0  0  0  0  0
    5.9612   -8.3203   17.2732 N   0  0  0  0  0  0  0  0  0  0  0  0
    8.5296   -5.9814   17.1841 C   0  0  0  0  0  0  0  0  0  0  0  0
    9.1527   -5.2118   16.2116 C   0  0  0  0  0  0  0  0  0  0  0  0
   10.3364   -3.8368   22.9255 O   0  0  0  0  0  0  0  0  0  0  0  0
    9.6947   -4.8407   18.8534 C   0  0  0  0  0  0  0  0  0  0  0  0
    9.1596    1.7042   24.1381 C   0  0  0  0  0  0  0  0  0  0  0  0
   11.0456   -2.9774   18.2694 N   0  0  0  0  0  0  0  0  0  0  0  0
   10.4788   -3.0457   21.8593 C   0  0  0  0  0  0  0  0  0  0  0  0
    8.8693   -5.8099   18.4657 N   0  0  0  0  0  0  0  0  0  0  0  0
    8.9892   -0.7926   25.4573 C   0  0  0  0  0  0  0  0  0  0  0  0
   10.5677   -3.4462   20.5323 C   0  0  0  0  0  0  0  0  0  0  0  0
  1  8  1  0
  1 12  4  0
  1 14  4  0
  2  3  4  0
  2 18  4  0
  3 20  4  0
  3 22  4  0
  4 11  4  0
  4 21  4  0
  5  9  4  0
  5 16  4  0
  6 15  4  0
  6 16  4  0
  7 22  4  0
  7 26  4  0
  8 10  4  0
  8 25  4  0
  9 15  4  0
  9 17  1  0
 10 21  4  0
 11 25  4  0
 12 23  4  0
 13 20  4  0
 13 26  4  0
 14 19  4  0
 17 18  4  0
 17 24  4  0
 19 23  4  0
 20 24  4  0
 23 26  1  0
M  END
$$$$

 Created by Python create_sdf_string function

 26 30  0  0  0  0  0  0  0  0999 V2000
   10.0084   -1.8019   23.4945 C   0  0  0  0  0  0  0  0  0  0  0  0
   10.0005   -4.2520   16.5631 C   0  0  0  0  0  0  0  0  0  0  0  0
   10.2759   -4.0036   17.8845 C   0  0  0  0  0  0  0  0  0  0  0  0
    8.5652    1.5478   25.3778 N   0  0  0  0  0  0  0  0  0  0  0  0
    6.8048   -7.5457   17.8752 C   0  0  0  0  0  0  0  0  0  0  0  0
    6.1721   -8.2186   15.9886 N   0  0  0  0  0  0  0  0  0  0  0  0
   11.1764   -2.6600   19.5604 C   0  0  0  0  0  0  0  0  0  0  0  0
    9.5491   -0.6380   24.1912 C   0  0  0  0  0  0  0  0  0  0  0  0
    7.5337   -6.9256   16.9519 C   0  0  0  0  0  0  0  0  0  0  0  0
    9.6782    0.5671   23.5143 C   0  0  0  0  0  0  0  0  0  0  0  0
    8.4532    0.3482   26.0821 C   0  0  0  0  0  0  0  0  0  0  0  0
   10.4239   -1.7677   22.2230 N   0  0  0  0  0  0  0  0  0  0  0  0
    9.9468   -4.5953   20.1709 C   0  0  0  0  0  0  0  0  0  0  0  0
   10.0366   -3.0590   23.9864 N   0  0  0  0  0  0  0  0  0  0  0  0
    7.1191   -7.3636   15.7739 C   0  0  0  0  0  0  0  0  0  0  0  0
    5.9612   -8.3203   17.2732 N   0  0  0  0  0  0  0  0  0  0  0  0
    8.5296   -5.9814   17.1841 C   0  0  0  0  0  0  0  0  0  0  0  0
    9.1527   -5.2118   16.2116 C   0  0  0  0  0  0  0  0  0  0  0  0
   10.3364   -3.8368   22.9255 O   0  0  0  0  0  0  0  0  0  0  0  0
    9.6947   -4.8407   18.8534 C   0  0  0  0  0  0  0  0  0  0  0  0
    9.1596    1.7042   24.1381 C   0  0  0  0  0  0  0  0  0  0  0  0
   11.0456   -2.9774   18.2694 N   0  0  0  0  0  0  0  0  0  0  0  0
   10.4788   -3.0457   21.8593 C   0  0  0  0  0  0  0  0  0  0  0  0
    8.8693   -5.8099   18.4657 N   0  0  0  0  0  0  0  0  0  0  0  0
    8.9892   -0.7926   25.4573 C   0  0  0  0  0  0  0  0  0  0  0  0
   10.5677   -3.4462   20.5323 C   0  0  0  0  0  0  0  0  0  0  0  0
  1  8  1  0
  1 12  4  0
  1 14  4  0
  2  3  4  0
  2 18  4  0
  3 20  4  0
  3 22  4  0
  4 11  4  0
  4 21  4  0
  5  9  4  0
  5 16  4  0
  6 15  4  0
  6 16  4  0
  7 22  4  0
  7 26  4  0
  8 10  4  0
  8 25  4  0
  9 15  4  0
  9 17  1  0
 10 21  4  0
 11 25  4  0
 12 23  4  0
 13 20  4  0
 13 26  4  0
 14 19  4  0
 17 18  4  0
 17 24  4  0
 19 23  4  0
 20 24  4  0
 23 26  1  0
M  END
$$$$

 Created by Python create_sdf_string function

 26 30  0  0  0  0  0  0  0  0999 V2000
   10.0084   -1.8019   23.4945 C   0  0  0  0  0  0  0  0  0  0  0  0
   10.0005   -4.2520   16.5631 C   0  0  0  0  0  0  0  0  0  0  0  0
   10.2759   -4.0036   17.8845 C   0  0  0  0  0  0  0  0  0  0  0  0
    8.5652    1.5478   25.3778 N   0  0  0  0  0  0  0  0  0  0  0  0
    6.8048   -7.5457   17.8752 C   0  0  0  0  0  0  0  0  0  0  0  0
    6.1721   -8.2186   15.9886 N   0  0  0  0  0  0  0  0  0  0  0  0
   11.1764   -2.6600   19.5604 C   0  0  0  0  0  0  0  0  0  0  0  0
    9.5491   -0.6380   24.1912 C   0  0  0  0  0  0  0  0  0  0  0  0
    7.5337   -6.9256   16.9519 C   0  0  0  0  0  0  0  0  0  0  0  0
    9.6782    0.5671   23.5143 C   0  0  0  0  0  0  0  0  0  0  0  0
    8.4532    0.3482   26.0821 C   0  0  0  0  0  0  0  0  0  0  0  0
   10.4239   -1.7677   22.2230 N   0  0  0  0  0  0  0  0  0  0  0  0
    9.9468   -4.5953   20.1709 C   0  0  0  0  0  0  0  0  0  0  0  0
   10.0366   -3.0590   23.9864 N   0  0  0  0  0  0  0  0  0  0  0  0
    7.1191   -7.3636   15.7739 C   0  0  0  0  0  0  0  0  0  0  0  0
    5.9612   -8.3203   17.2732 N   0  0  0  0  0  0  0  0  0  0  0  0
    8.5296   -5.9814   17.1841 C   0  0  0  0  0  0  0  0  0  0  0  0
    9.1527   -5.2118   16.2116 C   0  0  0  0  0  0  0  0  0  0  0  0
   10.3364   -3.8368   22.9255 O   0  0  0  0  0  0  0  0  0  0  0  0
    9.6947   -4.8407   18.8534 C   0  0  0  0  0  0  0  0  0  0  0  0
    9.1596    1.7042   24.1381 C   0  0  0  0  0  0  0  0  0  0  0  0
   11.0456   -2.9774   18.2694 N   0  0  0  0  0  0  0  0  0  0  0  0
   10.4788   -3.0457   21.8593 C   0  0  0  0  0  0  0  0  0  0  0  0
    8.8693   -5.8099   18.4657 N   0  0  0  0  0  0  0  0  0  0  0  0
    8.9892   -0.7926   25.4573 C   0  0  0  0  0  0  0  0  0  0  0  0
   10.5677   -3.4462   20.5323 C   0  0  0  0  0  0  0  0  0  0  0  0
  1  8  1  0
  1 12  4  0
  1 14  4  0
  2  3  4  0
  2 18  4  0
  3 20  4  0
  3 22  4  0
  4 11  4  0
  4 21  4  0
  5  9  4  0
  5 16  4  0
  6 15  4  0
  6 16  4  0
  7 22  4  0
  7 26  4  0
  8 10  4  0
  8 25  4  0
  9 15  4  0
  9 17  1  0
 10 21  4  0
 11 25  4  0
 12 23  4  0
 13 20  4  0
 13 26  4  0
 14 19  4  0
 17 18  4  0
 17 24  4  0
 19 23  4  0
 20 24  4  0
 23 26  1  0
M  END
$$$$

 Created by Python create_sdf_string function

 26 30  0  0  0  0  0  0  0  0999 V2000
   10.0084   -1.8019   23.4945 C   0  0  0  0  0  0  0  0  0  0  0  0
   10.0005   -4.2520   16.5631 C   0  0  0  0  0  0  0  0  0  0  0  0
   10.2759   -4.0036   17.8845 C   0  0  0  0  0  0  0  0  0  0  0  0
    8.5652    1.5478   25.3778 N   0  0  0  0  0  0  0  0  0  0  0  0
    6.8048   -7.5457   17.8752 C   0  0  0  0  0  0  0  0  0  0  0  0
    6.1721   -8.2186   15.9886 N   0  0  0  0  0  0  0  0  0  0  0  0
   11.1764   -2.6600   19.5604 C   0  0  0  0  0  0  0  0  0  0  0  0
    9.5491   -0.6380   24.1912 C   0  0  0  0  0  0  0  0  0  0  0  0
    7.5337   -6.9256   16.9519 C   0  0  0  0  0  0  0  0  0  0  0  0
    9.6782    0.5671   23.5143 C   0  0  0  0  0  0  0  0  0  0  0  0
    8.4532    0.3482   26.0821 C   0  0  0  0  0  0  0  0  0  0  0  0
   10.4239   -1.7677   22.2230 N   0  0  0  0  0  0  0  0  0  0  0  0
    9.9468   -4.5953   20.1709 C   0  0  0  0  0  0  0  0  0  0  0  0
   10.0366   -3.0590   23.9864 N   0  0  0  0  0  0  0  0  0  0  0  0
    7.1191   -7.3636   15.7739 C   0  0  0  0  0  0  0  0  0  0  0  0
    5.9612   -8.3203   17.2732 N   0  0  0  0  0  0  0  0  0  0  0  0
    8.5296   -5.9814   17.1841 C   0  0  0  0  0  0  0  0  0  0  0  0
    9.1527   -5.2118   16.2116 C   0  0  0  0  0  0  0  0  0  0  0  0
   10.3364   -3.8368   22.9255 O   0  0  0  0  0  0  0  0  0  0  0  0
    9.6947   -4.8407   18.8534 C   0  0  0  0  0  0  0  0  0  0  0  0
    9.1596    1.7042   24.1381 C   0  0  0  0  0  0  0  0  0  0  0  0
   11.0456   -2.9774   18.2694 N   0  0  0  0  0  0  0  0  0  0  0  0
   10.4788   -3.0457   21.8593 C   0  0  0  0  0  0  0  0  0  0  0  0
    8.8693   -5.8099   18.4657 N   0  0  0  0  0  0  0  0  0  0  0  0
    8.9892   -0.7926   25.4573 C   0  0  0  0  0  0  0  0  0  0  0  0
   10.5677   -3.4462   20.5323 C   0  0  0  0  0  0  0  0  0  0  0  0
  1  8  1  0
  1 12  4  0
  1 14  4  0
  2  3  4  0
  2 18  4  0
  3 20  4  0
  3 22  4  0
  4 11  4  0
  4 21  4  0
  5  9  4  0
  5 16  4  0
  6 15  4  0
  6 16  4  0
  7 22  4  0
  7 26  4  0
  8 10  4  0
  8 25  4  0
  9 15  4  0
  9 17  1  0
 10 21  4  0
 11 25  4  0
 12 23  4  0
 13 20  4  0
 13 26  4  0
 14 19  4  0
 17 18  4  0
 17 24  4  0
 19 23  4  0
 20 24  4  0
 23 26  1  0
M  END
$$$$

 Created by Python create_sdf_string function

 26 30  0  0  0  0  0  0  0  0999 V2000
   10.0084   -1.8019   23.4945 C   0  0  0  0  0  0  0  0  0  0  0  0
   10.0005   -4.2520   16.5631 C   0  0  0  0  0  0  0  0  0  0  0  0
   10.2759   -4.0036   17.8845 C   0  0  0  0  0  0  0  0  0  0  0  0
    8.5652    1.5478   25.3778 N   0  0  0  0  0  0  0  0  0  0  0  0
    6.8048   -7.5457   17.8752 C   0  0  0  0  0  0  0  0  0  0  0  0
    6.1721   -8.2186   15.9886 N   0  0  0  0  0  0  0  0  0  0  0  0
   11.1764   -2.6600   19.5604 C   0  0  0  0  0  0  0  0  0  0  0  0
    9.5491   -0.6380   24.1912 C   0  0  0  0  0  0  0  0  0  0  0  0
    7.5337   -6.9256   16.9519 C   0  0  0  0  0  0  0  0  0  0  0  0
    9.6782    0.5671   23.5143 C   0  0  0  0  0  0  0  0  0  0  0  0
    8.4532    0.3482   26.0821 C   0  0  0  0  0  0  0  0  0  0  0  0
   10.4239   -1.7677   22.2230 N   0  0  0  0  0  0  0  0  0  0  0  0
    9.9468   -4.5953   20.1709 C   0  0  0  0  0  0  0  0  0  0  0  0
   10.0366   -3.0590   23.9864 N   0  0  0  0  0  0  0  0  0  0  0  0
    7.1191   -7.3636   15.7739 C   0  0  0  0  0  0  0  0  0  0  0  0
    5.9612   -8.3203   17.2732 N   0  0  0  0  0  0  0  0  0  0  0  0
    8.5296   -5.9814   17.1841 C   0  0  0  0  0  0  0  0  0  0  0  0
    9.1527   -5.2118   16.2116 C   0  0  0  0  0  0  0  0  0  0  0  0
   10.3364   -3.8368   22.9255 O   0  0  0  0  0  0  0  0  0  0  0  0
    9.6947   -4.8407   18.8534 C   0  0  0  0  0  0  0  0  0  0  0  0
    9.1596    1.7042   24.1381 C   0  0  0  0  0  0  0  0  0  0  0  0
   11.0456   -2.9774   18.2694 N   0  0  0  0  0  0  0  0  0  0  0  0
   10.4788   -3.0457   21.8593 C   0  0  0  0  0  0  0  0  0  0  0  0
    8.8693   -5.8099   18.4657 N   0  0  0  0  0  0  0  0  0  0  0  0
    8.9892   -0.7926   25.4573 C   0  0  0  0  0  0  0  0  0  0  0  0
   10.5677   -3.4462   20.5323 C   0  0  0  0  0  0  0  0  0  0  0  0
  1  8  1  0
  1 12  4  0
  1 14  4  0
  2  3  4  0
  2 18  4  0
  3 20  4  0
  3 22  4  0
  4 11  4  0
  4 21  4  0
  5  9  4  0
  5 16  4  0
  6 15  4  0
  6 16  4  0
  7 22  4  0
  7 26  4  0
  8 10  4  0
  8 25  4  0
  9 15  4  0
  9 17  1  0
 10 21  4  0
 11 25  4  0
 12 23  4  0
 13 20  4  0
 13 26  4  0
 14 19  4  0
 17 18  4  0
 17 24  4  0
 19 23  4  0
 20 24  4  0
 23 26  1  0
M  END
$$$$

 Created by Python create_sdf_string function

 26 30  0  0  0  0  0  0  0  0999 V2000
   10.0084   -1.8019   23.4945 C   0  0  0  0  0  0  0  0  0  0  0  0
   10.0005   -4.2520   16.5631 C   0  0  0  0  0  0  0  0  0  0  0  0
   10.2759   -4.0036   17.8845 C   0  0  0  0  0  0  0  0  0  0  0  0
    8.5652    1.5478   25.3778 N   0  0  0  0  0  0  0  0  0  0  0  0
    6.8048   -7.5457   17.8752 C   0  0  0  0  0  0  0  0  0  0  0  0
    6.1721   -8.2186   15.9886 N   0  0  0  0  0  0  0  0  0  0  0  0
   11.1764   -2.6600   19.5604 C   0  0  0  0  0  0  0  0  0  0  0  0
    9.5491   -0.6380   24.1912 C   0  0  0  0  0  0  0  0  0  0  0  0
    7.5337   -6.9256   16.9519 C   0  0  0  0  0  0  0  0  0  0  0  0
    9.6782    0.5671   23.5143 C   0  0  0  0  0  0  0  0  0  0  0  0
    8.4532    0.3482   26.0821 C   0  0  0  0  0  0  0  0  0  0  0  0
   10.4239   -1.7677   22.2230 N   0  0  0  0  0  0  0  0  0  0  0  0
    9.9468   -4.5953   20.1709 C   0  0  0  0  0  0  0  0  0  0  0  0
   10.0366   -3.0590   23.9864 N   0  0  0  0  0  0  0  0  0  0  0  0
    7.1191   -7.3636   15.7739 C   0  0  0  0  0  0  0  0  0  0  0  0
    5.9612   -8.3203   17.2732 N   0  0  0  0  0  0  0  0  0  0  0  0
    8.5296   -5.9814   17.1841 C   0  0  0  0  0  0  0  0  0  0  0  0
    9.1527   -5.2118   16.2116 C   0  0  0  0  0  0  0  0  0  0  0  0
   10.3364   -3.8368   22.9255 O   0  0  0  0  0  0  0  0  0  0  0  0
    9.6947   -4.8407   18.8534 C   0  0  0  0  0  0  0  0  0  0  0  0
    9.1596    1.7042   24.1381 C   0  0  0  0  0  0  0  0  0  0  0  0
   11.0456   -2.9774   18.2694 N   0  0  0  0  0  0  0  0  0  0  0  0
   10.4788   -3.0457   21.8593 C   0  0  0  0  0  0  0  0  0  0  0  0
    8.8693   -5.8099   18.4657 N   0  0  0  0  0  0  0  0  0  0  0  0
    8.9892   -0.7926   25.4573 C   0  0  0  0  0  0  0  0  0  0  0  0
   10.5677   -3.4462   20.5323 C   0  0  0  0  0  0  0  0  0  0  0  0
  1  8  1  0
  1 12  4  0
  1 14  4  0
  2  3  4  0
  2 18  4  0
  3 20  4  0
  3 22  4  0
  4 11  4  0
  4 21  4  0
  5  9  4  0
  5 16  4  0
  6 15  4  0
  6 16  4  0
  7 22  4  0
  7 26  4  0
  8 10  4  0
  8 25  4  0
  9 15  4  0
  9 17  1  0
 10 21  4  0
 11 25  4  0
 12 23  4  0
 13 20  4  0
 13 26  4  0
 14 19  4  0
 17 18  4  0
 17 24  4  0
 19 23  4  0
 20 24  4  0
 23 26  1  0
M  END
$$$$

 Created by Python create_sdf_string function

 26 30  0  0  0  0  0  0  0  0999 V2000
   10.0084   -1.8019   23.4945 C   0  0  0  0  0  0  0  0  0  0  0  0
   10.0005   -4.2520   16.5631 C   0  0  0  0  0  0  0  0  0  0  0  0
   10.2759   -4.0036   17.8845 C   0  0  0  0  0  0  0  0  0  0  0  0
    8.5652    1.5478   25.3778 N   0  0  0  0  0  0  0  0  0  0  0  0
    6.8048   -7.5457   17.8752 C   0  0  0  0  0  0  0  0  0  0  0  0
    6.1721   -8.2186   15.9886 N   0  0  0  0  0  0  0  0  0  0  0  0
   11.1764   -2.6600   19.5604 C   0  0  0  0  0  0  0  0  0  0  0  0
    9.5491   -0.6380   24.1912 C   0  0  0  0  0  0  0  0  0  0  0  0
    7.5337   -6.9256   16.9519 C   0  0  0  0  0  0  0  0  0  0  0  0
    9.6782    0.5671   23.5143 C   0  0  0  0  0  0  0  0  0  0  0  0
    8.4532    0.3482   26.0821 C   0  0  0  0  0  0  0  0  0  0  0  0
   10.4239   -1.7677   22.2230 N   0  0  0  0  0  0  0  0  0  0  0  0
    9.9468   -4.5953   20.1709 C   0  0  0  0  0  0  0  0  0  0  0  0
   10.0366   -3.0590   23.9864 N   0  0  0  0  0  0  0  0  0  0  0  0
    7.1191   -7.3636   15.7739 C   0  0  0  0  0  0  0  0  0  0  0  0
    5.9612   -8.3203   17.2732 N   0  0  0  0  0  0  0  0  0  0  0  0
    8.5296   -5.9814   17.1841 C   0  0  0  0  0  0  0  0  0  0  0  0
    9.1527   -5.2118   16.2116 C   0  0  0  0  0  0  0  0  0  0  0  0
   10.3364   -3.8368   22.9255 O   0  0  0  0  0  0  0  0  0  0  0  0
    9.6947   -4.8407   18.8534 C   0  0  0  0  0  0  0  0  0  0  0  0
    9.1596    1.7042   24.1381 C   0  0  0  0  0  0  0  0  0  0  0  0
   11.0456   -2.9774   18.2694 N   0  0  0  0  0  0  0  0  0  0  0  0
   10.4788   -3.0457   21.8593 C   0  0  0  0  0  0  0  0  0  0  0  0
    8.8693   -5.8099   18.4657 N   0  0  0  0  0  0  0  0  0  0  0  0
    8.9892   -0.7926   25.4573 C   0  0  0  0  0  0  0  0  0  0  0  0
   10.5677   -3.4462   20.5323 C   0  0  0  0  0  0  0  0  0  0  0  0
  1  8  1  0
  1 12  4  0
  1 14  4  0
  2  3  4  0
  2 18  4  0
  3 20  4  0
  3 22  4  0
  4 11  4  0
  4 21  4  0
  5  9  4  0
  5 16  4  0
  6 15  4  0
  6 16  4  0
  7 22  4  0
  7 26  4  0
  8 10  4  0
  8 25  4  0
  9 15  4  0
  9 17  1  0
 10 21  4  0
 11 25  4  0
 12 23  4  0
 13 20  4  0
 13 26  4  0
 14 19  4  0
 17 18  4  0
 17 24  4  0
 19 23  4  0
 20 24  4  0
 23 26  1  0
M  END
$$$$

 Created by Python create_sdf_string function

 26 30  0  0  0  0  0  0  0  0999 V2000
   10.0084   -1.8019   23.4945 C   0  0  0  0  0  0  0  0  0  0  0  0
   10.0005   -4.2520   16.5631 C   0  0  0  0  0  0  0  0  0  0  0  0
   10.2759   -4.0036   17.8845 C   0  0  0  0  0  0  0  0  0  0  0  0
    8.5652    1.5478   25.3778 N   0  0  0  0  0  0  0  0  0  0  0  0
    6.8048   -7.5457   17.8752 C   0  0  0  0  0  0  0  0  0  0  0  0
    6.1721   -8.2186   15.9886 N   0  0  0  0  0  0  0  0  0  0  0  0
   11.1764   -2.6600   19.5604 C   0  0  0  0  0  0  0  0  0  0  0  0
    9.5491   -0.6380   24.1912 C   0  0  0  0  0  0  0  0  0  0  0  0
    7.5337   -6.9256   16.9519 C   0  0  0  0  0  0  0  0  0  0  0  0
    9.6782    0.5671   23.5143 C   0  0  0  0  0  0  0  0  0  0  0  0
    8.4532    0.3482   26.0821 C   0  0  0  0  0  0  0  0  0  0  0  0
   10.4239   -1.7677   22.2230 N   0  0  0  0  0  0  0  0  0  0  0  0
    9.9468   -4.5953   20.1709 C   0  0  0  0  0  0  0  0  0  0  0  0
   10.0366   -3.0590   23.9864 N   0  0  0  0  0  0  0  0  0  0  0  0
    7.1191   -7.3636   15.7739 C   0  0  0  0  0  0  0  0  0  0  0  0
    5.9612   -8.3203   17.2732 N   0  0  0  0  0  0  0  0  0  0  0  0
    8.5296   -5.9814   17.1841 C   0  0  0  0  0  0  0  0  0  0  0  0
    9.1527   -5.2118   16.2116 C   0  0  0  0  0  0  0  0  0  0  0  0
   10.3364   -3.8368   22.9255 O   0  0  0  0  0  0  0  0  0  0  0  0
    9.6947   -4.8407   18.8534 C   0  0  0  0  0  0  0  0  0  0  0  0
    9.1596    1.7042   24.1381 C   0  0  0  0  0  0  0  0  0  0  0  0
   11.0456   -2.9774   18.2694 N   0  0  0  0  0  0  0  0  0  0  0  0
   10.4788   -3.0457   21.8593 C   0  0  0  0  0  0  0  0  0  0  0  0
    8.8693   -5.8099   18.4657 N   0  0  0  0  0  0  0  0  0  0  0  0
    8.9892   -0.7926   25.4573 C   0  0  0  0  0  0  0  0  0  0  0  0
   10.5677   -3.4462   20.5323 C   0  0  0  0  0  0  0  0  0  0  0  0
  1  8  1  0
  1 12  4  0
  1 14  4  0
  2  3  4  0
  2 18  4  0
  3 20  4  0
  3 22  4  0
  4 11  4  0
  4 21  4  0
  5  9  4  0
  5 16  4  0
  6 15  4  0
  6 16  4  0
  7 22  4  0
  7 26  4  0
  8 10  4  0
  8 25  4  0
  9 15  4  0
  9 17  1  0
 10 21  4  0
 11 25  4  0
 12 23  4  0
 13 20  4  0
 13 26  4  0
 14 19  4  0
 17 18  4  0
 17 24  4  0
 19 23  4  0
 20 24  4  0
 23 26  1  0
M  END
$$$$

 Created by Python create_sdf_string function

 26 30  0  0  0  0  0  0  0  0999 V2000
   10.0084   -1.8019   23.4945 C   0  0  0  0  0  0  0  0  0  0  0  0
   10.0005   -4.2520   16.5631 C   0  0  0  0  0  0  0  0  0  0  0  0
   10.2759   -4.0036   17.8845 C   0  0  0  0  0  0  0  0  0  0  0  0
    8.5652    1.5478   25.3778 N   0  0  0  0  0  0  0  0  0  0  0  0
    6.8048   -7.5457   17.8752 C   0  0  0  0  0  0  0  0  0  0  0  0
    6.1721   -8.2186   15.9886 N   0  0  0  0  0  0  0  0  0  0  0  0
   11.1764   -2.6600   19.5604 C   0  0  0  0  0  0  0  0  0  0  0  0
    9.5491   -0.6380   24.1912 C   0  0  0  0  0  0  0  0  0  0  0  0
    7.5337   -6.9256   16.9519 C   0  0  0  0  0  0  0  0  0  0  0  0
    9.6782    0.5671   23.5143 C   0  0  0  0  0  0  0  0  0  0  0  0
    8.4532    0.3482   26.0821 C   0  0  0  0  0  0  0  0  0  0  0  0
   10.4239   -1.7677   22.2230 N   0  0  0  0  0  0  0  0  0  0  0  0
    9.9468   -4.5953   20.1709 C   0  0  0  0  0  0  0  0  0  0  0  0
   10.0366   -3.0590   23.9864 N   0  0  0  0  0  0  0  0  0  0  0  0
    7.1191   -7.3636   15.7739 C   0  0  0  0  0  0  0  0  0  0  0  0
    5.9612   -8.3203   17.2732 N   0  0  0  0  0  0  0  0  0  0  0  0
    8.5296   -5.9814   17.1841 C   0  0  0  0  0  0  0  0  0  0  0  0
    9.1527   -5.2118   16.2116 C   0  0  0  0  0  0  0  0  0  0  0  0
   10.3364   -3.8368   22.9255 O   0  0  0  0  0  0  0  0  0  0  0  0
    9.6947   -4.8407   18.8534 C   0  0  0  0  0  0  0  0  0  0  0  0
    9.1596    1.7042   24.1381 C   0  0  0  0  0  0  0  0  0  0  0  0
   11.0456   -2.9774   18.2694 N   0  0  0  0  0  0  0  0  0  0  0  0
   10.4788   -3.0457   21.8593 C   0  0  0  0  0  0  0  0  0  0  0  0
    8.8693   -5.8099   18.4657 N   0  0  0  0  0  0  0  0  0  0  0  0
    8.9892   -0.7926   25.4573 C   0  0  0  0  0  0  0  0  0  0  0  0
   10.5677   -3.4462   20.5323 C   0  0  0  0  0  0  0  0  0  0  0  0
  1  8  1  0
  1 12  4  0
  1 14  4  0
  2  3  4  0
  2 18  4  0
  3 20  4  0
  3 22  4  0
  4 11  4  0
  4 21  4  0
  5  9  4  0
  5 16  4  0
  6 15  4  0
  6 16  4  0
  7 22  4  0
  7 26  4  0
  8 10  4  0
  8 25  4  0
  9 15  4  0
  9 17  1  0
 10 21  4  0
 11 25  4  0
 12 23  4  0
 13 20  4  0
 13 26  4  0
 14 19  4  0
 17 18  4  0
 17 24  4  0
 19 23  4  0
 20 24  4  0
 23 26  1  0
M  END
$$$$

 Created by Python create_sdf_string function

 26 30  0  0  0  0  0  0  0  0999 V2000
   10.0084   -1.8019   23.4945 C   0  0  0  0  0  0  0  0  0  0  0  0
   10.0005   -4.2520   16.5631 C   0  0  0  0  0  0  0  0  0  0  0  0
   10.2759   -4.0036   17.8845 C   0  0  0  0  0  0  0  0  0  0  0  0
    8.5652    1.5478   25.3778 N   0  0  0  0  0  0  0  0  0  0  0  0
    6.8048   -7.5457   17.8752 C   0  0  0  0  0  0  0  0  0  0  0  0
    6.1721   -8.2186   15.9886 N   0  0  0  0  0  0  0  0  0  0  0  0
   11.1764   -2.6600   19.5604 C   0  0  0  0  0  0  0  0  0  0  0  0
    9.5491   -0.6380   24.1912 C   0  0  0  0  0  0  0  0  0  0  0  0
    7.5337   -6.9256   16.9519 C   0  0  0  0  0  0  0  0  0  0  0  0
    9.6782    0.5671   23.5143 C   0  0  0  0  0  0  0  0  0  0  0  0
    8.4532    0.3482   26.0821 C   0  0  0  0  0  0  0  0  0  0  0  0
   10.4239   -1.7677   22.2230 N   0  0  0  0  0  0  0  0  0  0  0  0
    9.9468   -4.5953   20.1709 C   0  0  0  0  0  0  0  0  0  0  0  0
   10.0366   -3.0590   23.9864 N   0  0  0  0  0  0  0  0  0  0  0  0
    7.1191   -7.3636   15.7739 C   0  0  0  0  0  0  0  0  0  0  0  0
    5.9612   -8.3203   17.2732 N   0  0  0  0  0  0  0  0  0  0  0  0
    8.5296   -5.9814   17.1841 C   0  0  0  0  0  0  0  0  0  0  0  0
    9.1527   -5.2118   16.2116 C   0  0  0  0  0  0  0  0  0  0  0  0
   10.3364   -3.8368   22.9255 O   0  0  0  0  0  0  0  0  0  0  0  0
    9.6947   -4.8407   18.8534 C   0  0  0  0  0  0  0  0  0  0  0  0
    9.1596    1.7042   24.1381 C   0  0  0  0  0  0  0  0  0  0  0  0
   11.0456   -2.9774   18.2694 N   0  0  0  0  0  0  0  0  0  0  0  0
   10.4788   -3.0457   21.8593 C   0  0  0  0  0  0  0  0  0  0  0  0
    8.8693   -5.8099   18.4657 N   0  0  0  0  0  0  0  0  0  0  0  0
    8.9892   -0.7926   25.4573 C   0  0  0  0  0  0  0  0  0  0  0  0
   10.5677   -3.4462   20.5323 C   0  0  0  0  0  0  0  0  0  0  0  0
  1  8  1  0
  1 12  4  0
  1 14  4  0
  2  3  4  0
  2 18  4  0
  3 20  4  0
  3 22  4  0
  4 11  4  0
  4 21  4  0
  5  9  4  0
  5 16  4  0
  6 15  4  0
  6 16  4  0
  7 22  4  0
  7 26  4  0
  8 10  4  0
  8 25  4  0
  9 15  4  0
  9 17  1  0
 10 21  4  0
 11 25  4  0
 12 23  4  0
 13 20  4  0
 13 26  4  0
 14 19  4  0
 17 18  4  0
 17 24  4  0
 19 23  4  0
 20 24  4  0
 23 26  1  0
M  END
$$$$

 Created by Python create_sdf_string function

 26 30  0  0  0  0  0  0  0  0999 V2000
   10.0084   -1.8019   23.4945 C   0  0  0  0  0  0  0  0  0  0  0  0
   10.0005   -4.2520   16.5631 C   0  0  0  0  0  0  0  0  0  0  0  0
   10.2759   -4.0036   17.8845 C   0  0  0  0  0  0  0  0  0  0  0  0
    8.5652    1.5478   25.3778 N   0  0  0  0  0  0  0  0  0  0  0  0
    6.8048   -7.5457   17.8752 C   0  0  0  0  0  0  0  0  0  0  0  0
    6.1721   -8.2186   15.9886 N   0  0  0  0  0  0  0  0  0  0  0  0
   11.1764   -2.6600   19.5604 C   0  0  0  0  0  0  0  0  0  0  0  0
    9.5491   -0.6380   24.1912 C   0  0  0  0  0  0  0  0  0  0  0  0
    7.5337   -6.9256   16.9519 C   0  0  0  0  0  0  0  0  0  0  0  0
    9.6782    0.5671   23.5143 C   0  0  0  0  0  0  0  0  0  0  0  0
    8.4532    0.3482   26.0821 C   0  0  0  0  0  0  0  0  0  0  0  0
   10.4239   -1.7677   22.2230 N   0  0  0  0  0  0  0  0  0  0  0  0
    9.9468   -4.5953   20.1709 C   0  0  0  0  0  0  0  0  0  0  0  0
   10.0366   -3.0590   23.9864 N   0  0  0  0  0  0  0  0  0  0  0  0
    7.1191   -7.3636   15.7739 C   0  0  0  0  0  0  0  0  0  0  0  0
    5.9612   -8.3203   17.2732 N   0  0  0  0  0  0  0  0  0  0  0  0
    8.5296   -5.9814   17.1841 C   0  0  0  0  0  0  0  0  0  0  0  0
    9.1527   -5.2118   16.2116 C   0  0  0  0  0  0  0  0  0  0  0  0
   10.3364   -3.8368   22.9255 O   0  0  0  0  0  0  0  0  0  0  0  0
    9.6947   -4.8407   18.8534 C   0  0  0  0  0  0  0  0  0  0  0  0
    9.1596    1.7042   24.1381 C   0  0  0  0  0  0  0  0  0  0  0  0
   11.0456   -2.9774   18.2694 N   0  0  0  0  0  0  0  0  0  0  0  0
   10.4788   -3.0457   21.8593 C   0  0  0  0  0  0  0  0  0  0  0  0
    8.8693   -5.8099   18.4657 N   0  0  0  0  0  0  0  0  0  0  0  0
    8.9892   -0.7926   25.4573 C   0  0  0  0  0  0  0  0  0  0  0  0
   10.5677   -3.4462   20.5323 C   0  0  0  0  0  0  0  0  0  0  0  0
  1  8  1  0
  1 12  4  0
  1 14  4  0
  2  3  4  0
  2 18  4  0
  3 20  4  0
  3 22  4  0
  4 11  4  0
  4 21  4  0
  5  9  4  0
  5 16  4  0
  6 15  4  0
  6 16  4  0
  7 22  4  0
  7 26  4  0
  8 10  4  0
  8 25  4  0
  9 15  4  0
  9 17  1  0
 10 21  4  0
 11 25  4  0
 12 23  4  0
 13 20  4  0
 13 26  4  0
 14 19  4  0
 17 18  4  0
 17 24  4  0
 19 23  4  0
 20 24  4  0
 23 26  1  0
M  END
$$$$

 Created by Python create_sdf_string function

 26 30  0  0  0  0  0  0  0  0999 V2000
   10.0084   -1.8019   23.4945 C   0  0  0  0  0  0  0  0  0  0  0  0
   10.0005   -4.2520   16.5631 C   0  0  0  0  0  0  0  0  0  0  0  0
   10.2759   -4.0036   17.8845 C   0  0  0  0  0  0  0  0  0  0  0  0
    8.5652    1.5478   25.3778 N   0  0  0  0  0  0  0  0  0  0  0  0
    6.8048   -7.5457   17.8752 C   0  0  0  0  0  0  0  0  0  0  0  0
    6.1721   -8.2186   15.9886 N   0  0  0  0  0  0  0  0  0  0  0  0
   11.1764   -2.6600   19.5604 C   0  0  0  0  0  0  0  0  0  0  0  0
    9.5491   -0.6380   24.1912 C   0  0  0  0  0  0  0  0  0  0  0  0
    7.5337   -6.9256   16.9519 C   0  0  0  0  0  0  0  0  0  0  0  0
    9.6782    0.5671   23.5143 C   0  0  0  0  0  0  0  0  0  0  0  0
    8.4532    0.3482   26.0821 C   0  0  0  0  0  0  0  0  0  0  0  0
   10.4239   -1.7677   22.2230 N   0  0  0  0  0  0  0  0  0  0  0  0
    9.9468   -4.5953   20.1709 C   0  0  0  0  0  0  0  0  0  0  0  0
   10.0366   -3.0590   23.9864 N   0  0  0  0  0  0  0  0  0  0  0  0
    7.1191   -7.3636   15.7739 C   0  0  0  0  0  0  0  0  0  0  0  0
    5.9612   -8.3203   17.2732 N   0  0  0  0  0  0  0  0  0  0  0  0
    8.5296   -5.9814   17.1841 C   0  0  0  0  0  0  0  0  0  0  0  0
    9.1527   -5.2118   16.2116 C   0  0  0  0  0  0  0  0  0  0  0  0
   10.3364   -3.8368   22.9255 O   0  0  0  0  0  0  0  0  0  0  0  0
    9.6947   -4.8407   18.8534 C   0  0  0  0  0  0  0  0  0  0  0  0
    9.1596    1.7042   24.1381 C   0  0  0  0  0  0  0  0  0  0  0  0
   11.0456   -2.9774   18.2694 N   0  0  0  0  0  0  0  0  0  0  0  0
   10.4788   -3.0457   21.8593 C   0  0  0  0  0  0  0  0  0  0  0  0
    8.8693   -5.8099   18.4657 N   0  0  0  0  0  0  0  0  0  0  0  0
    8.9892   -0.7926   25.4573 C   0  0  0  0  0  0  0  0  0  0  0  0
   10.5677   -3.4462   20.5323 C   0  0  0  0  0  0  0  0  0  0  0  0
  1  8  1  0
  1 12  4  0
  1 14  4  0
  2  3  4  0
  2 18  4  0
  3 20  4  0
  3 22  4  0
  4 11  4  0
  4 21  4  0
  5  9  4  0
  5 16  4  0
  6 15  4  0
  6 16  4  0
  7 22  4  0
  7 26  4  0
  8 10  4  0
  8 25  4  0
  9 15  4  0
  9 17  1  0
 10 21  4  0
 11 25  4  0
 12 23  4  0
 13 20  4  0
 13 26  4  0
 14 19  4  0
 17 18  4  0
 17 24  4  0
 19 23  4  0
 20 24  4  0
 23 26  1  0
M  END
$$$$

 Created by Python create_sdf_string function

 26 30  0  0  0  0  0  0  0  0999 V2000
   10.0084   -1.8019   23.4945 C   0  0  0  0  0  0  0  0  0  0  0  0
   10.0005   -4.2520   16.5631 C   0  0  0  0  0  0  0  0  0  0  0  0
   10.2759   -4.0036   17.8845 C   0  0  0  0  0  0  0  0  0  0  0  0
    8.5652    1.5478   25.3778 N   0  0  0  0  0  0  0  0  0  0  0  0
    6.8048   -7.5457   17.8752 C   0  0  0  0  0  0  0  0  0  0  0  0
    6.1721   -8.2186   15.9886 N   0  0  0  0  0  0  0  0  0  0  0  0
   11.1764   -2.6600   19.5604 C   0  0  0  0  0  0  0  0  0  0  0  0
    9.5491   -0.6380   24.1912 C   0  0  0  0  0  0  0  0  0  0  0  0
    7.5337   -6.9256   16.9519 C   0  0  0  0  0  0  0  0  0  0  0  0
    9.6782    0.5671   23.5143 C   0  0  0  0  0  0  0  0  0  0  0  0
    8.4532    0.3482   26.0821 C   0  0  0  0  0  0  0  0  0  0  0  0
   10.4239   -1.7677   22.2230 N   0  0  0  0  0  0  0  0  0  0  0  0
    9.9468   -4.5953   20.1709 C   0  0  0  0  0  0  0  0  0  0  0  0
   10.0366   -3.0590   23.9864 N   0  0  0  0  0  0  0  0  0  0  0  0
    7.1191   -7.3636   15.7739 C   0  0  0  0  0  0  0  0  0  0  0  0
    5.9612   -8.3203   17.2732 N   0  0  0  0  0  0  0  0  0  0  0  0
    8.5296   -5.9814   17.1841 C   0  0  0  0  0  0  0  0  0  0  0  0
    9.1527   -5.2118   16.2116 C   0  0  0  0  0  0  0  0  0  0  0  0
   10.3364   -3.8368   22.9255 O   0  0  0  0  0  0  0  0  0  0  0  0
    9.6947   -4.8407   18.8534 C   0  0  0  0  0  0  0  0  0  0  0  0
    9.1596    1.7042   24.1381 C   0  0  0  0  0  0  0  0  0  0  0  0
   11.0456   -2.9774   18.2694 N   0  0  0  0  0  0  0  0  0  0  0  0
   10.4788   -3.0457   21.8593 C   0  0  0  0  0  0  0  0  0  0  0  0
    8.8693   -5.8099   18.4657 N   0  0  0  0  0  0  0  0  0  0  0  0
    8.9892   -0.7926   25.4573 C   0  0  0  0  0  0  0  0  0  0  0  0
   10.5677   -3.4462   20.5323 C   0  0  0  0  0  0  0  0  0  0  0  0
  1  8  1  0
  1 12  4  0
  1 14  4  0
  2  3  4  0
  2 18  4  0
  3 20  4  0
  3 22  4  0
  4 11  4  0
  4 21  4  0
  5  9  4  0
  5 16  4  0
  6 15  4  0
  6 16  4  0
  7 22  4  0
  7 26  4  0
  8 10  4  0
  8 25  4  0
  9 15  4  0
  9 17  1  0
 10 21  4  0
 11 25  4  0
 12 23  4  0
 13 20  4  0
 13 26  4  0
 14 19  4  0
 17 18  4  0
 17 24  4  0
 19 23  4  0
 20 24  4  0
 23 26  1  0
M  END
$$$$

 Created by Python create_sdf_string function

 26 30  0  0  0  0  0  0  0  0999 V2000
   10.0084   -1.8019   23.4945 C   0  0  0  0  0  0  0  0  0  0  0  0
   10.0005   -4.2520   16.5631 C   0  0  0  0  0  0  0  0  0  0  0  0
   10.2759   -4.0036   17.8845 C   0  0  0  0  0  0  0  0  0  0  0  0
    8.5652    1.5478   25.3778 N   0  0  0  0  0  0  0  0  0  0  0  0
    6.8048   -7.5457   17.8752 C   0  0  0  0  0  0  0  0  0  0  0  0
    6.1721   -8.2186   15.9886 N   0  0  0  0  0  0  0  0  0  0  0  0
   11.1764   -2.6600   19.5604 C   0  0  0  0  0  0  0  0  0  0  0  0
    9.5491   -0.6380   24.1912 C   0  0  0  0  0  0  0  0  0  0  0  0
    7.5337   -6.9256   16.9519 C   0  0  0  0  0  0  0  0  0  0  0  0
    9.6782    0.5671   23.5143 C   0  0  0  0  0  0  0  0  0  0  0  0
    8.4532    0.3482   26.0821 C   0  0  0  0  0  0  0  0  0  0  0  0
   10.4239   -1.7677   22.2230 N   0  0  0  0  0  0  0  0  0  0  0  0
    9.9468   -4.5953   20.1709 C   0  0  0  0  0  0  0  0  0  0  0  0
   10.0366   -3.0590   23.9864 N   0  0  0  0  0  0  0  0  0  0  0  0
    7.1191   -7.3636   15.7739 C   0  0  0  0  0  0  0  0  0  0  0  0
    5.9612   -8.3203   17.2732 N   0  0  0  0  0  0  0  0  0  0  0  0
    8.5296   -5.9814   17.1841 C   0  0  0  0  0  0  0  0  0  0  0  0
    9.1527   -5.2118   16.2116 C   0  0  0  0  0  0  0  0  0  0  0  0
   10.3364   -3.8368   22.9255 O   0  0  0  0  0  0  0  0  0  0  0  0
    9.6947   -4.8407   18.8534 C   0  0  0  0  0  0  0  0  0  0  0  0
    9.1596    1.7042   24.1381 C   0  0  0  0  0  0  0  0  0  0  0  0
   11.0456   -2.9774   18.2694 N   0  0  0  0  0  0  0  0  0  0  0  0
   10.4788   -3.0457   21.8593 C   0  0  0  0  0  0  0  0  0  0  0  0
    8.8693   -5.8099   18.4657 N   0  0  0  0  0  0  0  0  0  0  0  0
    8.9892   -0.7926   25.4573 C   0  0  0  0  0  0  0  0  0  0  0  0
   10.5677   -3.4462   20.5323 C   0  0  0  0  0  0  0  0  0  0  0  0
  1  8  1  0
  1 12  4  0
  1 14  4  0
  2  3  4  0
  2 18  4  0
  3 20  4  0
  3 22  4  0
  4 11  4  0
  4 21  4  0
  5  9  4  0
  5 16  4  0
  6 15  4  0
  6 16  4  0
  7 22  4  0
  7 26  4  0
  8 10  4  0
  8 25  4  0
  9 15  4  0
  9 17  1  0
 10 21  4  0
 11 25  4  0
 12 23  4  0
 13 20  4  0
 13 26  4  0
 14 19  4  0
 17 18  4  0
 17 24  4  0
 19 23  4  0
 20 24  4  0
 23 26  1  0
M  END
$$$$

 Created by Python create_sdf_string function

 26 30  0  0  0  0  0  0  0  0999 V2000
   10.0084   -1.8019   23.4945 C   0  0  0  0  0  0  0  0  0  0  0  0
   10.0005   -4.2520   16.5631 C   0  0  0  0  0  0  0  0  0  0  0  0
   10.2759   -4.0036   17.8845 C   0  0  0  0  0  0  0  0  0  0  0  0
    8.5652    1.5478   25.3778 N   0  0  0  0  0  0  0  0  0  0  0  0
    6.8048   -7.5457   17.8752 C   0  0  0  0  0  0  0  0  0  0  0  0
    6.1721   -8.2186   15.9886 N   0  0  0  0  0  0  0  0  0  0  0  0
   11.1764   -2.6600   19.5604 C   0  0  0  0  0  0  0  0  0  0  0  0
    9.5491   -0.6380   24.1912 C   0  0  0  0  0  0  0  0  0  0  0  0
    7.5337   -6.9256   16.9519 C   0  0  0  0  0  0  0  0  0  0  0  0
    9.6782    0.5671   23.5143 C   0  0  0  0  0  0  0  0  0  0  0  0
    8.4532    0.3482   26.0821 C   0  0  0  0  0  0  0  0  0  0  0  0
   10.4239   -1.7677   22.2230 N   0  0  0  0  0  0  0  0  0  0  0  0
    9.9468   -4.5953   20.1709 C   0  0  0  0  0  0  0  0  0  0  0  0
   10.0366   -3.0590   23.9864 N   0  0  0  0  0  0  0  0  0  0  0  0
    7.1191   -7.3636   15.7739 C   0  0  0  0  0  0  0  0  0  0  0  0
    5.9612   -8.3203   17.2732 N   0  0  0  0  0  0  0  0  0  0  0  0
    8.5296   -5.9814   17.1841 C   0  0  0  0  0  0  0  0  0  0  0  0
    9.1527   -5.2118   16.2116 C   0  0  0  0  0  0  0  0  0  0  0  0
   10.3364   -3.8368   22.9255 O   0  0  0  0  0  0  0  0  0  0  0  0
    9.6947   -4.8407   18.8534 C   0  0  0  0  0  0  0  0  0  0  0  0
    9.1596    1.7042   24.1381 C   0  0  0  0  0  0  0  0  0  0  0  0
   11.0456   -2.9774   18.2694 N   0  0  0  0  0  0  0  0  0  0  0  0
   10.4788   -3.0457   21.8593 C   0  0  0  0  0  0  0  0  0  0  0  0
    8.8693   -5.8099   18.4657 N   0  0  0  0  0  0  0  0  0  0  0  0
    8.9892   -0.7926   25.4573 C   0  0  0  0  0  0  0  0  0  0  0  0
   10.5677   -3.4462   20.5323 C   0  0  0  0  0  0  0  0  0  0  0  0
  1  8  1  0
  1 12  4  0
  1 14  4  0
  2  3  4  0
  2 18  4  0
  3 20  4  0
  3 22  4  0
  4 11  4  0
  4 21  4  0
  5  9  4  0
  5 16  4  0
  6 15  4  0
  6 16  4  0
  7 22  4  0
  7 26  4  0
  8 10  4  0
  8 25  4  0
  9 15  4  0
  9 17  1  0
 10 21  4  0
 11 25  4  0
 12 23  4  0
 13 20  4  0
 13 26  4  0
 14 19  4  0
 17 18  4  0
 17 24  4  0
 19 23  4  0
 20 24  4  0
 23 26  1  0
M  END
$$$$

 Created by Python create_sdf_string function

 26 30  0  0  0  0  0  0  0  0999 V2000
   10.0084   -1.8019   23.4945 C   0  0  0  0  0  0  0  0  0  0  0  0
   10.0005   -4.2520   16.5631 C   0  0  0  0  0  0  0  0  0  0  0  0
   10.2759   -4.0036   17.8845 C   0  0  0  0  0  0  0  0  0  0  0  0
    8.5652    1.5478   25.3778 N   0  0  0  0  0  0  0  0  0  0  0  0
    6.8048   -7.5457   17.8752 C   0  0  0  0  0  0  0  0  0  0  0  0
    6.1721   -8.2186   15.9886 N   0  0  0  0  0  0  0  0  0  0  0  0
   11.1764   -2.6600   19.5604 C   0  0  0  0  0  0  0  0  0  0  0  0
    9.5491   -0.6380   24.1912 C   0  0  0  0  0  0  0  0  0  0  0  0
    7.5337   -6.9256   16.9519 C   0  0  0  0  0  0  0  0  0  0  0  0
    9.6782    0.5671   23.5143 C   0  0  0  0  0  0  0  0  0  0  0  0
    8.4532    0.3482   26.0821 C   0  0  0  0  0  0  0  0  0  0  0  0
   10.4239   -1.7677   22.2230 N   0  0  0  0  0  0  0  0  0  0  0  0
    9.9468   -4.5953   20.1709 C   0  0  0  0  0  0  0  0  0  0  0  0
   10.0366   -3.0590   23.9864 N   0  0  0  0  0  0  0  0  0  0  0  0
    7.1191   -7.3636   15.7739 C   0  0  0  0  0  0  0  0  0  0  0  0
    5.9612   -8.3203   17.2732 N   0  0  0  0  0  0  0  0  0  0  0  0
    8.5296   -5.9814   17.1841 C   0  0  0  0  0  0  0  0  0  0  0  0
    9.1527   -5.2118   16.2116 C   0  0  0  0  0  0  0  0  0  0  0  0
   10.3364   -3.8368   22.9255 O   0  0  0  0  0  0  0  0  0  0  0  0
    9.6947   -4.8407   18.8534 C   0  0  0  0  0  0  0  0  0  0  0  0
    9.1596    1.7042   24.1381 C   0  0  0  0  0  0  0  0  0  0  0  0
   11.0456   -2.9774   18.2694 N   0  0  0  0  0  0  0  0  0  0  0  0
   10.4788   -3.0457   21.8593 C   0  0  0  0  0  0  0  0  0  0  0  0
    8.8693   -5.8099   18.4657 N   0  0  0  0  0  0  0  0  0  0  0  0
    8.9892   -0.7926   25.4573 C   0  0  0  0  0  0  0  0  0  0  0  0
   10.5677   -3.4462   20.5323 C   0  0  0  0  0  0  0  0  0  0  0  0
  1  8  1  0
  1 12  4  0
  1 14  4  0
  2  3  4  0
  2 18  4  0
  3 20  4  0
  3 22  4  0
  4 11  4  0
  4 21  4  0
  5  9  4  0
  5 16  4  0
  6 15  4  0
  6 16  4  0
  7 22  4  0
  7 26  4  0
  8 10  4  0
  8 25  4  0
  9 15  4  0
  9 17  1  0
 10 21  4  0
 11 25  4  0
 12 23  4  0
 13 20  4  0
 13 26  4  0
 14 19  4  0
 17 18  4  0
 17 24  4  0
 19 23  4  0
 20 24  4  0
 23 26  1  0
M  END
$$$$

 Created by Python create_sdf_string function

 26 30  0  0  0  0  0  0  0  0999 V2000
   10.0084   -1.8019   23.4945 C   0  0  0  0  0  0  0  0  0  0  0  0
   10.0005   -4.2520   16.5631 C   0  0  0  0  0  0  0  0  0  0  0  0
   10.2759   -4.0036   17.8845 C   0  0  0  0  0  0  0  0  0  0  0  0
    8.5652    1.5478   25.3778 N   0  0  0  0  0  0  0  0  0  0  0  0
    6.8048   -7.5457   17.8752 C   0  0  0  0  0  0  0  0  0  0  0  0
    6.1721   -8.2186   15.9886 N   0  0  0  0  0  0  0  0  0  0  0  0
   11.1764   -2.6600   19.5604 C   0  0  0  0  0  0  0  0  0  0  0  0
    9.5491   -0.6380   24.1912 C   0  0  0  0  0  0  0  0  0  0  0  0
    7.5337   -6.9256   16.9519 C   0  0  0  0  0  0  0  0  0  0  0  0
    9.6782    0.5671   23.5143 C   0  0  0  0  0  0  0  0  0  0  0  0
    8.4532    0.3482   26.0821 C   0  0  0  0  0  0  0  0  0  0  0  0
   10.4239   -1.7677   22.2230 N   0  0  0  0  0  0  0  0  0  0  0  0
    9.9468   -4.5953   20.1709 C   0  0  0  0  0  0  0  0  0  0  0  0
   10.0366   -3.0590   23.9864 N   0  0  0  0  0  0  0  0  0  0  0  0
    7.1191   -7.3636   15.7739 C   0  0  0  0  0  0  0  0  0  0  0  0
    5.9612   -8.3203   17.2732 N   0  0  0  0  0  0  0  0  0  0  0  0
    8.5296   -5.9814   17.1841 C   0  0  0  0  0  0  0  0  0  0  0  0
    9.1527   -5.2118   16.2116 C   0  0  0  0  0  0  0  0  0  0  0  0
   10.3364   -3.8368   22.9255 O   0  0  0  0  0  0  0  0  0  0  0  0
    9.6947   -4.8407   18.8534 C   0  0  0  0  0  0  0  0  0  0  0  0
    9.1596    1.7042   24.1381 C   0  0  0  0  0  0  0  0  0  0  0  0
   11.0456   -2.9774   18.2694 N   0  0  0  0  0  0  0  0  0  0  0  0
   10.4788   -3.0457   21.8593 C   0  0  0  0  0  0  0  0  0  0  0  0
    8.8693   -5.8099   18.4657 N   0  0  0  0  0  0  0  0  0  0  0  0
    8.9892   -0.7926   25.4573 C   0  0  0  0  0  0  0  0  0  0  0  0
   10.5677   -3.4462   20.5323 C   0  0  0  0  0  0  0  0  0  0  0  0
  1  8  1  0
  1 12  4  0
  1 14  4  0
  2  3  4  0
  2 18  4  0
  3 20  4  0
  3 22  4  0
  4 11  4  0
  4 21  4  0
  5  9  4  0
  5 16  4  0
  6 15  4  0
  6 16  4  0
  7 22  4  0
  7 26  4  0
  8 10  4  0
  8 25  4  0
  9 15  4  0
  9 17  1  0
 10 21  4  0
 11 25  4  0
 12 23  4  0
 13 20  4  0
 13 26  4  0
 14 19  4  0
 17 18  4  0
 17 24  4  0
 19 23  4  0
 20 24  4  0
 23 26  1  0
M  END
$$$$

 Created by Python create_sdf_string function

 26 30  0  0  0  0  0  0  0  0999 V2000
   10.0084   -1.8019   23.4945 C   0  0  0  0  0  0  0  0  0  0  0  0
   10.0005   -4.2520   16.5631 C   0  0  0  0  0  0  0  0  0  0  0  0
   10.2759   -4.0036   17.8845 C   0  0  0  0  0  0  0  0  0  0  0  0
    8.5652    1.5478   25.3778 N   0  0  0  0  0  0  0  0  0  0  0  0
    6.8048   -7.5457   17.8752 C   0  0  0  0  0  0  0  0  0  0  0  0
    6.1721   -8.2186   15.9886 N   0  0  0  0  0  0  0  0  0  0  0  0
   11.1764   -2.6600   19.5604 C   0  0  0  0  0  0  0  0  0  0  0  0
    9.5491   -0.6380   24.1912 C   0  0  0  0  0  0  0  0  0  0  0  0
    7.5337   -6.9256   16.9519 C   0  0  0  0  0  0  0  0  0  0  0  0
    9.6782    0.5671   23.5143 C   0  0  0  0  0  0  0  0  0  0  0  0
    8.4532    0.3482   26.0821 C   0  0  0  0  0  0  0  0  0  0  0  0
   10.4239   -1.7677   22.2230 N   0  0  0  0  0  0  0  0  0  0  0  0
    9.9468   -4.5953   20.1709 C   0  0  0  0  0  0  0  0  0  0  0  0
   10.0366   -3.0590   23.9864 N   0  0  0  0  0  0  0  0  0  0  0  0
    7.1191   -7.3636   15.7739 C   0  0  0  0  0  0  0  0  0  0  0  0
    5.9612   -8.3203   17.2732 N   0  0  0  0  0  0  0  0  0  0  0  0
    8.5296   -5.9814   17.1841 C   0  0  0  0  0  0  0  0  0  0  0  0
    9.1527   -5.2118   16.2116 C   0  0  0  0  0  0  0  0  0  0  0  0
   10.3364   -3.8368   22.9255 O   0  0  0  0  0  0  0  0  0  0  0  0
    9.6947   -4.8407   18.8534 C   0  0  0  0  0  0  0  0  0  0  0  0
    9.1596    1.7042   24.1381 C   0  0  0  0  0  0  0  0  0  0  0  0
   11.0456   -2.9774   18.2694 N   0  0  0  0  0  0  0  0  0  0  0  0
   10.4788   -3.0457   21.8593 C   0  0  0  0  0  0  0  0  0  0  0  0
    8.8693   -5.8099   18.4657 N   0  0  0  0  0  0  0  0  0  0  0  0
    8.9892   -0.7926   25.4573 C   0  0  0  0  0  0  0  0  0  0  0  0
   10.5677   -3.4462   20.5323 C   0  0  0  0  0  0  0  0  0  0  0  0
  1  8  1  0
  1 12  4  0
  1 14  4  0
  2  3  4  0
  2 18  4  0
  3 20  4  0
  3 22  4  0
  4 11  4  0
  4 21  4  0
  5  9  4  0
  5 16  4  0
  6 15  4  0
  6 16  4  0
  7 22  4  0
  7 26  4  0
  8 10  4  0
  8 25  4  0
  9 15  4  0
  9 17  1  0
 10 21  4  0
 11 25  4  0
 12 23  4  0
 13 20  4  0
 13 26  4  0
 14 19  4  0
 17 18  4  0
 17 24  4  0
 19 23  4  0
 20 24  4  0
 23 26  1  0
M  END
$$$$

 Created by Python create_sdf_string function

 26 30  0  0  0  0  0  0  0  0999 V2000
   10.0084   -1.8019   23.4945 C   0  0  0  0  0  0  0  0  0  0  0  0
   10.0005   -4.2520   16.5631 C   0  0  0  0  0  0  0  0  0  0  0  0
   10.2759   -4.0036   17.8845 C   0  0  0  0  0  0  0  0  0  0  0  0
    8.5652    1.5478   25.3778 N   0  0  0  0  0  0  0  0  0  0  0  0
    6.8048   -7.5457   17.8752 C   0  0  0  0  0  0  0  0  0  0  0  0
    6.1721   -8.2186   15.9886 N   0  0  0  0  0  0  0  0  0  0  0  0
   11.1764   -2.6600   19.5604 C   0  0  0  0  0  0  0  0  0  0  0  0
    9.5491   -0.6380   24.1912 C   0  0  0  0  0  0  0  0  0  0  0  0
    7.5337   -6.9256   16.9519 C   0  0  0  0  0  0  0  0  0  0  0  0
    9.6782    0.5671   23.5143 C   0  0  0  0  0  0  0  0  0  0  0  0
    8.4532    0.3482   26.0821 C   0  0  0  0  0  0  0  0  0  0  0  0
   10.4239   -1.7677   22.2230 N   0  0  0  0  0  0  0  0  0  0  0  0
    9.9468   -4.5953   20.1709 C   0  0  0  0  0  0  0  0  0  0  0  0
   10.0366   -3.0590   23.9864 N   0  0  0  0  0  0  0  0  0  0  0  0
    7.1191   -7.3636   15.7739 C   0  0  0  0  0  0  0  0  0  0  0  0
    5.9612   -8.3203   17.2732 N   0  0  0  0  0  0  0  0  0  0  0  0
    8.5296   -5.9814   17.1841 C   0  0  0  0  0  0  0  0  0  0  0  0
    9.1527   -5.2118   16.2116 C   0  0  0  0  0  0  0  0  0  0  0  0
   10.3364   -3.8368   22.9255 O   0  0  0  0  0  0  0  0  0  0  0  0
    9.6947   -4.8407   18.8534 C   0  0  0  0  0  0  0  0  0  0  0  0
    9.1596    1.7042   24.1381 C   0  0  0  0  0  0  0  0  0  0  0  0
   11.0456   -2.9774   18.2694 N   0  0  0  0  0  0  0  0  0  0  0  0
   10.4788   -3.0457   21.8593 C   0  0  0  0  0  0  0  0  0  0  0  0
    8.8693   -5.8099   18.4657 N   0  0  0  0  0  0  0  0  0  0  0  0
    8.9892   -0.7926   25.4573 C   0  0  0  0  0  0  0  0  0  0  0  0
   10.5677   -3.4462   20.5323 C   0  0  0  0  0  0  0  0  0  0  0  0
  1  8  1  0
  1 12  4  0
  1 14  4  0
  2  3  4  0
  2 18  4  0
  3 20  4  0
  3 22  4  0
  4 11  4  0
  4 21  4  0
  5  9  4  0
  5 16  4  0
  6 15  4  0
  6 16  4  0
  7 22  4  0
  7 26  4  0
  8 10  4  0
  8 25  4  0
  9 15  4  0
  9 17  1  0
 10 21  4  0
 11 25  4  0
 12 23  4  0
 13 20  4  0
 13 26  4  0
 14 19  4  0
 17 18  4  0
 17 24  4  0
 19 23  4  0
 20 24  4  0
 23 26  1  0
M  END
$$$$

 Created by Python create_sdf_string function

 26 30  0  0  0  0  0  0  0  0999 V2000
   10.0084   -1.8019   23.4945 C   0  0  0  0  0  0  0  0  0  0  0  0
   10.0005   -4.2520   16.5631 C   0  0  0  0  0  0  0  0  0  0  0  0
   10.2759   -4.0036   17.8845 C   0  0  0  0  0  0  0  0  0  0  0  0
    8.5652    1.5478   25.3778 N   0  0  0  0  0  0  0  0  0  0  0  0
    6.8048   -7.5457   17.8752 C   0  0  0  0  0  0  0  0  0  0  0  0
    6.1721   -8.2186   15.9886 N   0  0  0  0  0  0  0  0  0  0  0  0
   11.1764   -2.6600   19.5604 C   0  0  0  0  0  0  0  0  0  0  0  0
    9.5491   -0.6380   24.1912 C   0  0  0  0  0  0  0  0  0  0  0  0
    7.5337   -6.9256   16.9519 C   0  0  0  0  0  0  0  0  0  0  0  0
    9.6782    0.5671   23.5143 C   0  0  0  0  0  0  0  0  0  0  0  0
    8.4532    0.3482   26.0821 C   0  0  0  0  0  0  0  0  0  0  0  0
   10.4239   -1.7677   22.2230 N   0  0  0  0  0  0  0  0  0  0  0  0
    9.9468   -4.5953   20.1709 C   0  0  0  0  0  0  0  0  0  0  0  0
   10.0366   -3.0590   23.9864 N   0  0  0  0  0  0  0  0  0  0  0  0
    7.1191   -7.3636   15.7739 C   0  0  0  0  0  0  0  0  0  0  0  0
    5.9612   -8.3203   17.2732 N   0  0  0  0  0  0  0  0  0  0  0  0
    8.5296   -5.9814   17.1841 C   0  0  0  0  0  0  0  0  0  0  0  0
    9.1527   -5.2118   16.2116 C   0  0  0  0  0  0  0  0  0  0  0  0
   10.3364   -3.8368   22.9255 O   0  0  0  0  0  0  0  0  0  0  0  0
    9.6947   -4.8407   18.8534 C   0  0  0  0  0  0  0  0  0  0  0  0
    9.1596    1.7042   24.1381 C   0  0  0  0  0  0  0  0  0  0  0  0
   11.0456   -2.9774   18.2694 N   0  0  0  0  0  0  0  0  0  0  0  0
   10.4788   -3.0457   21.8593 C   0  0  0  0  0  0  0  0  0  0  0  0
    8.8693   -5.8099   18.4657 N   0  0  0  0  0  0  0  0  0  0  0  0
    8.9892   -0.7926   25.4573 C   0  0  0  0  0  0  0  0  0  0  0  0
   10.5677   -3.4462   20.5323 C   0  0  0  0  0  0  0  0  0  0  0  0
  1  8  1  0
  1 12  4  0
  1 14  4  0
  2  3  4  0
  2 18  4  0
  3 20  4  0
  3 22  4  0
  4 11  4  0
  4 21  4  0
  5  9  4  0
  5 16  4  0
  6 15  4  0
  6 16  4  0
  7 22  4  0
  7 26  4  0
  8 10  4  0
  8 25  4  0
  9 15  4  0
  9 17  1  0
 10 21  4  0
 11 25  4  0
 12 23  4  0
 13 20  4  0
 13 26  4  0
 14 19  4  0
 17 18  4  0
 17 24  4  0
 19 23  4  0
 20 24  4  0
 23 26  1  0
M  END
$$$$

 Created by Python create_sdf_string function

 26 30  0  0  0  0  0  0  0  0999 V2000
   10.0084   -1.8019   23.4945 C   0  0  0  0  0  0  0  0  0  0  0  0
   10.0005   -4.2520   16.5631 C   0  0  0  0  0  0  0  0  0  0  0  0
   10.2759   -4.0036   17.8845 C   0  0  0  0  0  0  0  0  0  0  0  0
    8.5652    1.5478   25.3778 N   0  0  0  0  0  0  0  0  0  0  0  0
    6.8048   -7.5457   17.8752 C   0  0  0  0  0  0  0  0  0  0  0  0
    6.1721   -8.2186   15.9886 N   0  0  0  0  0  0  0  0  0  0  0  0
   11.1764   -2.6600   19.5604 C   0  0  0  0  0  0  0  0  0  0  0  0
    9.5491   -0.6380   24.1912 C   0  0  0  0  0  0  0  0  0  0  0  0
    7.5337   -6.9256   16.9519 C   0  0  0  0  0  0  0  0  0  0  0  0
    9.6782    0.5671   23.5143 C   0  0  0  0  0  0  0  0  0  0  0  0
    8.4532    0.3482   26.0821 C   0  0  0  0  0  0  0  0  0  0  0  0
   10.4239   -1.7677   22.2230 N   0  0  0  0  0  0  0  0  0  0  0  0
    9.9468   -4.5953   20.1709 C   0  0  0  0  0  0  0  0  0  0  0  0
   10.0366   -3.0590   23.9864 N   0  0  0  0  0  0  0  0  0  0  0  0
    7.1191   -7.3636   15.7739 C   0  0  0  0  0  0  0  0  0  0  0  0
    5.9612   -8.3203   17.2732 N   0  0  0  0  0  0  0  0  0  0  0  0
    8.5296   -5.9814   17.1841 C   0  0  0  0  0  0  0  0  0  0  0  0
    9.1527   -5.2118   16.2116 C   0  0  0  0  0  0  0  0  0  0  0  0
   10.3364   -3.8368   22.9255 O   0  0  0  0  0  0  0  0  0  0  0  0
    9.6947   -4.8407   18.8534 C   0  0  0  0  0  0  0  0  0  0  0  0
    9.1596    1.7042   24.1381 C   0  0  0  0  0  0  0  0  0  0  0  0
   11.0456   -2.9774   18.2694 N   0  0  0  0  0  0  0  0  0  0  0  0
   10.4788   -3.0457   21.8593 C   0  0  0  0  0  0  0  0  0  0  0  0
    8.8693   -5.8099   18.4657 N   0  0  0  0  0  0  0  0  0  0  0  0
    8.9892   -0.7926   25.4573 C   0  0  0  0  0  0  0  0  0  0  0  0
   10.5677   -3.4462   20.5323 C   0  0  0  0  0  0  0  0  0  0  0  0
  1  8  1  0
  1 12  4  0
  1 14  4  0
  2  3  4  0
  2 18  4  0
  3 20  4  0
  3 22  4  0
  4 11  4  0
  4 21  4  0
  5  9  4  0
  5 16  4  0
  6 15  4  0
  6 16  4  0
  7 22  4  0
  7 26  4  0
  8 10  4  0
  8 25  4  0
  9 15  4  0
  9 17  1  0
 10 21  4  0
 11 25  4  0
 12 23  4  0
 13 20  4  0
 13 26  4  0
 14 19  4  0
 17 18  4  0
 17 24  4  0
 19 23  4  0
 20 24  4  0
 23 26  1  0
M  END
$$$$

 Created by Python create_sdf_string function

 26 30  0  0  0  0  0  0  0  0999 V2000
   10.0084   -1.8019   23.4945 C   0  0  0  0  0  0  0  0  0  0  0  0
   10.0005   -4.2520   16.5631 C   0  0  0  0  0  0  0  0  0  0  0  0
   10.2759   -4.0036   17.8845 C   0  0  0  0  0  0  0  0  0  0  0  0
    8.5652    1.5478   25.3778 N   0  0  0  0  0  0  0  0  0  0  0  0
    6.8048   -7.5457   17.8752 C   0  0  0  0  0  0  0  0  0  0  0  0
    6.1721   -8.2186   15.9886 N   0  0  0  0  0  0  0  0  0  0  0  0
   11.1764   -2.6600   19.5604 C   0  0  0  0  0  0  0  0  0  0  0  0
    9.5491   -0.6380   24.1912 C   0  0  0  0  0  0  0  0  0  0  0  0
    7.5337   -6.9256   16.9519 C   0  0  0  0  0  0  0  0  0  0  0  0
    9.6782    0.5671   23.5143 C   0  0  0  0  0  0  0  0  0  0  0  0
    8.4532    0.3482   26.0821 C   0  0  0  0  0  0  0  0  0  0  0  0
   10.4239   -1.7677   22.2230 N   0  0  0  0  0  0  0  0  0  0  0  0
    9.9468   -4.5953   20.1709 C   0  0  0  0  0  0  0  0  0  0  0  0
   10.0366   -3.0590   23.9864 N   0  0  0  0  0  0  0  0  0  0  0  0
    7.1191   -7.3636   15.7739 C   0  0  0  0  0  0  0  0  0  0  0  0
    5.9612   -8.3203   17.2732 N   0  0  0  0  0  0  0  0  0  0  0  0
    8.5296   -5.9814   17.1841 C   0  0  0  0  0  0  0  0  0  0  0  0
    9.1527   -5.2118   16.2116 C   0  0  0  0  0  0  0  0  0  0  0  0
   10.3364   -3.8368   22.9255 O   0  0  0  0  0  0  0  0  0  0  0  0
    9.6947   -4.8407   18.8534 C   0  0  0  0  0  0  0  0  0  0  0  0
    9.1596    1.7042   24.1381 C   0  0  0  0  0  0  0  0  0  0  0  0
   11.0456   -2.9774   18.2694 N   0  0  0  0  0  0  0  0  0  0  0  0
   10.4788   -3.0457   21.8593 C   0  0  0  0  0  0  0  0  0  0  0  0
    8.8693   -5.8099   18.4657 N   0  0  0  0  0  0  0  0  0  0  0  0
    8.9892   -0.7926   25.4573 C   0  0  0  0  0  0  0  0  0  0  0  0
   10.5677   -3.4462   20.5323 C   0  0  0  0  0  0  0  0  0  0  0  0
  1  8  1  0
  1 12  4  0
  1 14  4  0
  2  3  4  0
  2 18  4  0
  3 20  4  0
  3 22  4  0
  4 11  4  0
  4 21  4  0
  5  9  4  0
  5 16  4  0
  6 15  4  0
  6 16  4  0
  7 22  4  0
  7 26  4  0
  8 10  4  0
  8 25  4  0
  9 15  4  0
  9 17  1  0
 10 21  4  0
 11 25  4  0
 12 23  4  0
 13 20  4  0
 13 26  4  0
 14 19  4  0
 17 18  4  0
 17 24  4  0
 19 23  4  0
 20 24  4  0
 23 26  1  0
M  END
$$$$

 Created by Python create_sdf_string function

 26 30  0  0  0  0  0  0  0  0999 V2000
   10.0084   -1.8019   23.4945 C   0  0  0  0  0  0  0  0  0  0  0  0
   10.0005   -4.2520   16.5631 C   0  0  0  0  0  0  0  0  0  0  0  0
   10.2759   -4.0036   17.8845 C   0  0  0  0  0  0  0  0  0  0  0  0
    8.5652    1.5478   25.3778 N   0  0  0  0  0  0  0  0  0  0  0  0
    6.8048   -7.5457   17.8752 C   0  0  0  0  0  0  0  0  0  0  0  0
    6.1721   -8.2186   15.9886 N   0  0  0  0  0  0  0  0  0  0  0  0
   11.1764   -2.6600   19.5604 C   0  0  0  0  0  0  0  0  0  0  0  0
    9.5491   -0.6380   24.1912 C   0  0  0  0  0  0  0  0  0  0  0  0
    7.5337   -6.9256   16.9519 C   0  0  0  0  0  0  0  0  0  0  0  0
    9.6782    0.5671   23.5143 C   0  0  0  0  0  0  0  0  0  0  0  0
    8.4532    0.3482   26.0821 C   0  0  0  0  0  0  0  0  0  0  0  0
   10.4239   -1.7677   22.2230 N   0  0  0  0  0  0  0  0  0  0  0  0
    9.9468   -4.5953   20.1709 C   0  0  0  0  0  0  0  0  0  0  0  0
   10.0366   -3.0590   23.9864 N   0  0  0  0  0  0  0  0  0  0  0  0
    7.1191   -7.3636   15.7739 C   0  0  0  0  0  0  0  0  0  0  0  0
    5.9612   -8.3203   17.2732 N   0  0  0  0  0  0  0  0  0  0  0  0
    8.5296   -5.9814   17.1841 C   0  0  0  0  0  0  0  0  0  0  0  0
    9.1527   -5.2118   16.2116 C   0  0  0  0  0  0  0  0  0  0  0  0
   10.3364   -3.8368   22.9255 O   0  0  0  0  0  0  0  0  0  0  0  0
    9.6947   -4.8407   18.8534 C   0  0  0  0  0  0  0  0  0  0  0  0
    9.1596    1.7042   24.1381 C   0  0  0  0  0  0  0  0  0  0  0  0
   11.0456   -2.9774   18.2694 N   0  0  0  0  0  0  0  0  0  0  0  0
   10.4788   -3.0457   21.8593 C   0  0  0  0  0  0  0  0  0  0  0  0
    8.8693   -5.8099   18.4657 N   0  0  0  0  0  0  0  0  0  0  0  0
    8.9892   -0.7926   25.4573 C   0  0  0  0  0  0  0  0  0  0  0  0
   10.5677   -3.4462   20.5323 C   0  0  0  0  0  0  0  0  0  0  0  0
  1  8  1  0
  1 12  4  0
  1 14  4  0
  2  3  4  0
  2 18  4  0
  3 20  4  0
  3 22  4  0
  4 11  4  0
  4 21  4  0
  5  9  4  0
  5 16  4  0
  6 15  4  0
  6 16  4  0
  7 22  4  0
  7 26  4  0
  8 10  4  0
  8 25  4  0
  9 15  4  0
  9 17  1  0
 10 21  4  0
 11 25  4  0
 12 23  4  0
 13 20  4  0
 13 26  4  0
 14 19  4  0
 17 18  4  0
 17 24  4  0
 19 23  4  0
 20 24  4  0
 23 26  1  0
M  END
$$$$

 Created by Python create_sdf_string function

 26 30  0  0  0  0  0  0  0  0999 V2000
   10.0084   -1.8019   23.4945 C   0  0  0  0  0  0  0  0  0  0  0  0
   10.0005   -4.2520   16.5631 C   0  0  0  0  0  0  0  0  0  0  0  0
   10.2759   -4.0036   17.8845 C   0  0  0  0  0  0  0  0  0  0  0  0
    8.5652    1.5478   25.3778 N   0  0  0  0  0  0  0  0  0  0  0  0
    6.8048   -7.5457   17.8752 C   0  0  0  0  0  0  0  0  0  0  0  0
    6.1721   -8.2186   15.9886 N   0  0  0  0  0  0  0  0  0  0  0  0
   11.1764   -2.6600   19.5604 C   0  0  0  0  0  0  0  0  0  0  0  0
    9.5491   -0.6380   24.1912 C   0  0  0  0  0  0  0  0  0  0  0  0
    7.5337   -6.9256   16.9519 C   0  0  0  0  0  0  0  0  0  0  0  0
    9.6782    0.5671   23.5143 C   0  0  0  0  0  0  0  0  0  0  0  0
    8.4532    0.3482   26.0821 C   0  0  0  0  0  0  0  0  0  0  0  0
   10.4239   -1.7677   22.2230 N   0  0  0  0  0  0  0  0  0  0  0  0
    9.9468   -4.5953   20.1709 C   0  0  0  0  0  0  0  0  0  0  0  0
   10.0366   -3.0590   23.9864 N   0  0  0  0  0  0  0  0  0  0  0  0
    7.1191   -7.3636   15.7739 C   0  0  0  0  0  0  0  0  0  0  0  0
    5.9612   -8.3203   17.2732 N   0  0  0  0  0  0  0  0  0  0  0  0
    8.5296   -5.9814   17.1841 C   0  0  0  0  0  0  0  0  0  0  0  0
    9.1527   -5.2118   16.2116 C   0  0  0  0  0  0  0  0  0  0  0  0
   10.3364   -3.8368   22.9255 O   0  0  0  0  0  0  0  0  0  0  0  0
    9.6947   -4.8407   18.8534 C   0  0  0  0  0  0  0  0  0  0  0  0
    9.1596    1.7042   24.1381 C   0  0  0  0  0  0  0  0  0  0  0  0
   11.0456   -2.9774   18.2694 N   0  0  0  0  0  0  0  0  0  0  0  0
   10.4788   -3.0457   21.8593 C   0  0  0  0  0  0  0  0  0  0  0  0
    8.8693   -5.8099   18.4657 N   0  0  0  0  0  0  0  0  0  0  0  0
    8.9892   -0.7926   25.4573 C   0  0  0  0  0  0  0  0  0  0  0  0
   10.5677   -3.4462   20.5323 C   0  0  0  0  0  0  0  0  0  0  0  0
  1  8  1  0
  1 12  4  0
  1 14  4  0
  2  3  4  0
  2 18  4  0
  3 20  4  0
  3 22  4  0
  4 11  4  0
  4 21  4  0
  5  9  4  0
  5 16  4  0
  6 15  4  0
  6 16  4  0
  7 22  4  0
  7 26  4  0
  8 10  4  0
  8 25  4  0
  9 15  4  0
  9 17  1  0
 10 21  4  0
 11 25  4  0
 12 23  4  0
 13 20  4  0
 13 26  4  0
 14 19  4  0
 17 18  4  0
 17 24  4  0
 19 23  4  0
 20 24  4  0
 23 26  1  0
M  END
$$$$

 Created by Python create_sdf_string function

 26 30  0  0  0  0  0  0  0  0999 V2000
   10.0084   -1.8019   23.4945 C   0  0  0  0  0  0  0  0  0  0  0  0
   10.0005   -4.2520   16.5631 C   0  0  0  0  0  0  0  0  0  0  0  0
   10.2759   -4.0036   17.8845 C   0  0  0  0  0  0  0  0  0  0  0  0
    8.5652    1.5478   25.3778 N   0  0  0  0  0  0  0  0  0  0  0  0
    6.8048   -7.5457   17.8752 C   0  0  0  0  0  0  0  0  0  0  0  0
    6.1721   -8.2186   15.9886 N   0  0  0  0  0  0  0  0  0  0  0  0
   11.1764   -2.6600   19.5604 C   0  0  0  0  0  0  0  0  0  0  0  0
    9.5491   -0.6380   24.1912 C   0  0  0  0  0  0  0  0  0  0  0  0
    7.5337   -6.9256   16.9519 C   0  0  0  0  0  0  0  0  0  0  0  0
    9.6782    0.5671   23.5143 C   0  0  0  0  0  0  0  0  0  0  0  0
    8.4532    0.3482   26.0821 C   0  0  0  0  0  0  0  0  0  0  0  0
   10.4239   -1.7677   22.2230 N   0  0  0  0  0  0  0  0  0  0  0  0
    9.9468   -4.5953   20.1709 C   0  0  0  0  0  0  0  0  0  0  0  0
   10.0366   -3.0590   23.9864 N   0  0  0  0  0  0  0  0  0  0  0  0
    7.1191   -7.3636   15.7739 C   0  0  0  0  0  0  0  0  0  0  0  0
    5.9612   -8.3203   17.2732 N   0  0  0  0  0  0  0  0  0  0  0  0
    8.5296   -5.9814   17.1841 C   0  0  0  0  0  0  0  0  0  0  0  0
    9.1527   -5.2118   16.2116 C   0  0  0  0  0  0  0  0  0  0  0  0
   10.3364   -3.8368   22.9255 O   0  0  0  0  0  0  0  0  0  0  0  0
    9.6947   -4.8407   18.8534 C   0  0  0  0  0  0  0  0  0  0  0  0
    9.1596    1.7042   24.1381 C   0  0  0  0  0  0  0  0  0  0  0  0
   11.0456   -2.9774   18.2694 N   0  0  0  0  0  0  0  0  0  0  0  0
   10.4788   -3.0457   21.8593 C   0  0  0  0  0  0  0  0  0  0  0  0
    8.8693   -5.8099   18.4657 N   0  0  0  0  0  0  0  0  0  0  0  0
    8.9892   -0.7926   25.4573 C   0  0  0  0  0  0  0  0  0  0  0  0
   10.5677   -3.4462   20.5323 C   0  0  0  0  0  0  0  0  0  0  0  0
  1  8  1  0
  1 12  4  0
  1 14  4  0
  2  3  4  0
  2 18  4  0
  3 20  4  0
  3 22  4  0
  4 11  4  0
  4 21  4  0
  5  9  4  0
  5 16  4  0
  6 15  4  0
  6 16  4  0
  7 22  4  0
  7 26  4  0
  8 10  4  0
  8 25  4  0
  9 15  4  0
  9 17  1  0
 10 21  4  0
 11 25  4  0
 12 23  4  0
 13 20  4  0
 13 26  4  0
 14 19  4  0
 17 18  4  0
 17 24  4  0
 19 23  4  0
 20 24  4  0
 23 26  1  0
M  END
$$$$

 Created by Python create_sdf_string function

 26 30  0  0  0  0  0  0  0  0999 V2000
   10.0084   -1.8019   23.4945 C   0  0  0  0  0  0  0  0  0  0  0  0
   10.0005   -4.2520   16.5631 C   0  0  0  0  0  0  0  0  0  0  0  0
   10.2759   -4.0036   17.8845 C   0  0  0  0  0  0  0  0  0  0  0  0
    8.5652    1.5478   25.3778 N   0  0  0  0  0  0  0  0  0  0  0  0
    6.8048   -7.5457   17.8752 C   0  0  0  0  0  0  0  0  0  0  0  0
    6.1721   -8.2186   15.9886 N   0  0  0  0  0  0  0  0  0  0  0  0
   11.1764   -2.6600   19.5604 C   0  0  0  0  0  0  0  0  0  0  0  0
    9.5491   -0.6380   24.1912 C   0  0  0  0  0  0  0  0  0  0  0  0
    7.5337   -6.9256   16.9519 C   0  0  0  0  0  0  0  0  0  0  0  0
    9.6782    0.5671   23.5143 C   0  0  0  0  0  0  0  0  0  0  0  0
    8.4532    0.3482   26.0821 C   0  0  0  0  0  0  0  0  0  0  0  0
   10.4239   -1.7677   22.2230 N   0  0  0  0  0  0  0  0  0  0  0  0
    9.9468   -4.5953   20.1709 C   0  0  0  0  0  0  0  0  0  0  0  0
   10.0366   -3.0590   23.9864 N   0  0  0  0  0  0  0  0  0  0  0  0
    7.1191   -7.3636   15.7739 C   0  0  0  0  0  0  0  0  0  0  0  0
    5.9612   -8.3203   17.2732 N   0  0  0  0  0  0  0  0  0  0  0  0
    8.5296   -5.9814   17.1841 C   0  0  0  0  0  0  0  0  0  0  0  0
    9.1527   -5.2118   16.2116 C   0  0  0  0  0  0  0  0  0  0  0  0
   10.3364   -3.8368   22.9255 O   0  0  0  0  0  0  0  0  0  0  0  0
    9.6947   -4.8407   18.8534 C   0  0  0  0  0  0  0  0  0  0  0  0
    9.1596    1.7042   24.1381 C   0  0  0  0  0  0  0  0  0  0  0  0
   11.0456   -2.9774   18.2694 N   0  0  0  0  0  0  0  0  0  0  0  0
   10.4788   -3.0457   21.8593 C   0  0  0  0  0  0  0  0  0  0  0  0
    8.8693   -5.8099   18.4657 N   0  0  0  0  0  0  0  0  0  0  0  0
    8.9892   -0.7926   25.4573 C   0  0  0  0  0  0  0  0  0  0  0  0
   10.5677   -3.4462   20.5323 C   0  0  0  0  0  0  0  0  0  0  0  0
  1  8  1  0
  1 12  4  0
  1 14  4  0
  2  3  4  0
  2 18  4  0
  3 20  4  0
  3 22  4  0
  4 11  4  0
  4 21  4  0
  5  9  4  0
  5 16  4  0
  6 15  4  0
  6 16  4  0
  7 22  4  0
  7 26  4  0
  8 10  4  0
  8 25  4  0
  9 15  4  0
  9 17  1  0
 10 21  4  0
 11 25  4  0
 12 23  4  0
 13 20  4  0
 13 26  4  0
 14 19  4  0
 17 18  4  0
 17 24  4  0
 19 23  4  0
 20 24  4  0
 23 26  1  0
M  END
$$$$

 Created by Python create_sdf_string function

 26 30  0  0  0  0  0  0  0  0999 V2000
   10.0084   -1.8019   23.4945 C   0  0  0  0  0  0  0  0  0  0  0  0
   10.0005   -4.2520   16.5631 C   0  0  0  0  0  0  0  0  0  0  0  0
   10.2759   -4.0036   17.8845 C   0  0  0  0  0  0  0  0  0  0  0  0
    8.5652    1.5478   25.3778 N   0  0  0  0  0  0  0  0  0  0  0  0
    6.8048   -7.5457   17.8752 C   0  0  0  0  0  0  0  0  0  0  0  0
    6.1721   -8.2186   15.9886 N   0  0  0  0  0  0  0  0  0  0  0  0
   11.1764   -2.6600   19.5604 C   0  0  0  0  0  0  0  0  0  0  0  0
    9.5491   -0.6380   24.1912 C   0  0  0  0  0  0  0  0  0  0  0  0
    7.5337   -6.9256   16.9519 C   0  0  0  0  0  0  0  0  0  0  0  0
    9.6782    0.5671   23.5143 C   0  0  0  0  0  0  0  0  0  0  0  0
    8.4532    0.3482   26.0821 C   0  0  0  0  0  0  0  0  0  0  0  0
   10.4239   -1.7677   22.2230 N   0  0  0  0  0  0  0  0  0  0  0  0
    9.9468   -4.5953   20.1709 C   0  0  0  0  0  0  0  0  0  0  0  0
   10.0366   -3.0590   23.9864 N   0  0  0  0  0  0  0  0  0  0  0  0
    7.1191   -7.3636   15.7739 C   0  0  0  0  0  0  0  0  0  0  0  0
    5.9612   -8.3203   17.2732 N   0  0  0  0  0  0  0  0  0  0  0  0
    8.5296   -5.9814   17.1841 C   0  0  0  0  0  0  0  0  0  0  0  0
    9.1527   -5.2118   16.2116 C   0  0  0  0  0  0  0  0  0  0  0  0
   10.3364   -3.8368   22.9255 O   0  0  0  0  0  0  0  0  0  0  0  0
    9.6947   -4.8407   18.8534 C   0  0  0  0  0  0  0  0  0  0  0  0
    9.1596    1.7042   24.1381 C   0  0  0  0  0  0  0  0  0  0  0  0
   11.0456   -2.9774   18.2694 N   0  0  0  0  0  0  0  0  0  0  0  0
   10.4788   -3.0457   21.8593 C   0  0  0  0  0  0  0  0  0  0  0  0
    8.8693   -5.8099   18.4657 N   0  0  0  0  0  0  0  0  0  0  0  0
    8.9892   -0.7926   25.4573 C   0  0  0  0  0  0  0  0  0  0  0  0
   10.5677   -3.4462   20.5323 C   0  0  0  0  0  0  0  0  0  0  0  0
  1  8  1  0
  1 12  4  0
  1 14  4  0
  2  3  4  0
  2 18  4  0
  3 20  4  0
  3 22  4  0
  4 11  4  0
  4 21  4  0
  5  9  4  0
  5 16  4  0
  6 15  4  0
  6 16  4  0
  7 22  4  0
  7 26  4  0
  8 10  4  0
  8 25  4  0
  9 15  4  0
  9 17  1  0
 10 21  4  0
 11 25  4  0
 12 23  4  0
 13 20  4  0
 13 26  4  0
 14 19  4  0
 17 18  4  0
 17 24  4  0
 19 23  4  0
 20 24  4  0
 23 26  1  0
M  END
$$$$

 Created by Python create_sdf_string function

 26 30  0  0  0  0  0  0  0  0999 V2000
   10.0084   -1.8019   23.4945 C   0  0  0  0  0  0  0  0  0  0  0  0
   10.0005   -4.2520   16.5631 C   0  0  0  0  0  0  0  0  0  0  0  0
   10.2759   -4.0036   17.8845 C   0  0  0  0  0  0  0  0  0  0  0  0
    8.5652    1.5478   25.3778 N   0  0  0  0  0  0  0  0  0  0  0  0
    6.8048   -7.5457   17.8752 C   0  0  0  0  0  0  0  0  0  0  0  0
    6.1721   -8.2186   15.9886 N   0  0  0  0  0  0  0  0  0  0  0  0
   11.1764   -2.6600   19.5604 C   0  0  0  0  0  0  0  0  0  0  0  0
    9.5491   -0.6380   24.1912 C   0  0  0  0  0  0  0  0  0  0  0  0
    7.5337   -6.9256   16.9519 C   0  0  0  0  0  0  0  0  0  0  0  0
    9.6782    0.5671   23.5143 C   0  0  0  0  0  0  0  0  0  0  0  0
    8.4532    0.3482   26.0821 C   0  0  0  0  0  0  0  0  0  0  0  0
   10.4239   -1.7677   22.2230 N   0  0  0  0  0  0  0  0  0  0  0  0
    9.9468   -4.5953   20.1709 C   0  0  0  0  0  0  0  0  0  0  0  0
   10.0366   -3.0590   23.9864 N   0  0  0  0  0  0  0  0  0  0  0  0
    7.1191   -7.3636   15.7739 C   0  0  0  0  0  0  0  0  0  0  0  0
    5.9612   -8.3203   17.2732 N   0  0  0  0  0  0  0  0  0  0  0  0
    8.5296   -5.9814   17.1841 C   0  0  0  0  0  0  0  0  0  0  0  0
    9.1527   -5.2118   16.2116 C   0  0  0  0  0  0  0  0  0  0  0  0
   10.3364   -3.8368   22.9255 O   0  0  0  0  0  0  0  0  0  0  0  0
    9.6947   -4.8407   18.8534 C   0  0  0  0  0  0  0  0  0  0  0  0
    9.1596    1.7042   24.1381 C   0  0  0  0  0  0  0  0  0  0  0  0
   11.0456   -2.9774   18.2694 N   0  0  0  0  0  0  0  0  0  0  0  0
   10.4788   -3.0457   21.8593 C   0  0  0  0  0  0  0  0  0  0  0  0
    8.8693   -5.8099   18.4657 N   0  0  0  0  0  0  0  0  0  0  0  0
    8.9892   -0.7926   25.4573 C   0  0  0  0  0  0  0  0  0  0  0  0
   10.5677   -3.4462   20.5323 C   0  0  0  0  0  0  0  0  0  0  0  0
  1  8  1  0
  1 12  4  0
  1 14  4  0
  2  3  4  0
  2 18  4  0
  3 20  4  0
  3 22  4  0
  4 11  4  0
  4 21  4  0
  5  9  4  0
  5 16  4  0
  6 15  4  0
  6 16  4  0
  7 22  4  0
  7 26  4  0
  8 10  4  0
  8 25  4  0
  9 15  4  0
  9 17  1  0
 10 21  4  0
 11 25  4  0
 12 23  4  0
 13 20  4  0
 13 26  4  0
 14 19  4  0
 17 18  4  0
 17 24  4  0
 19 23  4  0
 20 24  4  0
 23 26  1  0
M  END
$$$$

 Created by Python create_sdf_string function

 26 30  0  0  0  0  0  0  0  0999 V2000
   10.0084   -1.8019   23.4945 C   0  0  0  0  0  0  0  0  0  0  0  0
   10.0005   -4.2520   16.5631 C   0  0  0  0  0  0  0  0  0  0  0  0
   10.2759   -4.0036   17.8845 C   0  0  0  0  0  0  0  0  0  0  0  0
    8.5652    1.5478   25.3778 N   0  0  0  0  0  0  0  0  0  0  0  0
    6.8048   -7.5457   17.8752 C   0  0  0  0  0  0  0  0  0  0  0  0
    6.1721   -8.2186   15.9886 N   0  0  0  0  0  0  0  0  0  0  0  0
   11.1764   -2.6600   19.5604 C   0  0  0  0  0  0  0  0  0  0  0  0
    9.5491   -0.6380   24.1912 C   0  0  0  0  0  0  0  0  0  0  0  0
    7.5337   -6.9256   16.9519 C   0  0  0  0  0  0  0  0  0  0  0  0
    9.6782    0.5671   23.5143 C   0  0  0  0  0  0  0  0  0  0  0  0
    8.4532    0.3482   26.0821 C   0  0  0  0  0  0  0  0  0  0  0  0
   10.4239   -1.7677   22.2230 N   0  0  0  0  0  0  0  0  0  0  0  0
    9.9468   -4.5953   20.1709 C   0  0  0  0  0  0  0  0  0  0  0  0
   10.0366   -3.0590   23.9864 N   0  0  0  0  0  0  0  0  0  0  0  0
    7.1191   -7.3636   15.7739 C   0  0  0  0  0  0  0  0  0  0  0  0
    5.9612   -8.3203   17.2732 N   0  0  0  0  0  0  0  0  0  0  0  0
    8.5296   -5.9814   17.1841 C   0  0  0  0  0  0  0  0  0  0  0  0
    9.1527   -5.2118   16.2116 C   0  0  0  0  0  0  0  0  0  0  0  0
   10.3364   -3.8368   22.9255 O   0  0  0  0  0  0  0  0  0  0  0  0
    9.6947   -4.8407   18.8534 C   0  0  0  0  0  0  0  0  0  0  0  0
    9.1596    1.7042   24.1381 C   0  0  0  0  0  0  0  0  0  0  0  0
   11.0456   -2.9774   18.2694 N   0  0  0  0  0  0  0  0  0  0  0  0
   10.4788   -3.0457   21.8593 C   0  0  0  0  0  0  0  0  0  0  0  0
    8.8693   -5.8099   18.4657 N   0  0  0  0  0  0  0  0  0  0  0  0
    8.9892   -0.7926   25.4573 C   0  0  0  0  0  0  0  0  0  0  0  0
   10.5677   -3.4462   20.5323 C   0  0  0  0  0  0  0  0  0  0  0  0
  1  8  1  0
  1 12  4  0
  1 14  4  0
  2  3  4  0
  2 18  4  0
  3 20  4  0
  3 22  4  0
  4 11  4  0
  4 21  4  0
  5  9  4  0
  5 16  4  0
  6 15  4  0
  6 16  4  0
  7 22  4  0
  7 26  4  0
  8 10  4  0
  8 25  4  0
  9 15  4  0
  9 17  1  0
 10 21  4  0
 11 25  4  0
 12 23  4  0
 13 20  4  0
 13 26  4  0
 14 19  4  0
 17 18  4  0
 17 24  4  0
 19 23  4  0
 20 24  4  0
 23 26  1  0
M  END
$$$$

 Created by Python create_sdf_string function

 26 30  0  0  0  0  0  0  0  0999 V2000
   10.0084   -1.8019   23.4945 C   0  0  0  0  0  0  0  0  0  0  0  0
   10.0005   -4.2520   16.5631 C   0  0  0  0  0  0  0  0  0  0  0  0
   10.2759   -4.0036   17.8845 C   0  0  0  0  0  0  0  0  0  0  0  0
    8.5652    1.5478   25.3778 N   0  0  0  0  0  0  0  0  0  0  0  0
    6.8048   -7.5457   17.8752 C   0  0  0  0  0  0  0  0  0  0  0  0
    6.1721   -8.2186   15.9886 N   0  0  0  0  0  0  0  0  0  0  0  0
   11.1764   -2.6600   19.5604 C   0  0  0  0  0  0  0  0  0  0  0  0
    9.5491   -0.6380   24.1912 C   0  0  0  0  0  0  0  0  0  0  0  0
    7.5337   -6.9256   16.9519 C   0  0  0  0  0  0  0  0  0  0  0  0
    9.6782    0.5671   23.5143 C   0  0  0  0  0  0  0  0  0  0  0  0
    8.4532    0.3482   26.0821 C   0  0  0  0  0  0  0  0  0  0  0  0
   10.4239   -1.7677   22.2230 N   0  0  0  0  0  0  0  0  0  0  0  0
    9.9468   -4.5953   20.1709 C   0  0  0  0  0  0  0  0  0  0  0  0
   10.0366   -3.0590   23.9864 N   0  0  0  0  0  0  0  0  0  0  0  0
    7.1191   -7.3636   15.7739 C   0  0  0  0  0  0  0  0  0  0  0  0
    5.9612   -8.3203   17.2732 N   0  0  0  0  0  0  0  0  0  0  0  0
    8.5296   -5.9814   17.1841 C   0  0  0  0  0  0  0  0  0  0  0  0
    9.1527   -5.2118   16.2116 C   0  0  0  0  0  0  0  0  0  0  0  0
   10.3364   -3.8368   22.9255 O   0  0  0  0  0  0  0  0  0  0  0  0
    9.6947   -4.8407   18.8534 C   0  0  0  0  0  0  0  0  0  0  0  0
    9.1596    1.7042   24.1381 C   0  0  0  0  0  0  0  0  0  0  0  0
   11.0456   -2.9774   18.2694 N   0  0  0  0  0  0  0  0  0  0  0  0
   10.4788   -3.0457   21.8593 C   0  0  0  0  0  0  0  0  0  0  0  0
    8.8693   -5.8099   18.4657 N   0  0  0  0  0  0  0  0  0  0  0  0
    8.9892   -0.7926   25.4573 C   0  0  0  0  0  0  0  0  0  0  0  0
   10.5677   -3.4462   20.5323 C   0  0  0  0  0  0  0  0  0  0  0  0
  1  8  1  0
  1 12  4  0
  1 14  4  0
  2  3  4  0
  2 18  4  0
  3 20  4  0
  3 22  4  0
  4 11  4  0
  4 21  4  0
  5  9  4  0
  5 16  4  0
  6 15  4  0
  6 16  4  0
  7 22  4  0
  7 26  4  0
  8 10  4  0
  8 25  4  0
  9 15  4  0
  9 17  1  0
 10 21  4  0
 11 25  4  0
 12 23  4  0
 13 20  4  0
 13 26  4  0
 14 19  4  0
 17 18  4  0
 17 24  4  0
 19 23  4  0
 20 24  4  0
 23 26  1  0
M  END
$$$$

 Created by Python create_sdf_string function

 26 30  0  0  0  0  0  0  0  0999 V2000
   10.0084   -1.8019   23.4945 C   0  0  0  0  0  0  0  0  0  0  0  0
   10.0005   -4.2520   16.5631 C   0  0  0  0  0  0  0  0  0  0  0  0
   10.2759   -4.0036   17.8845 C   0  0  0  0  0  0  0  0  0  0  0  0
    8.5652    1.5478   25.3778 N   0  0  0  0  0  0  0  0  0  0  0  0
    6.8048   -7.5457   17.8752 C   0  0  0  0  0  0  0  0  0  0  0  0
    6.1721   -8.2186   15.9886 N   0  0  0  0  0  0  0  0  0  0  0  0
   11.1764   -2.6600   19.5604 C   0  0  0  0  0  0  0  0  0  0  0  0
    9.5491   -0.6380   24.1912 C   0  0  0  0  0  0  0  0  0  0  0  0
    7.5337   -6.9256   16.9519 C   0  0  0  0  0  0  0  0  0  0  0  0
    9.6782    0.5671   23.5143 C   0  0  0  0  0  0  0  0  0  0  0  0
    8.4532    0.3482   26.0821 C   0  0  0  0  0  0  0  0  0  0  0  0
   10.4239   -1.7677   22.2230 N   0  0  0  0  0  0  0  0  0  0  0  0
    9.9468   -4.5953   20.1709 C   0  0  0  0  0  0  0  0  0  0  0  0
   10.0366   -3.0590   23.9864 N   0  0  0  0  0  0  0  0  0  0  0  0
    7.1191   -7.3636   15.7739 C   0  0  0  0  0  0  0  0  0  0  0  0
    5.9612   -8.3203   17.2732 N   0  0  0  0  0  0  0  0  0  0  0  0
    8.5296   -5.9814   17.1841 C   0  0  0  0  0  0  0  0  0  0  0  0
    9.1527   -5.2118   16.2116 C   0  0  0  0  0  0  0  0  0  0  0  0
   10.3364   -3.8368   22.9255 O   0  0  0  0  0  0  0  0  0  0  0  0
    9.6947   -4.8407   18.8534 C   0  0  0  0  0  0  0  0  0  0  0  0
    9.1596    1.7042   24.1381 C   0  0  0  0  0  0  0  0  0  0  0  0
   11.0456   -2.9774   18.2694 N   0  0  0  0  0  0  0  0  0  0  0  0
   10.4788   -3.0457   21.8593 C   0  0  0  0  0  0  0  0  0  0  0  0
    8.8693   -5.8099   18.4657 N   0  0  0  0  0  0  0  0  0  0  0  0
    8.9892   -0.7926   25.4573 C   0  0  0  0  0  0  0  0  0  0  0  0
   10.5677   -3.4462   20.5323 C   0  0  0  0  0  0  0  0  0  0  0  0
  1  8  1  0
  1 12  4  0
  1 14  4  0
  2  3  4  0
  2 18  4  0
  3 20  4  0
  3 22  4  0
  4 11  4  0
  4 21  4  0
  5  9  4  0
  5 16  4  0
  6 15  4  0
  6 16  4  0
  7 22  4  0
  7 26  4  0
  8 10  4  0
  8 25  4  0
  9 15  4  0
  9 17  1  0
 10 21  4  0
 11 25  4  0
 12 23  4  0
 13 20  4  0
 13 26  4  0
 14 19  4  0
 17 18  4  0
 17 24  4  0
 19 23  4  0
 20 24  4  0
 23 26  1  0
M  END
$$$$

 Created by Python create_sdf_string function

 26 30  0  0  0  0  0  0  0  0999 V2000
   10.0084   -1.8019   23.4945 C   0  0  0  0  0  0  0  0  0  0  0  0
   10.0005   -4.2520   16.5631 C   0  0  0  0  0  0  0  0  0  0  0  0
   10.2759   -4.0036   17.8845 C   0  0  0  0  0  0  0  0  0  0  0  0
    8.5652    1.5478   25.3778 N   0  0  0  0  0  0  0  0  0  0  0  0
    6.8048   -7.5457   17.8752 C   0  0  0  0  0  0  0  0  0  0  0  0
    6.1721   -8.2186   15.9886 N   0  0  0  0  0  0  0  0  0  0  0  0
   11.1764   -2.6600   19.5604 C   0  0  0  0  0  0  0  0  0  0  0  0
    9.5491   -0.6380   24.1912 C   0  0  0  0  0  0  0  0  0  0  0  0
    7.5337   -6.9256   16.9519 C   0  0  0  0  0  0  0  0  0  0  0  0
    9.6782    0.5671   23.5143 C   0  0  0  0  0  0  0  0  0  0  0  0
    8.4532    0.3482   26.0821 C   0  0  0  0  0  0  0  0  0  0  0  0
   10.4239   -1.7677   22.2230 N   0  0  0  0  0  0  0  0  0  0  0  0
    9.9468   -4.5953   20.1709 C   0  0  0  0  0  0  0  0  0  0  0  0
   10.0366   -3.0590   23.9864 N   0  0  0  0  0  0  0  0  0  0  0  0
    7.1191   -7.3636   15.7739 C   0  0  0  0  0  0  0  0  0  0  0  0
    5.9612   -8.3203   17.2732 N   0  0  0  0  0  0  0  0  0  0  0  0
    8.5296   -5.9814   17.1841 C   0  0  0  0  0  0  0  0  0  0  0  0
    9.1527   -5.2118   16.2116 C   0  0  0  0  0  0  0  0  0  0  0  0
   10.3364   -3.8368   22.9255 O   0  0  0  0  0  0  0  0  0  0  0  0
    9.6947   -4.8407   18.8534 C   0  0  0  0  0  0  0  0  0  0  0  0
    9.1596    1.7042   24.1381 C   0  0  0  0  0  0  0  0  0  0  0  0
   11.0456   -2.9774   18.2694 N   0  0  0  0  0  0  0  0  0  0  0  0
   10.4788   -3.0457   21.8593 C   0  0  0  0  0  0  0  0  0  0  0  0
    8.8693   -5.8099   18.4657 N   0  0  0  0  0  0  0  0  0  0  0  0
    8.9892   -0.7926   25.4573 C   0  0  0  0  0  0  0  0  0  0  0  0
   10.5677   -3.4462   20.5323 C   0  0  0  0  0  0  0  0  0  0  0  0
  1  8  1  0
  1 12  4  0
  1 14  4  0
  2  3  4  0
  2 18  4  0
  3 20  4  0
  3 22  4  0
  4 11  4  0
  4 21  4  0
  5  9  4  0
  5 16  4  0
  6 15  4  0
  6 16  4  0
  7 22  4  0
  7 26  4  0
  8 10  4  0
  8 25  4  0
  9 15  4  0
  9 17  1  0
 10 21  4  0
 11 25  4  0
 12 23  4  0
 13 20  4  0
 13 26  4  0
 14 19  4  0
 17 18  4  0
 17 24  4  0
 19 23  4  0
 20 24  4  0
 23 26  1  0
M  END
$$$$

 Created by Python create_sdf_string function

 26 30  0  0  0  0  0  0  0  0999 V2000
   10.0084   -1.8019   23.4945 C   0  0  0  0  0  0  0  0  0  0  0  0
   10.0005   -4.2520   16.5631 C   0  0  0  0  0  0  0  0  0  0  0  0
   10.2759   -4.0036   17.8845 C   0  0  0  0  0  0  0  0  0  0  0  0
    8.5652    1.5478   25.3778 N   0  0  0  0  0  0  0  0  0  0  0  0
    6.8048   -7.5457   17.8752 C   0  0  0  0  0  0  0  0  0  0  0  0
    6.1721   -8.2186   15.9886 N   0  0  0  0  0  0  0  0  0  0  0  0
   11.1764   -2.6600   19.5604 C   0  0  0  0  0  0  0  0  0  0  0  0
    9.5491   -0.6380   24.1912 C   0  0  0  0  0  0  0  0  0  0  0  0
    7.5337   -6.9256   16.9519 C   0  0  0  0  0  0  0  0  0  0  0  0
    9.6782    0.5671   23.5143 C   0  0  0  0  0  0  0  0  0  0  0  0
    8.4532    0.3482   26.0821 C   0  0  0  0  0  0  0  0  0  0  0  0
   10.4239   -1.7677   22.2230 N   0  0  0  0  0  0  0  0  0  0  0  0
    9.9468   -4.5953   20.1709 C   0  0  0  0  0  0  0  0  0  0  0  0
   10.0366   -3.0590   23.9864 N   0  0  0  0  0  0  0  0  0  0  0  0
    7.1191   -7.3636   15.7739 C   0  0  0  0  0  0  0  0  0  0  0  0
    5.9612   -8.3203   17.2732 N   0  0  0  0  0  0  0  0  0  0  0  0
    8.5296   -5.9814   17.1841 C   0  0  0  0  0  0  0  0  0  0  0  0
    9.1527   -5.2118   16.2116 C   0  0  0  0  0  0  0  0  0  0  0  0
   10.3364   -3.8368   22.9255 O   0  0  0  0  0  0  0  0  0  0  0  0
    9.6947   -4.8407   18.8534 C   0  0  0  0  0  0  0  0  0  0  0  0
    9.1596    1.7042   24.1381 C   0  0  0  0  0  0  0  0  0  0  0  0
   11.0456   -2.9774   18.2694 N   0  0  0  0  0  0  0  0  0  0  0  0
   10.4788   -3.0457   21.8593 C   0  0  0  0  0  0  0  0  0  0  0  0
    8.8693   -5.8099   18.4657 N   0  0  0  0  0  0  0  0  0  0  0  0
    8.9892   -0.7926   25.4573 C   0  0  0  0  0  0  0  0  0  0  0  0
   10.5677   -3.4462   20.5323 C   0  0  0  0  0  0  0  0  0  0  0  0
  1  8  1  0
  1 12  4  0
  1 14  4  0
  2  3  4  0
  2 18  4  0
  3 20  4  0
  3 22  4  0
  4 11  4  0
  4 21  4  0
  5  9  4  0
  5 16  4  0
  6 15  4  0
  6 16  4  0
  7 22  4  0
  7 26  4  0
  8 10  4  0
  8 25  4  0
  9 15  4  0
  9 17  1  0
 10 21  4  0
 11 25  4  0
 12 23  4  0
 13 20  4  0
 13 26  4  0
 14 19  4  0
 17 18  4  0
 17 24  4  0
 19 23  4  0
 20 24  4  0
 23 26  1  0
M  END
$$$$

 Created by Python create_sdf_string function

 26 30  0  0  0  0  0  0  0  0999 V2000
   10.0084   -1.8019   23.4945 C   0  0  0  0  0  0  0  0  0  0  0  0
   10.0005   -4.2520   16.5631 C   0  0  0  0  0  0  0  0  0  0  0  0
   10.2759   -4.0036   17.8845 C   0  0  0  0  0  0  0  0  0  0  0  0
    8.5652    1.5478   25.3778 N   0  0  0  0  0  0  0  0  0  0  0  0
    6.8048   -7.5457   17.8752 C   0  0  0  0  0  0  0  0  0  0  0  0
    6.1721   -8.2186   15.9886 N   0  0  0  0  0  0  0  0  0  0  0  0
   11.1764   -2.6600   19.5604 C   0  0  0  0  0  0  0  0  0  0  0  0
    9.5491   -0.6380   24.1912 C   0  0  0  0  0  0  0  0  0  0  0  0
    7.5337   -6.9256   16.9519 C   0  0  0  0  0  0  0  0  0  0  0  0
    9.6782    0.5671   23.5143 C   0  0  0  0  0  0  0  0  0  0  0  0
    8.4532    0.3482   26.0821 C   0  0  0  0  0  0  0  0  0  0  0  0
   10.4239   -1.7677   22.2230 N   0  0  0  0  0  0  0  0  0  0  0  0
    9.9468   -4.5953   20.1709 C   0  0  0  0  0  0  0  0  0  0  0  0
   10.0366   -3.0590   23.9864 N   0  0  0  0  0  0  0  0  0  0  0  0
    7.1191   -7.3636   15.7739 C   0  0  0  0  0  0  0  0  0  0  0  0
    5.9612   -8.3203   17.2732 N   0  0  0  0  0  0  0  0  0  0  0  0
    8.5296   -5.9814   17.1841 C   0  0  0  0  0  0  0  0  0  0  0  0
    9.1527   -5.2118   16.2116 C   0  0  0  0  0  0  0  0  0  0  0  0
   10.3364   -3.8368   22.9255 O   0  0  0  0  0  0  0  0  0  0  0  0
    9.6947   -4.8407   18.8534 C   0  0  0  0  0  0  0  0  0  0  0  0
    9.1596    1.7042   24.1381 C   0  0  0  0  0  0  0  0  0  0  0  0
   11.0456   -2.9774   18.2694 N   0  0  0  0  0  0  0  0  0  0  0  0
   10.4788   -3.0457   21.8593 C   0  0  0  0  0  0  0  0  0  0  0  0
    8.8693   -5.8099   18.4657 N   0  0  0  0  0  0  0  0  0  0  0  0
    8.9892   -0.7926   25.4573 C   0  0  0  0  0  0  0  0  0  0  0  0
   10.5677   -3.4462   20.5323 C   0  0  0  0  0  0  0  0  0  0  0  0
  1  8  1  0
  1 12  4  0
  1 14  4  0
  2  3  4  0
  2 18  4  0
  3 20  4  0
  3 22  4  0
  4 11  4  0
  4 21  4  0
  5  9  4  0
  5 16  4  0
  6 15  4  0
  6 16  4  0
  7 22  4  0
  7 26  4  0
  8 10  4  0
  8 25  4  0
  9 15  4  0
  9 17  1  0
 10 21  4  0
 11 25  4  0
 12 23  4  0
 13 20  4  0
 13 26  4  0
 14 19  4  0
 17 18  4  0
 17 24  4  0
 19 23  4  0
 20 24  4  0
 23 26  1  0
M  END
$$$$

 Created by Python create_sdf_string function

 26 30  0  0  0  0  0  0  0  0999 V2000
   10.0084   -1.8019   23.4945 C   0  0  0  0  0  0  0  0  0  0  0  0
   10.0005   -4.2520   16.5631 C   0  0  0  0  0  0  0  0  0  0  0  0
   10.2759   -4.0036   17.8845 C   0  0  0  0  0  0  0  0  0  0  0  0
    8.5652    1.5478   25.3778 N   0  0  0  0  0  0  0  0  0  0  0  0
    6.8048   -7.5457   17.8752 C   0  0  0  0  0  0  0  0  0  0  0  0
    6.1721   -8.2186   15.9886 N   0  0  0  0  0  0  0  0  0  0  0  0
   11.1764   -2.6600   19.5604 C   0  0  0  0  0  0  0  0  0  0  0  0
    9.5491   -0.6380   24.1912 C   0  0  0  0  0  0  0  0  0  0  0  0
    7.5337   -6.9256   16.9519 C   0  0  0  0  0  0  0  0  0  0  0  0
    9.6782    0.5671   23.5143 C   0  0  0  0  0  0  0  0  0  0  0  0
    8.4532    0.3482   26.0821 C   0  0  0  0  0  0  0  0  0  0  0  0
   10.4239   -1.7677   22.2230 N   0  0  0  0  0  0  0  0  0  0  0  0
    9.9468   -4.5953   20.1709 C   0  0  0  0  0  0  0  0  0  0  0  0
   10.0366   -3.0590   23.9864 N   0  0  0  0  0  0  0  0  0  0  0  0
    7.1191   -7.3636   15.7739 C   0  0  0  0  0  0  0  0  0  0  0  0
    5.9612   -8.3203   17.2732 N   0  0  0  0  0  0  0  0  0  0  0  0
    8.5296   -5.9814   17.1841 C   0  0  0  0  0  0  0  0  0  0  0  0
    9.1527   -5.2118   16.2116 C   0  0  0  0  0  0  0  0  0  0  0  0
   10.3364   -3.8368   22.9255 O   0  0  0  0  0  0  0  0  0  0  0  0
    9.6947   -4.8407   18.8534 C   0  0  0  0  0  0  0  0  0  0  0  0
    9.1596    1.7042   24.1381 C   0  0  0  0  0  0  0  0  0  0  0  0
   11.0456   -2.9774   18.2694 N   0  0  0  0  0  0  0  0  0  0  0  0
   10.4788   -3.0457   21.8593 C   0  0  0  0  0  0  0  0  0  0  0  0
    8.8693   -5.8099   18.4657 N   0  0  0  0  0  0  0  0  0  0  0  0
    8.9892   -0.7926   25.4573 C   0  0  0  0  0  0  0  0  0  0  0  0
   10.5677   -3.4462   20.5323 C   0  0  0  0  0  0  0  0  0  0  0  0
  1  8  1  0
  1 12  4  0
  1 14  4  0
  2  3  4  0
  2 18  4  0
  3 20  4  0
  3 22  4  0
  4 11  4  0
  4 21  4  0
  5  9  4  0
  5 16  4  0
  6 15  4  0
  6 16  4  0
  7 22  4  0
  7 26  4  0
  8 10  4  0
  8 25  4  0
  9 15  4  0
  9 17  1  0
 10 21  4  0
 11 25  4  0
 12 23  4  0
 13 20  4  0
 13 26  4  0
 14 19  4  0
 17 18  4  0
 17 24  4  0
 19 23  4  0
 20 24  4  0
 23 26  1  0
M  END
$$$$

 Created by Python create_sdf_string function

 26 30  0  0  0  0  0  0  0  0999 V2000
   10.0084   -1.8019   23.4945 C   0  0  0  0  0  0  0  0  0  0  0  0
   10.0005   -4.2520   16.5631 C   0  0  0  0  0  0  0  0  0  0  0  0
   10.2759   -4.0036   17.8845 C   0  0  0  0  0  0  0  0  0  0  0  0
    8.5652    1.5478   25.3778 N   0  0  0  0  0  0  0  0  0  0  0  0
    6.8048   -7.5457   17.8752 C   0  0  0  0  0  0  0  0  0  0  0  0
    6.1721   -8.2186   15.9886 N   0  0  0  0  0  0  0  0  0  0  0  0
   11.1764   -2.6600   19.5604 C   0  0  0  0  0  0  0  0  0  0  0  0
    9.5491   -0.6380   24.1912 C   0  0  0  0  0  0  0  0  0  0  0  0
    7.5337   -6.9256   16.9519 C   0  0  0  0  0  0  0  0  0  0  0  0
    9.6782    0.5671   23.5143 C   0  0  0  0  0  0  0  0  0  0  0  0
    8.4532    0.3482   26.0821 C   0  0  0  0  0  0  0  0  0  0  0  0
   10.4239   -1.7677   22.2230 N   0  0  0  0  0  0  0  0  0  0  0  0
    9.9468   -4.5953   20.1709 C   0  0  0  0  0  0  0  0  0  0  0  0
   10.0366   -3.0590   23.9864 N   0  0  0  0  0  0  0  0  0  0  0  0
    7.1191   -7.3636   15.7739 C   0  0  0  0  0  0  0  0  0  0  0  0
    5.9612   -8.3203   17.2732 N   0  0  0  0  0  0  0  0  0  0  0  0
    8.5296   -5.9814   17.1841 C   0  0  0  0  0  0  0  0  0  0  0  0
    9.1527   -5.2118   16.2116 C   0  0  0  0  0  0  0  0  0  0  0  0
   10.3364   -3.8368   22.9255 O   0  0  0  0  0  0  0  0  0  0  0  0
    9.6947   -4.8407   18.8534 C   0  0  0  0  0  0  0  0  0  0  0  0
    9.1596    1.7042   24.1381 C   0  0  0  0  0  0  0  0  0  0  0  0
   11.0456   -2.9774   18.2694 N   0  0  0  0  0  0  0  0  0  0  0  0
   10.4788   -3.0457   21.8593 C   0  0  0  0  0  0  0  0  0  0  0  0
    8.8693   -5.8099   18.4657 N   0  0  0  0  0  0  0  0  0  0  0  0
    8.9892   -0.7926   25.4573 C   0  0  0  0  0  0  0  0  0  0  0  0
   10.5677   -3.4462   20.5323 C   0  0  0  0  0  0  0  0  0  0  0  0
  1  8  1  0
  1 12  4  0
  1 14  4  0
  2  3  4  0
  2 18  4  0
  3 20  4  0
  3 22  4  0
  4 11  4  0
  4 21  4  0
  5  9  4  0
  5 16  4  0
  6 15  4  0
  6 16  4  0
  7 22  4  0
  7 26  4  0
  8 10  4  0
  8 25  4  0
  9 15  4  0
  9 17  1  0
 10 21  4  0
 11 25  4  0
 12 23  4  0
 13 20  4  0
 13 26  4  0
 14 19  4  0
 17 18  4  0
 17 24  4  0
 19 23  4  0
 20 24  4  0
 23 26  1  0
M  END
$$$$

 Created by Python create_sdf_string function

 26 30  0  0  0  0  0  0  0  0999 V2000
   10.0084   -1.8019   23.4945 C   0  0  0  0  0  0  0  0  0  0  0  0
   10.0005   -4.2520   16.5631 C   0  0  0  0  0  0  0  0  0  0  0  0
   10.2759   -4.0036   17.8845 C   0  0  0  0  0  0  0  0  0  0  0  0
    8.5652    1.5478   25.3778 N   0  0  0  0  0  0  0  0  0  0  0  0
    6.8048   -7.5457   17.8752 C   0  0  0  0  0  0  0  0  0  0  0  0
    6.1721   -8.2186   15.9886 N   0  0  0  0  0  0  0  0  0  0  0  0
   11.1764   -2.6600   19.5604 C   0  0  0  0  0  0  0  0  0  0  0  0
    9.5491   -0.6380   24.1912 C   0  0  0  0  0  0  0  0  0  0  0  0
    7.5337   -6.9256   16.9519 C   0  0  0  0  0  0  0  0  0  0  0  0
    9.6782    0.5671   23.5143 C   0  0  0  0  0  0  0  0  0  0  0  0
    8.4532    0.3482   26.0821 C   0  0  0  0  0  0  0  0  0  0  0  0
   10.4239   -1.7677   22.2230 N   0  0  0  0  0  0  0  0  0  0  0  0
    9.9468   -4.5953   20.1709 C   0  0  0  0  0  0  0  0  0  0  0  0
   10.0366   -3.0590   23.9864 N   0  0  0  0  0  0  0  0  0  0  0  0
    7.1191   -7.3636   15.7739 C   0  0  0  0  0  0  0  0  0  0  0  0
    5.9612   -8.3203   17.2732 N   0  0  0  0  0  0  0  0  0  0  0  0
    8.5296   -5.9814   17.1841 C   0  0  0  0  0  0  0  0  0  0  0  0
    9.1527   -5.2118   16.2116 C   0  0  0  0  0  0  0  0  0  0  0  0
   10.3364   -3.8368   22.9255 O   0  0  0  0  0  0  0  0  0  0  0  0
    9.6947   -4.8407   18.8534 C   0  0  0  0  0  0  0  0  0  0  0  0
    9.1596    1.7042   24.1381 C   0  0  0  0  0  0  0  0  0  0  0  0
   11.0456   -2.9774   18.2694 N   0  0  0  0  0  0  0  0  0  0  0  0
   10.4788   -3.0457   21.8593 C   0  0  0  0  0  0  0  0  0  0  0  0
    8.8693   -5.8099   18.4657 N   0  0  0  0  0  0  0  0  0  0  0  0
    8.9892   -0.7926   25.4573 C   0  0  0  0  0  0  0  0  0  0  0  0
   10.5677   -3.4462   20.5323 C   0  0  0  0  0  0  0  0  0  0  0  0
  1  8  1  0
  1 12  4  0
  1 14  4  0
  2  3  4  0
  2 18  4  0
  3 20  4  0
  3 22  4  0
  4 11  4  0
  4 21  4  0
  5  9  4  0
  5 16  4  0
  6 15  4  0
  6 16  4  0
  7 22  4  0
  7 26  4  0
  8 10  4  0
  8 25  4  0
  9 15  4  0
  9 17  1  0
 10 21  4  0
 11 25  4  0
 12 23  4  0
 13 20  4  0
 13 26  4  0
 14 19  4  0
 17 18  4  0
 17 24  4  0
 19 23  4  0
 20 24  4  0
 23 26  1  0
M  END
$$$$

 Created by Python create_sdf_string function

 26 30  0  0  0  0  0  0  0  0999 V2000
   10.0084   -1.8019   23.4945 C   0  0  0  0  0  0  0  0  0  0  0  0
   10.0005   -4.2520   16.5631 C   0  0  0  0  0  0  0  0  0  0  0  0
   10.2759   -4.0036   17.8845 C   0  0  0  0  0  0  0  0  0  0  0  0
    8.5652    1.5478   25.3778 N   0  0  0  0  0  0  0  0  0  0  0  0
    6.8048   -7.5457   17.8752 C   0  0  0  0  0  0  0  0  0  0  0  0
    6.1721   -8.2186   15.9886 N   0  0  0  0  0  0  0  0  0  0  0  0
   11.1764   -2.6600   19.5604 C   0  0  0  0  0  0  0  0  0  0  0  0
    9.5491   -0.6380   24.1912 C   0  0  0  0  0  0  0  0  0  0  0  0
    7.5337   -6.9256   16.9519 C   0  0  0  0  0  0  0  0  0  0  0  0
    9.6782    0.5671   23.5143 C   0  0  0  0  0  0  0  0  0  0  0  0
    8.4532    0.3482   26.0821 C   0  0  0  0  0  0  0  0  0  0  0  0
   10.4239   -1.7677   22.2230 N   0  0  0  0  0  0  0  0  0  0  0  0
    9.9468   -4.5953   20.1709 C   0  0  0  0  0  0  0  0  0  0  0  0
   10.0366   -3.0590   23.9864 N   0  0  0  0  0  0  0  0  0  0  0  0
    7.1191   -7.3636   15.7739 C   0  0  0  0  0  0  0  0  0  0  0  0
    5.9612   -8.3203   17.2732 N   0  0  0  0  0  0  0  0  0  0  0  0
    8.5296   -5.9814   17.1841 C   0  0  0  0  0  0  0  0  0  0  0  0
    9.1527   -5.2118   16.2116 C   0  0  0  0  0  0  0  0  0  0  0  0
   10.3364   -3.8368   22.9255 O   0  0  0  0  0  0  0  0  0  0  0  0
    9.6947   -4.8407   18.8534 C   0  0  0  0  0  0  0  0  0  0  0  0
    9.1596    1.7042   24.1381 C   0  0  0  0  0  0  0  0  0  0  0  0
   11.0456   -2.9774   18.2694 N   0  0  0  0  0  0  0  0  0  0  0  0
   10.4788   -3.0457   21.8593 C   0  0  0  0  0  0  0  0  0  0  0  0
    8.8693   -5.8099   18.4657 N   0  0  0  0  0  0  0  0  0  0  0  0
    8.9892   -0.7926   25.4573 C   0  0  0  0  0  0  0  0  0  0  0  0
   10.5677   -3.4462   20.5323 C   0  0  0  0  0  0  0  0  0  0  0  0
  1  8  1  0
  1 12  4  0
  1 14  4  0
  2  3  4  0
  2 18  4  0
  3 20  4  0
  3 22  4  0
  4 11  4  0
  4 21  4  0
  5  9  4  0
  5 16  4  0
  6 15  4  0
  6 16  4  0
  7 22  4  0
  7 26  4  0
  8 10  4  0
  8 25  4  0
  9 15  4  0
  9 17  1  0
 10 21  4  0
 11 25  4  0
 12 23  4  0
 13 20  4  0
 13 26  4  0
 14 19  4  0
 17 18  4  0
 17 24  4  0
 19 23  4  0
 20 24  4  0
 23 26  1  0
M  END
$$$$

 Created by Python create_sdf_string function

 26 30  0  0  0  0  0  0  0  0999 V2000
   10.0084   -1.8019   23.4945 C   0  0  0  0  0  0  0  0  0  0  0  0
   10.0005   -4.2520   16.5631 C   0  0  0  0  0  0  0  0  0  0  0  0
   10.2759   -4.0036   17.8845 C   0  0  0  0  0  0  0  0  0  0  0  0
    8.5652    1.5478   25.3778 N   0  0  0  0  0  0  0  0  0  0  0  0
    6.8048   -7.5457   17.8752 C   0  0  0  0  0  0  0  0  0  0  0  0
    6.1721   -8.2186   15.9886 N   0  0  0  0  0  0  0  0  0  0  0  0
   11.1764   -2.6600   19.5604 C   0  0  0  0  0  0  0  0  0  0  0  0
    9.5491   -0.6380   24.1912 C   0  0  0  0  0  0  0  0  0  0  0  0
    7.5337   -6.9256   16.9519 C   0  0  0  0  0  0  0  0  0  0  0  0
    9.6782    0.5671   23.5143 C   0  0  0  0  0  0  0  0  0  0  0  0
    8.4532    0.3482   26.0821 C   0  0  0  0  0  0  0  0  0  0  0  0
   10.4239   -1.7677   22.2230 N   0  0  0  0  0  0  0  0  0  0  0  0
    9.9468   -4.5953   20.1709 C   0  0  0  0  0  0  0  0  0  0  0  0
   10.0366   -3.0590   23.9864 N   0  0  0  0  0  0  0  0  0  0  0  0
    7.1191   -7.3636   15.7739 C   0  0  0  0  0  0  0  0  0  0  0  0
    5.9612   -8.3203   17.2732 N   0  0  0  0  0  0  0  0  0  0  0  0
    8.5296   -5.9814   17.1841 C   0  0  0  0  0  0  0  0  0  0  0  0
    9.1527   -5.2118   16.2116 C   0  0  0  0  0  0  0  0  0  0  0  0
   10.3364   -3.8368   22.9255 O   0  0  0  0  0  0  0  0  0  0  0  0
    9.6947   -4.8407   18.8534 C   0  0  0  0  0  0  0  0  0  0  0  0
    9.1596    1.7042   24.1381 C   0  0  0  0  0  0  0  0  0  0  0  0
   11.0456   -2.9774   18.2694 N   0  0  0  0  0  0  0  0  0  0  0  0
   10.4788   -3.0457   21.8593 C   0  0  0  0  0  0  0  0  0  0  0  0
    8.8693   -5.8099   18.4657 N   0  0  0  0  0  0  0  0  0  0  0  0
    8.9892   -0.7926   25.4573 C   0  0  0  0  0  0  0  0  0  0  0  0
   10.5677   -3.4462   20.5323 C   0  0  0  0  0  0  0  0  0  0  0  0
  1  8  1  0
  1 12  4  0
  1 14  4  0
  2  3  4  0
  2 18  4  0
  3 20  4  0
  3 22  4  0
  4 11  4  0
  4 21  4  0
  5  9  4  0
  5 16  4  0
  6 15  4  0
  6 16  4  0
  7 22  4  0
  7 26  4  0
  8 10  4  0
  8 25  4  0
  9 15  4  0
  9 17  1  0
 10 21  4  0
 11 25  4  0
 12 23  4  0
 13 20  4  0
 13 26  4  0
 14 19  4  0
 17 18  4  0
 17 24  4  0
 19 23  4  0
 20 24  4  0
 23 26  1  0
M  END
$$$$

 Created by Python create_sdf_string function

 26 30  0  0  0  0  0  0  0  0999 V2000
   10.0084   -1.8019   23.4945 C   0  0  0  0  0  0  0  0  0  0  0  0
   10.0005   -4.2520   16.5631 C   0  0  0  0  0  0  0  0  0  0  0  0
   10.2759   -4.0036   17.8845 C   0  0  0  0  0  0  0  0  0  0  0  0
    8.5652    1.5478   25.3778 N   0  0  0  0  0  0  0  0  0  0  0  0
    6.8048   -7.5457   17.8752 C   0  0  0  0  0  0  0  0  0  0  0  0
    6.1721   -8.2186   15.9886 N   0  0  0  0  0  0  0  0  0  0  0  0
   11.1764   -2.6600   19.5604 C   0  0  0  0  0  0  0  0  0  0  0  0
    9.5491   -0.6380   24.1912 C   0  0  0  0  0  0  0  0  0  0  0  0
    7.5337   -6.9256   16.9519 C   0  0  0  0  0  0  0  0  0  0  0  0
    9.6782    0.5671   23.5143 C   0  0  0  0  0  0  0  0  0  0  0  0
    8.4532    0.3482   26.0821 C   0  0  0  0  0  0  0  0  0  0  0  0
   10.4239   -1.7677   22.2230 N   0  0  0  0  0  0  0  0  0  0  0  0
    9.9468   -4.5953   20.1709 C   0  0  0  0  0  0  0  0  0  0  0  0
   10.0366   -3.0590   23.9864 N   0  0  0  0  0  0  0  0  0  0  0  0
    7.1191   -7.3636   15.7739 C   0  0  0  0  0  0  0  0  0  0  0  0
    5.9612   -8.3203   17.2732 N   0  0  0  0  0  0  0  0  0  0  0  0
    8.5296   -5.9814   17.1841 C   0  0  0  0  0  0  0  0  0  0  0  0
    9.1527   -5.2118   16.2116 C   0  0  0  0  0  0  0  0  0  0  0  0
   10.3364   -3.8368   22.9255 O   0  0  0  0  0  0  0  0  0  0  0  0
    9.6947   -4.8407   18.8534 C   0  0  0  0  0  0  0  0  0  0  0  0
    9.1596    1.7042   24.1381 C   0  0  0  0  0  0  0  0  0  0  0  0
   11.0456   -2.9774   18.2694 N   0  0  0  0  0  0  0  0  0  0  0  0
   10.4788   -3.0457   21.8593 C   0  0  0  0  0  0  0  0  0  0  0  0
    8.8693   -5.8099   18.4657 N   0  0  0  0  0  0  0  0  0  0  0  0
    8.9892   -0.7926   25.4573 C   0  0  0  0  0  0  0  0  0  0  0  0
   10.5677   -3.4462   20.5323 C   0  0  0  0  0  0  0  0  0  0  0  0
  1  8  1  0
  1 12  4  0
  1 14  4  0
  2  3  4  0
  2 18  4  0
  3 20  4  0
  3 22  4  0
  4 11  4  0
  4 21  4  0
  5  9  4  0
  5 16  4  0
  6 15  4  0
  6 16  4  0
  7 22  4  0
  7 26  4  0
  8 10  4  0
  8 25  4  0
  9 15  4  0
  9 17  1  0
 10 21  4  0
 11 25  4  0
 12 23  4  0
 13 20  4  0
 13 26  4  0
 14 19  4  0
 17 18  4  0
 17 24  4  0
 19 23  4  0
 20 24  4  0
 23 26  1  0
M  END
$$$$

 Created by Python create_sdf_string function

 26 30  0  0  0  0  0  0  0  0999 V2000
   10.0084   -1.8019   23.4945 C   0  0  0  0  0  0  0  0  0  0  0  0
   10.0005   -4.2520   16.5631 C   0  0  0  0  0  0  0  0  0  0  0  0
   10.2759   -4.0036   17.8845 C   0  0  0  0  0  0  0  0  0  0  0  0
    8.5652    1.5478   25.3778 N   0  0  0  0  0  0  0  0  0  0  0  0
    6.8048   -7.5457   17.8752 C   0  0  0  0  0  0  0  0  0  0  0  0
    6.1721   -8.2186   15.9886 N   0  0  0  0  0  0  0  0  0  0  0  0
   11.1764   -2.6600   19.5604 C   0  0  0  0  0  0  0  0  0  0  0  0
    9.5491   -0.6380   24.1912 C   0  0  0  0  0  0  0  0  0  0  0  0
    7.5337   -6.9256   16.9519 C   0  0  0  0  0  0  0  0  0  0  0  0
    9.6782    0.5671   23.5143 C   0  0  0  0  0  0  0  0  0  0  0  0
    8.4532    0.3482   26.0821 C   0  0  0  0  0  0  0  0  0  0  0  0
   10.4239   -1.7677   22.2230 N   0  0  0  0  0  0  0  0  0  0  0  0
    9.9468   -4.5953   20.1709 C   0  0  0  0  0  0  0  0  0  0  0  0
   10.0366   -3.0590   23.9864 N   0  0  0  0  0  0  0  0  0  0  0  0
    7.1191   -7.3636   15.7739 C   0  0  0  0  0  0  0  0  0  0  0  0
    5.9612   -8.3203   17.2732 N   0  0  0  0  0  0  0  0  0  0  0  0
    8.5296   -5.9814   17.1841 C   0  0  0  0  0  0  0  0  0  0  0  0
    9.1527   -5.2118   16.2116 C   0  0  0  0  0  0  0  0  0  0  0  0
   10.3364   -3.8368   22.9255 O   0  0  0  0  0  0  0  0  0  0  0  0
    9.6947   -4.8407   18.8534 C   0  0  0  0  0  0  0  0  0  0  0  0
    9.1596    1.7042   24.1381 C   0  0  0  0  0  0  0  0  0  0  0  0
   11.0456   -2.9774   18.2694 N   0  0  0  0  0  0  0  0  0  0  0  0
   10.4788   -3.0457   21.8593 C   0  0  0  0  0  0  0  0  0  0  0  0
    8.8693   -5.8099   18.4657 N   0  0  0  0  0  0  0  0  0  0  0  0
    8.9892   -0.7926   25.4573 C   0  0  0  0  0  0  0  0  0  0  0  0
   10.5677   -3.4462   20.5323 C   0  0  0  0  0  0  0  0  0  0  0  0
  1  8  1  0
  1 12  4  0
  1 14  4  0
  2  3  4  0
  2 18  4  0
  3 20  4  0
  3 22  4  0
  4 11  4  0
  4 21  4  0
  5  9  4  0
  5 16  4  0
  6 15  4  0
  6 16  4  0
  7 22  4  0
  7 26  4  0
  8 10  4  0
  8 25  4  0
  9 15  4  0
  9 17  1  0
 10 21  4  0
 11 25  4  0
 12 23  4  0
 13 20  4  0
 13 26  4  0
 14 19  4  0
 17 18  4  0
 17 24  4  0
 19 23  4  0
 20 24  4  0
 23 26  1  0
M  END
$$$$

 Created by Python create_sdf_string function

 26 30  0  0  0  0  0  0  0  0999 V2000
   10.0084   -1.8019   23.4945 C   0  0  0  0  0  0  0  0  0  0  0  0
   10.0005   -4.2520   16.5631 C   0  0  0  0  0  0  0  0  0  0  0  0
   10.2759   -4.0036   17.8845 C   0  0  0  0  0  0  0  0  0  0  0  0
    8.5652    1.5478   25.3778 N   0  0  0  0  0  0  0  0  0  0  0  0
    6.8048   -7.5457   17.8752 C   0  0  0  0  0  0  0  0  0  0  0  0
    6.1721   -8.2186   15.9886 N   0  0  0  0  0  0  0  0  0  0  0  0
   11.1764   -2.6600   19.5604 C   0  0  0  0  0  0  0  0  0  0  0  0
    9.5491   -0.6380   24.1912 C   0  0  0  0  0  0  0  0  0  0  0  0
    7.5337   -6.9256   16.9519 C   0  0  0  0  0  0  0  0  0  0  0  0
    9.6782    0.5671   23.5143 C   0  0  0  0  0  0  0  0  0  0  0  0
    8.4532    0.3482   26.0821 C   0  0  0  0  0  0  0  0  0  0  0  0
   10.4239   -1.7677   22.2230 N   0  0  0  0  0  0  0  0  0  0  0  0
    9.9468   -4.5953   20.1709 C   0  0  0  0  0  0  0  0  0  0  0  0
   10.0366   -3.0590   23.9864 N   0  0  0  0  0  0  0  0  0  0  0  0
    7.1191   -7.3636   15.7739 C   0  0  0  0  0  0  0  0  0  0  0  0
    5.9612   -8.3203   17.2732 N   0  0  0  0  0  0  0  0  0  0  0  0
    8.5296   -5.9814   17.1841 C   0  0  0  0  0  0  0  0  0  0  0  0
    9.1527   -5.2118   16.2116 C   0  0  0  0  0  0  0  0  0  0  0  0
   10.3364   -3.8368   22.9255 O   0  0  0  0  0  0  0  0  0  0  0  0
    9.6947   -4.8407   18.8534 C   0  0  0  0  0  0  0  0  0  0  0  0
    9.1596    1.7042   24.1381 C   0  0  0  0  0  0  0  0  0  0  0  0
   11.0456   -2.9774   18.2694 N   0  0  0  0  0  0  0  0  0  0  0  0
   10.4788   -3.0457   21.8593 C   0  0  0  0  0  0  0  0  0  0  0  0
    8.8693   -5.8099   18.4657 N   0  0  0  0  0  0  0  0  0  0  0  0
    8.9892   -0.7926   25.4573 C   0  0  0  0  0  0  0  0  0  0  0  0
   10.5677   -3.4462   20.5323 C   0  0  0  0  0  0  0  0  0  0  0  0
  1  8  1  0
  1 12  4  0
  1 14  4  0
  2  3  4  0
  2 18  4  0
  3 20  4  0
  3 22  4  0
  4 11  4  0
  4 21  4  0
  5  9  4  0
  5 16  4  0
  6 15  4  0
  6 16  4  0
  7 22  4  0
  7 26  4  0
  8 10  4  0
  8 25  4  0
  9 15  4  0
  9 17  1  0
 10 21  4  0
 11 25  4  0
 12 23  4  0
 13 20  4  0
 13 26  4  0
 14 19  4  0
 17 18  4  0
 17 24  4  0
 19 23  4  0
 20 24  4  0
 23 26  1  0
M  END
$$$$

 Created by Python create_sdf_string function

 26 30  0  0  0  0  0  0  0  0999 V2000
   10.0084   -1.8019   23.4945 C   0  0  0  0  0  0  0  0  0  0  0  0
   10.0005   -4.2520   16.5631 C   0  0  0  0  0  0  0  0  0  0  0  0
   10.2759   -4.0036   17.8845 C   0  0  0  0  0  0  0  0  0  0  0  0
    8.5652    1.5478   25.3778 N   0  0  0  0  0  0  0  0  0  0  0  0
    6.8048   -7.5457   17.8752 C   0  0  0  0  0  0  0  0  0  0  0  0
    6.1721   -8.2186   15.9886 N   0  0  0  0  0  0  0  0  0  0  0  0
   11.1764   -2.6600   19.5604 C   0  0  0  0  0  0  0  0  0  0  0  0
    9.5491   -0.6380   24.1912 C   0  0  0  0  0  0  0  0  0  0  0  0
    7.5337   -6.9256   16.9519 C   0  0  0  0  0  0  0  0  0  0  0  0
    9.6782    0.5671   23.5143 C   0  0  0  0  0  0  0  0  0  0  0  0
    8.4532    0.3482   26.0821 C   0  0  0  0  0  0  0  0  0  0  0  0
   10.4239   -1.7677   22.2230 N   0  0  0  0  0  0  0  0  0  0  0  0
    9.9468   -4.5953   20.1709 C   0  0  0  0  0  0  0  0  0  0  0  0
   10.0366   -3.0590   23.9864 N   0  0  0  0  0  0  0  0  0  0  0  0
    7.1191   -7.3636   15.7739 C   0  0  0  0  0  0  0  0  0  0  0  0
    5.9612   -8.3203   17.2732 N   0  0  0  0  0  0  0  0  0  0  0  0
    8.5296   -5.9814   17.1841 C   0  0  0  0  0  0  0  0  0  0  0  0
    9.1527   -5.2118   16.2116 C   0  0  0  0  0  0  0  0  0  0  0  0
   10.3364   -3.8368   22.9255 O   0  0  0  0  0  0  0  0  0  0  0  0
    9.6947   -4.8407   18.8534 C   0  0  0  0  0  0  0  0  0  0  0  0
    9.1596    1.7042   24.1381 C   0  0  0  0  0  0  0  0  0  0  0  0
   11.0456   -2.9774   18.2694 N   0  0  0  0  0  0  0  0  0  0  0  0
   10.4788   -3.0457   21.8593 C   0  0  0  0  0  0  0  0  0  0  0  0
    8.8693   -5.8099   18.4657 N   0  0  0  0  0  0  0  0  0  0  0  0
    8.9892   -0.7926   25.4573 C   0  0  0  0  0  0  0  0  0  0  0  0
   10.5677   -3.4462   20.5323 C   0  0  0  0  0  0  0  0  0  0  0  0
  1  8  1  0
  1 12  4  0
  1 14  4  0
  2  3  4  0
  2 18  4  0
  3 20  4  0
  3 22  4  0
  4 11  4  0
  4 21  4  0
  5  9  4  0
  5 16  4  0
  6 15  4  0
  6 16  4  0
  7 22  4  0
  7 26  4  0
  8 10  4  0
  8 25  4  0
  9 15  4  0
  9 17  1  0
 10 21  4  0
 11 25  4  0
 12 23  4  0
 13 20  4  0
 13 26  4  0
 14 19  4  0
 17 18  4  0
 17 24  4  0
 19 23  4  0
 20 24  4  0
 23 26  1  0
M  END
$$$$

 Created by Python create_sdf_string function

 26 30  0  0  0  0  0  0  0  0999 V2000
   10.0084   -1.8019   23.4945 C   0  0  0  0  0  0  0  0  0  0  0  0
   10.0005   -4.2520   16.5631 C   0  0  0  0  0  0  0  0  0  0  0  0
   10.2759   -4.0036   17.8845 C   0  0  0  0  0  0  0  0  0  0  0  0
    8.5652    1.5478   25.3778 N   0  0  0  0  0  0  0  0  0  0  0  0
    6.8048   -7.5457   17.8752 C   0  0  0  0  0  0  0  0  0  0  0  0
    6.1721   -8.2186   15.9886 N   0  0  0  0  0  0  0  0  0  0  0  0
   11.1764   -2.6600   19.5604 C   0  0  0  0  0  0  0  0  0  0  0  0
    9.5491   -0.6380   24.1912 C   0  0  0  0  0  0  0  0  0  0  0  0
    7.5337   -6.9256   16.9519 C   0  0  0  0  0  0  0  0  0  0  0  0
    9.6782    0.5671   23.5143 C   0  0  0  0  0  0  0  0  0  0  0  0
    8.4532    0.3482   26.0821 C   0  0  0  0  0  0  0  0  0  0  0  0
   10.4239   -1.7677   22.2230 N   0  0  0  0  0  0  0  0  0  0  0  0
    9.9468   -4.5953   20.1709 C   0  0  0  0  0  0  0  0  0  0  0  0
   10.0366   -3.0590   23.9864 N   0  0  0  0  0  0  0  0  0  0  0  0
    7.1191   -7.3636   15.7739 C   0  0  0  0  0  0  0  0  0  0  0  0
    5.9612   -8.3203   17.2732 N   0  0  0  0  0  0  0  0  0  0  0  0
    8.5296   -5.9814   17.1841 C   0  0  0  0  0  0  0  0  0  0  0  0
    9.1527   -5.2118   16.2116 C   0  0  0  0  0  0  0  0  0  0  0  0
   10.3364   -3.8368   22.9255 O   0  0  0  0  0  0  0  0  0  0  0  0
    9.6947   -4.8407   18.8534 C   0  0  0  0  0  0  0  0  0  0  0  0
    9.1596    1.7042   24.1381 C   0  0  0  0  0  0  0  0  0  0  0  0
   11.0456   -2.9774   18.2694 N   0  0  0  0  0  0  0  0  0  0  0  0
   10.4788   -3.0457   21.8593 C   0  0  0  0  0  0  0  0  0  0  0  0
    8.8693   -5.8099   18.4657 N   0  0  0  0  0  0  0  0  0  0  0  0
    8.9892   -0.7926   25.4573 C   0  0  0  0  0  0  0  0  0  0  0  0
   10.5677   -3.4462   20.5323 C   0  0  0  0  0  0  0  0  0  0  0  0
  1  8  1  0
  1 12  4  0
  1 14  4  0
  2  3  4  0
  2 18  4  0
  3 20  4  0
  3 22  4  0
  4 11  4  0
  4 21  4  0
  5  9  4  0
  5 16  4  0
  6 15  4  0
  6 16  4  0
  7 22  4  0
  7 26  4  0
  8 10  4  0
  8 25  4  0
  9 15  4  0
  9 17  1  0
 10 21  4  0
 11 25  4  0
 12 23  4  0
 13 20  4  0
 13 26  4  0
 14 19  4  0
 17 18  4  0
 17 24  4  0
 19 23  4  0
 20 24  4  0
 23 26  1  0
M  END
$$$$

 Created by Python create_sdf_string function

 26 30  0  0  0  0  0  0  0  0999 V2000
   10.0084   -1.8019   23.4945 C   0  0  0  0  0  0  0  0  0  0  0  0
   10.0005   -4.2520   16.5631 C   0  0  0  0  0  0  0  0  0  0  0  0
   10.2759   -4.0036   17.8845 C   0  0  0  0  0  0  0  0  0  0  0  0
    8.5652    1.5478   25.3778 N   0  0  0  0  0  0  0  0  0  0  0  0
    6.8048   -7.5457   17.8752 C   0  0  0  0  0  0  0  0  0  0  0  0
    6.1721   -8.2186   15.9886 N   0  0  0  0  0  0  0  0  0  0  0  0
   11.1764   -2.6600   19.5604 C   0  0  0  0  0  0  0  0  0  0  0  0
    9.5491   -0.6380   24.1912 C   0  0  0  0  0  0  0  0  0  0  0  0
    7.5337   -6.9256   16.9519 C   0  0  0  0  0  0  0  0  0  0  0  0
    9.6782    0.5671   23.5143 C   0  0  0  0  0  0  0  0  0  0  0  0
    8.4532    0.3482   26.0821 C   0  0  0  0  0  0  0  0  0  0  0  0
   10.4239   -1.7677   22.2230 N   0  0  0  0  0  0  0  0  0  0  0  0
    9.9468   -4.5953   20.1709 C   0  0  0  0  0  0  0  0  0  0  0  0
   10.0366   -3.0590   23.9864 N   0  0  0  0  0  0  0  0  0  0  0  0
    7.1191   -7.3636   15.7739 C   0  0  0  0  0  0  0  0  0  0  0  0
    5.9612   -8.3203   17.2732 N   0  0  0  0  0  0  0  0  0  0  0  0
    8.5296   -5.9814   17.1841 C   0  0  0  0  0  0  0  0  0  0  0  0
    9.1527   -5.2118   16.2116 C   0  0  0  0  0  0  0  0  0  0  0  0
   10.3364   -3.8368   22.9255 O   0  0  0  0  0  0  0  0  0  0  0  0
    9.6947   -4.8407   18.8534 C   0  0  0  0  0  0  0  0  0  0  0  0
    9.1596    1.7042   24.1381 C   0  0  0  0  0  0  0  0  0  0  0  0
   11.0456   -2.9774   18.2694 N   0  0  0  0  0  0  0  0  0  0  0  0
   10.4788   -3.0457   21.8593 C   0  0  0  0  0  0  0  0  0  0  0  0
    8.8693   -5.8099   18.4657 N   0  0  0  0  0  0  0  0  0  0  0  0
    8.9892   -0.7926   25.4573 C   0  0  0  0  0  0  0  0  0  0  0  0
   10.5677   -3.4462   20.5323 C   0  0  0  0  0  0  0  0  0  0  0  0
  1  8  1  0
  1 12  4  0
  1 14  4  0
  2  3  4  0
  2 18  4  0
  3 20  4  0
  3 22  4  0
  4 11  4  0
  4 21  4  0
  5  9  4  0
  5 16  4  0
  6 15  4  0
  6 16  4  0
  7 22  4  0
  7 26  4  0
  8 10  4  0
  8 25  4  0
  9 15  4  0
  9 17  1  0
 10 21  4  0
 11 25  4  0
 12 23  4  0
 13 20  4  0
 13 26  4  0
 14 19  4  0
 17 18  4  0
 17 24  4  0
 19 23  4  0
 20 24  4  0
 23 26  1  0
M  END
$$$$

 Created by Python create_sdf_string function

 26 30  0  0  0  0  0  0  0  0999 V2000
   10.0084   -1.8019   23.4945 C   0  0  0  0  0  0  0  0  0  0  0  0
   10.0005   -4.2520   16.5631 C   0  0  0  0  0  0  0  0  0  0  0  0
   10.2759   -4.0036   17.8845 C   0  0  0  0  0  0  0  0  0  0  0  0
    8.5652    1.5478   25.3778 N   0  0  0  0  0  0  0  0  0  0  0  0
    6.8048   -7.5457   17.8752 C   0  0  0  0  0  0  0  0  0  0  0  0
    6.1721   -8.2186   15.9886 N   0  0  0  0  0  0  0  0  0  0  0  0
   11.1764   -2.6600   19.5604 C   0  0  0  0  0  0  0  0  0  0  0  0
    9.5491   -0.6380   24.1912 C   0  0  0  0  0  0  0  0  0  0  0  0
    7.5337   -6.9256   16.9519 C   0  0  0  0  0  0  0  0  0  0  0  0
    9.6782    0.5671   23.5143 C   0  0  0  0  0  0  0  0  0  0  0  0
    8.4532    0.3482   26.0821 C   0  0  0  0  0  0  0  0  0  0  0  0
   10.4239   -1.7677   22.2230 N   0  0  0  0  0  0  0  0  0  0  0  0
    9.9468   -4.5953   20.1709 C   0  0  0  0  0  0  0  0  0  0  0  0
   10.0366   -3.0590   23.9864 N   0  0  0  0  0  0  0  0  0  0  0  0
    7.1191   -7.3636   15.7739 C   0  0  0  0  0  0  0  0  0  0  0  0
    5.9612   -8.3203   17.2732 N   0  0  0  0  0  0  0  0  0  0  0  0
    8.5296   -5.9814   17.1841 C   0  0  0  0  0  0  0  0  0  0  0  0
    9.1527   -5.2118   16.2116 C   0  0  0  0  0  0  0  0  0  0  0  0
   10.3364   -3.8368   22.9255 O   0  0  0  0  0  0  0  0  0  0  0  0
    9.6947   -4.8407   18.8534 C   0  0  0  0  0  0  0  0  0  0  0  0
    9.1596    1.7042   24.1381 C   0  0  0  0  0  0  0  0  0  0  0  0
   11.0456   -2.9774   18.2694 N   0  0  0  0  0  0  0  0  0  0  0  0
   10.4788   -3.0457   21.8593 C   0  0  0  0  0  0  0  0  0  0  0  0
    8.8693   -5.8099   18.4657 N   0  0  0  0  0  0  0  0  0  0  0  0
    8.9892   -0.7926   25.4573 C   0  0  0  0  0  0  0  0  0  0  0  0
   10.5677   -3.4462   20.5323 C   0  0  0  0  0  0  0  0  0  0  0  0
  1  8  1  0
  1 12  4  0
  1 14  4  0
  2  3  4  0
  2 18  4  0
  3 20  4  0
  3 22  4  0
  4 11  4  0
  4 21  4  0
  5  9  4  0
  5 16  4  0
  6 15  4  0
  6 16  4  0
  7 22  4  0
  7 26  4  0
  8 10  4  0
  8 25  4  0
  9 15  4  0
  9 17  1  0
 10 21  4  0
 11 25  4  0
 12 23  4  0
 13 20  4  0
 13 26  4  0
 14 19  4  0
 17 18  4  0
 17 24  4  0
 19 23  4  0
 20 24  4  0
 23 26  1  0
M  END
$$$$

 Created by Python create_sdf_string function

 26 30  0  0  0  0  0  0  0  0999 V2000
   10.0084   -1.8019   23.4945 C   0  0  0  0  0  0  0  0  0  0  0  0
   10.0005   -4.2520   16.5631 C   0  0  0  0  0  0  0  0  0  0  0  0
   10.2759   -4.0036   17.8845 C   0  0  0  0  0  0  0  0  0  0  0  0
    8.5652    1.5478   25.3778 N   0  0  0  0  0  0  0  0  0  0  0  0
    6.8048   -7.5457   17.8752 C   0  0  0  0  0  0  0  0  0  0  0  0
    6.1721   -8.2186   15.9886 N   0  0  0  0  0  0  0  0  0  0  0  0
   11.1764   -2.6600   19.5604 C   0  0  0  0  0  0  0  0  0  0  0  0
    9.5491   -0.6380   24.1912 C   0  0  0  0  0  0  0  0  0  0  0  0
    7.5337   -6.9256   16.9519 C   0  0  0  0  0  0  0  0  0  0  0  0
    9.6782    0.5671   23.5143 C   0  0  0  0  0  0  0  0  0  0  0  0
    8.4532    0.3482   26.0821 C   0  0  0  0  0  0  0  0  0  0  0  0
   10.4239   -1.7677   22.2230 N   0  0  0  0  0  0  0  0  0  0  0  0
    9.9468   -4.5953   20.1709 C   0  0  0  0  0  0  0  0  0  0  0  0
   10.0366   -3.0590   23.9864 N   0  0  0  0  0  0  0  0  0  0  0  0
    7.1191   -7.3636   15.7739 C   0  0  0  0  0  0  0  0  0  0  0  0
    5.9612   -8.3203   17.2732 N   0  0  0  0  0  0  0  0  0  0  0  0
    8.5296   -5.9814   17.1841 C   0  0  0  0  0  0  0  0  0  0  0  0
    9.1527   -5.2118   16.2116 C   0  0  0  0  0  0  0  0  0  0  0  0
   10.3364   -3.8368   22.9255 O   0  0  0  0  0  0  0  0  0  0  0  0
    9.6947   -4.8407   18.8534 C   0  0  0  0  0  0  0  0  0  0  0  0
    9.1596    1.7042   24.1381 C   0  0  0  0  0  0  0  0  0  0  0  0
   11.0456   -2.9774   18.2694 N   0  0  0  0  0  0  0  0  0  0  0  0
   10.4788   -3.0457   21.8593 C   0  0  0  0  0  0  0  0  0  0  0  0
    8.8693   -5.8099   18.4657 N   0  0  0  0  0  0  0  0  0  0  0  0
    8.9892   -0.7926   25.4573 C   0  0  0  0  0  0  0  0  0  0  0  0
   10.5677   -3.4462   20.5323 C   0  0  0  0  0  0  0  0  0  0  0  0
  1  8  1  0
  1 12  4  0
  1 14  4  0
  2  3  4  0
  2 18  4  0
  3 20  4  0
  3 22  4  0
  4 11  4  0
  4 21  4  0
  5  9  4  0
  5 16  4  0
  6 15  4  0
  6 16  4  0
  7 22  4  0
  7 26  4  0
  8 10  4  0
  8 25  4  0
  9 15  4  0
  9 17  1  0
 10 21  4  0
 11 25  4  0
 12 23  4  0
 13 20  4  0
 13 26  4  0
 14 19  4  0
 17 18  4  0
 17 24  4  0
 19 23  4  0
 20 24  4  0
 23 26  1  0
M  END
$$$$

 Created by Python create_sdf_string function

 26 30  0  0  0  0  0  0  0  0999 V2000
   10.0084   -1.8019   23.4945 C   0  0  0  0  0  0  0  0  0  0  0  0
   10.0005   -4.2520   16.5631 C   0  0  0  0  0  0  0  0  0  0  0  0
   10.2759   -4.0036   17.8845 C   0  0  0  0  0  0  0  0  0  0  0  0
    8.5652    1.5478   25.3778 N   0  0  0  0  0  0  0  0  0  0  0  0
    6.8048   -7.5457   17.8752 C   0  0  0  0  0  0  0  0  0  0  0  0
    6.1721   -8.2186   15.9886 N   0  0  0  0  0  0  0  0  0  0  0  0
   11.1764   -2.6600   19.5604 C   0  0  0  0  0  0  0  0  0  0  0  0
    9.5491   -0.6380   24.1912 C   0  0  0  0  0  0  0  0  0  0  0  0
    7.5337   -6.9256   16.9519 C   0  0  0  0  0  0  0  0  0  0  0  0
    9.6782    0.5671   23.5143 C   0  0  0  0  0  0  0  0  0  0  0  0
    8.4532    0.3482   26.0821 C   0  0  0  0  0  0  0  0  0  0  0  0
   10.4239   -1.7677   22.2230 N   0  0  0  0  0  0  0  0  0  0  0  0
    9.9468   -4.5953   20.1709 C   0  0  0  0  0  0  0  0  0  0  0  0
   10.0366   -3.0590   23.9864 N   0  0  0  0  0  0  0  0  0  0  0  0
    7.1191   -7.3636   15.7739 C   0  0  0  0  0  0  0  0  0  0  0  0
    5.9612   -8.3203   17.2732 N   0  0  0  0  0  0  0  0  0  0  0  0
    8.5296   -5.9814   17.1841 C   0  0  0  0  0  0  0  0  0  0  0  0
    9.1527   -5.2118   16.2116 C   0  0  0  0  0  0  0  0  0  0  0  0
   10.3364   -3.8368   22.9255 O   0  0  0  0  0  0  0  0  0  0  0  0
    9.6947   -4.8407   18.8534 C   0  0  0  0  0  0  0  0  0  0  0  0
    9.1596    1.7042   24.1381 C   0  0  0  0  0  0  0  0  0  0  0  0
   11.0456   -2.9774   18.2694 N   0  0  0  0  0  0  0  0  0  0  0  0
   10.4788   -3.0457   21.8593 C   0  0  0  0  0  0  0  0  0  0  0  0
    8.8693   -5.8099   18.4657 N   0  0  0  0  0  0  0  0  0  0  0  0
    8.9892   -0.7926   25.4573 C   0  0  0  0  0  0  0  0  0  0  0  0
   10.5677   -3.4462   20.5323 C   0  0  0  0  0  0  0  0  0  0  0  0
  1  8  1  0
  1 12  4  0
  1 14  4  0
  2  3  4  0
  2 18  4  0
  3 20  4  0
  3 22  4  0
  4 11  4  0
  4 21  4  0
  5  9  4  0
  5 16  4  0
  6 15  4  0
  6 16  4  0
  7 22  4  0
  7 26  4  0
  8 10  4  0
  8 25  4  0
  9 15  4  0
  9 17  1  0
 10 21  4  0
 11 25  4  0
 12 23  4  0
 13 20  4  0
 13 26  4  0
 14 19  4  0
 17 18  4  0
 17 24  4  0
 19 23  4  0
 20 24  4  0
 23 26  1  0
M  END
$$$$

 Created by Python create_sdf_string function

 26 30  0  0  0  0  0  0  0  0999 V2000
   10.0084   -1.8019   23.4945 C   0  0  0  0  0  0  0  0  0  0  0  0
   10.0005   -4.2520   16.5631 C   0  0  0  0  0  0  0  0  0  0  0  0
   10.2759   -4.0036   17.8845 C   0  0  0  0  0  0  0  0  0  0  0  0
    8.5652    1.5478   25.3778 N   0  0  0  0  0  0  0  0  0  0  0  0
    6.8048   -7.5457   17.8752 C   0  0  0  0  0  0  0  0  0  0  0  0
    6.1721   -8.2186   15.9886 N   0  0  0  0  0  0  0  0  0  0  0  0
   11.1764   -2.6600   19.5604 C   0  0  0  0  0  0  0  0  0  0  0  0
    9.5491   -0.6380   24.1912 C   0  0  0  0  0  0  0  0  0  0  0  0
    7.5337   -6.9256   16.9519 C   0  0  0  0  0  0  0  0  0  0  0  0
    9.6782    0.5671   23.5143 C   0  0  0  0  0  0  0  0  0  0  0  0
    8.4532    0.3482   26.0821 C   0  0  0  0  0  0  0  0  0  0  0  0
   10.4239   -1.7677   22.2230 N   0  0  0  0  0  0  0  0  0  0  0  0
    9.9468   -4.5953   20.1709 C   0  0  0  0  0  0  0  0  0  0  0  0
   10.0366   -3.0590   23.9864 N   0  0  0  0  0  0  0  0  0  0  0  0
    7.1191   -7.3636   15.7739 C   0  0  0  0  0  0  0  0  0  0  0  0
    5.9612   -8.3203   17.2732 N   0  0  0  0  0  0  0  0  0  0  0  0
    8.5296   -5.9814   17.1841 C   0  0  0  0  0  0  0  0  0  0  0  0
    9.1527   -5.2118   16.2116 C   0  0  0  0  0  0  0  0  0  0  0  0
   10.3364   -3.8368   22.9255 O   0  0  0  0  0  0  0  0  0  0  0  0
    9.6947   -4.8407   18.8534 C   0  0  0  0  0  0  0  0  0  0  0  0
    9.1596    1.7042   24.1381 C   0  0  0  0  0  0  0  0  0  0  0  0
   11.0456   -2.9774   18.2694 N   0  0  0  0  0  0  0  0  0  0  0  0
   10.4788   -3.0457   21.8593 C   0  0  0  0  0  0  0  0  0  0  0  0
    8.8693   -5.8099   18.4657 N   0  0  0  0  0  0  0  0  0  0  0  0
    8.9892   -0.7926   25.4573 C   0  0  0  0  0  0  0  0  0  0  0  0
   10.5677   -3.4462   20.5323 C   0  0  0  0  0  0  0  0  0  0  0  0
  1  8  1  0
  1 12  4  0
  1 14  4  0
  2  3  4  0
  2 18  4  0
  3 20  4  0
  3 22  4  0
  4 11  4  0
  4 21  4  0
  5  9  4  0
  5 16  4  0
  6 15  4  0
  6 16  4  0
  7 22  4  0
  7 26  4  0
  8 10  4  0
  8 25  4  0
  9 15  4  0
  9 17  1  0
 10 21  4  0
 11 25  4  0
 12 23  4  0
 13 20  4  0
 13 26  4  0
 14 19  4  0
 17 18  4  0
 17 24  4  0
 19 23  4  0
 20 24  4  0
 23 26  1  0
M  END
$$$$

 Created by Python create_sdf_string function

 26 30  0  0  0  0  0  0  0  0999 V2000
   10.0084   -1.8019   23.4945 C   0  0  0  0  0  0  0  0  0  0  0  0
   10.0005   -4.2520   16.5631 C   0  0  0  0  0  0  0  0  0  0  0  0
   10.2759   -4.0036   17.8845 C   0  0  0  0  0  0  0  0  0  0  0  0
    8.5652    1.5478   25.3778 N   0  0  0  0  0  0  0  0  0  0  0  0
    6.8048   -7.5457   17.8752 C   0  0  0  0  0  0  0  0  0  0  0  0
    6.1721   -8.2186   15.9886 N   0  0  0  0  0  0  0  0  0  0  0  0
   11.1764   -2.6600   19.5604 C   0  0  0  0  0  0  0  0  0  0  0  0
    9.5491   -0.6380   24.1912 C   0  0  0  0  0  0  0  0  0  0  0  0
    7.5337   -6.9256   16.9519 C   0  0  0  0  0  0  0  0  0  0  0  0
    9.6782    0.5671   23.5143 C   0  0  0  0  0  0  0  0  0  0  0  0
    8.4532    0.3482   26.0821 C   0  0  0  0  0  0  0  0  0  0  0  0
   10.4239   -1.7677   22.2230 N   0  0  0  0  0  0  0  0  0  0  0  0
    9.9468   -4.5953   20.1709 C   0  0  0  0  0  0  0  0  0  0  0  0
   10.0366   -3.0590   23.9864 N   0  0  0  0  0  0  0  0  0  0  0  0
    7.1191   -7.3636   15.7739 C   0  0  0  0  0  0  0  0  0  0  0  0
    5.9612   -8.3203   17.2732 N   0  0  0  0  0  0  0  0  0  0  0  0
    8.5296   -5.9814   17.1841 C   0  0  0  0  0  0  0  0  0  0  0  0
    9.1527   -5.2118   16.2116 C   0  0  0  0  0  0  0  0  0  0  0  0
   10.3364   -3.8368   22.9255 O   0  0  0  0  0  0  0  0  0  0  0  0
    9.6947   -4.8407   18.8534 C   0  0  0  0  0  0  0  0  0  0  0  0
    9.1596    1.7042   24.1381 C   0  0  0  0  0  0  0  0  0  0  0  0
   11.0456   -2.9774   18.2694 N   0  0  0  0  0  0  0  0  0  0  0  0
   10.4788   -3.0457   21.8593 C   0  0  0  0  0  0  0  0  0  0  0  0
    8.8693   -5.8099   18.4657 N   0  0  0  0  0  0  0  0  0  0  0  0
    8.9892   -0.7926   25.4573 C   0  0  0  0  0  0  0  0  0  0  0  0
   10.5677   -3.4462   20.5323 C   0  0  0  0  0  0  0  0  0  0  0  0
  1  8  1  0
  1 12  4  0
  1 14  4  0
  2  3  4  0
  2 18  4  0
  3 20  4  0
  3 22  4  0
  4 11  4  0
  4 21  4  0
  5  9  4  0
  5 16  4  0
  6 15  4  0
  6 16  4  0
  7 22  4  0
  7 26  4  0
  8 10  4  0
  8 25  4  0
  9 15  4  0
  9 17  1  0
 10 21  4  0
 11 25  4  0
 12 23  4  0
 13 20  4  0
 13 26  4  0
 14 19  4  0
 17 18  4  0
 17 24  4  0
 19 23  4  0
 20 24  4  0
 23 26  1  0
M  END
$$$$

 Created by Python create_sdf_string function

 26 30  0  0  0  0  0  0  0  0999 V2000
   10.0084   -1.8019   23.4945 C   0  0  0  0  0  0  0  0  0  0  0  0
   10.0005   -4.2520   16.5631 C   0  0  0  0  0  0  0  0  0  0  0  0
   10.2759   -4.0036   17.8845 C   0  0  0  0  0  0  0  0  0  0  0  0
    8.5652    1.5478   25.3778 N   0  0  0  0  0  0  0  0  0  0  0  0
    6.8048   -7.5457   17.8752 C   0  0  0  0  0  0  0  0  0  0  0  0
    6.1721   -8.2186   15.9886 N   0  0  0  0  0  0  0  0  0  0  0  0
   11.1764   -2.6600   19.5604 C   0  0  0  0  0  0  0  0  0  0  0  0
    9.5491   -0.6380   24.1912 C   0  0  0  0  0  0  0  0  0  0  0  0
    7.5337   -6.9256   16.9519 C   0  0  0  0  0  0  0  0  0  0  0  0
    9.6782    0.5671   23.5143 C   0  0  0  0  0  0  0  0  0  0  0  0
    8.4532    0.3482   26.0821 C   0  0  0  0  0  0  0  0  0  0  0  0
   10.4239   -1.7677   22.2230 N   0  0  0  0  0  0  0  0  0  0  0  0
    9.9468   -4.5953   20.1709 C   0  0  0  0  0  0  0  0  0  0  0  0
   10.0366   -3.0590   23.9864 N   0  0  0  0  0  0  0  0  0  0  0  0
    7.1191   -7.3636   15.7739 C   0  0  0  0  0  0  0  0  0  0  0  0
    5.9612   -8.3203   17.2732 N   0  0  0  0  0  0  0  0  0  0  0  0
    8.5296   -5.9814   17.1841 C   0  0  0  0  0  0  0  0  0  0  0  0
    9.1527   -5.2118   16.2116 C   0  0  0  0  0  0  0  0  0  0  0  0
   10.3364   -3.8368   22.9255 O   0  0  0  0  0  0  0  0  0  0  0  0
    9.6947   -4.8407   18.8534 C   0  0  0  0  0  0  0  0  0  0  0  0
    9.1596    1.7042   24.1381 C   0  0  0  0  0  0  0  0  0  0  0  0
   11.0456   -2.9774   18.2694 N   0  0  0  0  0  0  0  0  0  0  0  0
   10.4788   -3.0457   21.8593 C   0  0  0  0  0  0  0  0  0  0  0  0
    8.8693   -5.8099   18.4657 N   0  0  0  0  0  0  0  0  0  0  0  0
    8.9892   -0.7926   25.4573 C   0  0  0  0  0  0  0  0  0  0  0  0
   10.5677   -3.4462   20.5323 C   0  0  0  0  0  0  0  0  0  0  0  0
  1  8  1  0
  1 12  4  0
  1 14  4  0
  2  3  4  0
  2 18  4  0
  3 20  4  0
  3 22  4  0
  4 11  4  0
  4 21  4  0
  5  9  4  0
  5 16  4  0
  6 15  4  0
  6 16  4  0
  7 22  4  0
  7 26  4  0
  8 10  4  0
  8 25  4  0
  9 15  4  0
  9 17  1  0
 10 21  4  0
 11 25  4  0
 12 23  4  0
 13 20  4  0
 13 26  4  0
 14 19  4  0
 17 18  4  0
 17 24  4  0
 19 23  4  0
 20 24  4  0
 23 26  1  0
M  END
$$$$

 Created by Python create_sdf_string function

 26 30  0  0  0  0  0  0  0  0999 V2000
   10.0084   -1.8019   23.4945 C   0  0  0  0  0  0  0  0  0  0  0  0
   10.0005   -4.2520   16.5631 C   0  0  0  0  0  0  0  0  0  0  0  0
   10.2759   -4.0036   17.8845 C   0  0  0  0  0  0  0  0  0  0  0  0
    8.5652    1.5478   25.3778 N   0  0  0  0  0  0  0  0  0  0  0  0
    6.8048   -7.5457   17.8752 C   0  0  0  0  0  0  0  0  0  0  0  0
    6.1721   -8.2186   15.9886 N   0  0  0  0  0  0  0  0  0  0  0  0
   11.1764   -2.6600   19.5604 C   0  0  0  0  0  0  0  0  0  0  0  0
    9.5491   -0.6380   24.1912 C   0  0  0  0  0  0  0  0  0  0  0  0
    7.5337   -6.9256   16.9519 C   0  0  0  0  0  0  0  0  0  0  0  0
    9.6782    0.5671   23.5143 C   0  0  0  0  0  0  0  0  0  0  0  0
    8.4532    0.3482   26.0821 C   0  0  0  0  0  0  0  0  0  0  0  0
   10.4239   -1.7677   22.2230 N   0  0  0  0  0  0  0  0  0  0  0  0
    9.9468   -4.5953   20.1709 C   0  0  0  0  0  0  0  0  0  0  0  0
   10.0366   -3.0590   23.9864 N   0  0  0  0  0  0  0  0  0  0  0  0
    7.1191   -7.3636   15.7739 C   0  0  0  0  0  0  0  0  0  0  0  0
    5.9612   -8.3203   17.2732 N   0  0  0  0  0  0  0  0  0  0  0  0
    8.5296   -5.9814   17.1841 C   0  0  0  0  0  0  0  0  0  0  0  0
    9.1527   -5.2118   16.2116 C   0  0  0  0  0  0  0  0  0  0  0  0
   10.3364   -3.8368   22.9255 O   0  0  0  0  0  0  0  0  0  0  0  0
    9.6947   -4.8407   18.8534 C   0  0  0  0  0  0  0  0  0  0  0  0
    9.1596    1.7042   24.1381 C   0  0  0  0  0  0  0  0  0  0  0  0
   11.0456   -2.9774   18.2694 N   0  0  0  0  0  0  0  0  0  0  0  0
   10.4788   -3.0457   21.8593 C   0  0  0  0  0  0  0  0  0  0  0  0
    8.8693   -5.8099   18.4657 N   0  0  0  0  0  0  0  0  0  0  0  0
    8.9892   -0.7926   25.4573 C   0  0  0  0  0  0  0  0  0  0  0  0
   10.5677   -3.4462   20.5323 C   0  0  0  0  0  0  0  0  0  0  0  0
  1  8  1  0
  1 12  4  0
  1 14  4  0
  2  3  4  0
  2 18  4  0
  3 20  4  0
  3 22  4  0
  4 11  4  0
  4 21  4  0
  5  9  4  0
  5 16  4  0
  6 15  4  0
  6 16  4  0
  7 22  4  0
  7 26  4  0
  8 10  4  0
  8 25  4  0
  9 15  4  0
  9 17  1  0
 10 21  4  0
 11 25  4  0
 12 23  4  0
 13 20  4  0
 13 26  4  0
 14 19  4  0
 17 18  4  0
 17 24  4  0
 19 23  4  0
 20 24  4  0
 23 26  1  0
M  END
$$$$

 Created by Python create_sdf_string function

 26 30  0  0  0  0  0  0  0  0999 V2000
   10.0084   -1.8019   23.4945 C   0  0  0  0  0  0  0  0  0  0  0  0
   10.0005   -4.2520   16.5631 C   0  0  0  0  0  0  0  0  0  0  0  0
   10.2759   -4.0036   17.8845 C   0  0  0  0  0  0  0  0  0  0  0  0
    8.5652    1.5478   25.3778 N   0  0  0  0  0  0  0  0  0  0  0  0
    6.8048   -7.5457   17.8752 C   0  0  0  0  0  0  0  0  0  0  0  0
    6.1721   -8.2186   15.9886 N   0  0  0  0  0  0  0  0  0  0  0  0
   11.1764   -2.6600   19.5604 C   0  0  0  0  0  0  0  0  0  0  0  0
    9.5491   -0.6380   24.1912 C   0  0  0  0  0  0  0  0  0  0  0  0
    7.5337   -6.9256   16.9519 C   0  0  0  0  0  0  0  0  0  0  0  0
    9.6782    0.5671   23.5143 C   0  0  0  0  0  0  0  0  0  0  0  0
    8.4532    0.3482   26.0821 C   0  0  0  0  0  0  0  0  0  0  0  0
   10.4239   -1.7677   22.2230 N   0  0  0  0  0  0  0  0  0  0  0  0
    9.9468   -4.5953   20.1709 C   0  0  0  0  0  0  0  0  0  0  0  0
   10.0366   -3.0590   23.9864 N   0  0  0  0  0  0  0  0  0  0  0  0
    7.1191   -7.3636   15.7739 C   0  0  0  0  0  0  0  0  0  0  0  0
    5.9612   -8.3203   17.2732 N   0  0  0  0  0  0  0  0  0  0  0  0
    8.5296   -5.9814   17.1841 C   0  0  0  0  0  0  0  0  0  0  0  0
    9.1527   -5.2118   16.2116 C   0  0  0  0  0  0  0  0  0  0  0  0
   10.3364   -3.8368   22.9255 O   0  0  0  0  0  0  0  0  0  0  0  0
    9.6947   -4.8407   18.8534 C   0  0  0  0  0  0  0  0  0  0  0  0
    9.1596    1.7042   24.1381 C   0  0  0  0  0  0  0  0  0  0  0  0
   11.0456   -2.9774   18.2694 N   0  0  0  0  0  0  0  0  0  0  0  0
   10.4788   -3.0457   21.8593 C   0  0  0  0  0  0  0  0  0  0  0  0
    8.8693   -5.8099   18.4657 N   0  0  0  0  0  0  0  0  0  0  0  0
    8.9892   -0.7926   25.4573 C   0  0  0  0  0  0  0  0  0  0  0  0
   10.5677   -3.4462   20.5323 C   0  0  0  0  0  0  0  0  0  0  0  0
  1  8  1  0
  1 12  4  0
  1 14  4  0
  2  3  4  0
  2 18  4  0
  3 20  4  0
  3 22  4  0
  4 11  4  0
  4 21  4  0
  5  9  4  0
  5 16  4  0
  6 15  4  0
  6 16  4  0
  7 22  4  0
  7 26  4  0
  8 10  4  0
  8 25  4  0
  9 15  4  0
  9 17  1  0
 10 21  4  0
 11 25  4  0
 12 23  4  0
 13 20  4  0
 13 26  4  0
 14 19  4  0
 17 18  4  0
 17 24  4  0
 19 23  4  0
 20 24  4  0
 23 26  1  0
M  END
$$$$

 Created by Python create_sdf_string function

 26 30  0  0  0  0  0  0  0  0999 V2000
   10.0084   -1.8019   23.4945 C   0  0  0  0  0  0  0  0  0  0  0  0
   10.0005   -4.2520   16.5631 C   0  0  0  0  0  0  0  0  0  0  0  0
   10.2759   -4.0036   17.8845 C   0  0  0  0  0  0  0  0  0  0  0  0
    8.5652    1.5478   25.3778 N   0  0  0  0  0  0  0  0  0  0  0  0
    6.8048   -7.5457   17.8752 C   0  0  0  0  0  0  0  0  0  0  0  0
    6.1721   -8.2186   15.9886 N   0  0  0  0  0  0  0  0  0  0  0  0
   11.1764   -2.6600   19.5604 C   0  0  0  0  0  0  0  0  0  0  0  0
    9.5491   -0.6380   24.1912 C   0  0  0  0  0  0  0  0  0  0  0  0
    7.5337   -6.9256   16.9519 C   0  0  0  0  0  0  0  0  0  0  0  0
    9.6782    0.5671   23.5143 C   0  0  0  0  0  0  0  0  0  0  0  0
    8.4532    0.3482   26.0821 C   0  0  0  0  0  0  0  0  0  0  0  0
   10.4239   -1.7677   22.2230 N   0  0  0  0  0  0  0  0  0  0  0  0
    9.9468   -4.5953   20.1709 C   0  0  0  0  0  0  0  0  0  0  0  0
   10.0366   -3.0590   23.9864 N   0  0  0  0  0  0  0  0  0  0  0  0
    7.1191   -7.3636   15.7739 C   0  0  0  0  0  0  0  0  0  0  0  0
    5.9612   -8.3203   17.2732 N   0  0  0  0  0  0  0  0  0  0  0  0
    8.5296   -5.9814   17.1841 C   0  0  0  0  0  0  0  0  0  0  0  0
    9.1527   -5.2118   16.2116 C   0  0  0  0  0  0  0  0  0  0  0  0
   10.3364   -3.8368   22.9255 O   0  0  0  0  0  0  0  0  0  0  0  0
    9.6947   -4.8407   18.8534 C   0  0  0  0  0  0  0  0  0  0  0  0
    9.1596    1.7042   24.1381 C   0  0  0  0  0  0  0  0  0  0  0  0
   11.0456   -2.9774   18.2694 N   0  0  0  0  0  0  0  0  0  0  0  0
   10.4788   -3.0457   21.8593 C   0  0  0  0  0  0  0  0  0  0  0  0
    8.8693   -5.8099   18.4657 N   0  0  0  0  0  0  0  0  0  0  0  0
    8.9892   -0.7926   25.4573 C   0  0  0  0  0  0  0  0  0  0  0  0
   10.5677   -3.4462   20.5323 C   0  0  0  0  0  0  0  0  0  0  0  0
  1  8  1  0
  1 12  4  0
  1 14  4  0
  2  3  4  0
  2 18  4  0
  3 20  4  0
  3 22  4  0
  4 11  4  0
  4 21  4  0
  5  9  4  0
  5 16  4  0
  6 15  4  0
  6 16  4  0
  7 22  4  0
  7 26  4  0
  8 10  4  0
  8 25  4  0
  9 15  4  0
  9 17  1  0
 10 21  4  0
 11 25  4  0
 12 23  4  0
 13 20  4  0
 13 26  4  0
 14 19  4  0
 17 18  4  0
 17 24  4  0
 19 23  4  0
 20 24  4  0
 23 26  1  0
M  END
$$$$

 Created by Python create_sdf_string function

 26 30  0  0  0  0  0  0  0  0999 V2000
   10.0084   -1.8019   23.4945 C   0  0  0  0  0  0  0  0  0  0  0  0
   10.0005   -4.2520   16.5631 C   0  0  0  0  0  0  0  0  0  0  0  0
   10.2759   -4.0036   17.8845 C   0  0  0  0  0  0  0  0  0  0  0  0
    8.5652    1.5478   25.3778 N   0  0  0  0  0  0  0  0  0  0  0  0
    6.8048   -7.5457   17.8752 C   0  0  0  0  0  0  0  0  0  0  0  0
    6.1721   -8.2186   15.9886 N   0  0  0  0  0  0  0  0  0  0  0  0
   11.1764   -2.6600   19.5604 C   0  0  0  0  0  0  0  0  0  0  0  0
    9.5491   -0.6380   24.1912 C   0  0  0  0  0  0  0  0  0  0  0  0
    7.5337   -6.9256   16.9519 C   0  0  0  0  0  0  0  0  0  0  0  0
    9.6782    0.5671   23.5143 C   0  0  0  0  0  0  0  0  0  0  0  0
    8.4532    0.3482   26.0821 C   0  0  0  0  0  0  0  0  0  0  0  0
   10.4239   -1.7677   22.2230 N   0  0  0  0  0  0  0  0  0  0  0  0
    9.9468   -4.5953   20.1709 C   0  0  0  0  0  0  0  0  0  0  0  0
   10.0366   -3.0590   23.9864 N   0  0  0  0  0  0  0  0  0  0  0  0
    7.1191   -7.3636   15.7739 C   0  0  0  0  0  0  0  0  0  0  0  0
    5.9612   -8.3203   17.2732 N   0  0  0  0  0  0  0  0  0  0  0  0
    8.5296   -5.9814   17.1841 C   0  0  0  0  0  0  0  0  0  0  0  0
    9.1527   -5.2118   16.2116 C   0  0  0  0  0  0  0  0  0  0  0  0
   10.3364   -3.8368   22.9255 O   0  0  0  0  0  0  0  0  0  0  0  0
    9.6947   -4.8407   18.8534 C   0  0  0  0  0  0  0  0  0  0  0  0
    9.1596    1.7042   24.1381 C   0  0  0  0  0  0  0  0  0  0  0  0
   11.0456   -2.9774   18.2694 N   0  0  0  0  0  0  0  0  0  0  0  0
   10.4788   -3.0457   21.8593 C   0  0  0  0  0  0  0  0  0  0  0  0
    8.8693   -5.8099   18.4657 N   0  0  0  0  0  0  0  0  0  0  0  0
    8.9892   -0.7926   25.4573 C   0  0  0  0  0  0  0  0  0  0  0  0
   10.5677   -3.4462   20.5323 C   0  0  0  0  0  0  0  0  0  0  0  0
  1  8  1  0
  1 12  4  0
  1 14  4  0
  2  3  4  0
  2 18  4  0
  3 20  4  0
  3 22  4  0
  4 11  4  0
  4 21  4  0
  5  9  4  0
  5 16  4  0
  6 15  4  0
  6 16  4  0
  7 22  4  0
  7 26  4  0
  8 10  4  0
  8 25  4  0
  9 15  4  0
  9 17  1  0
 10 21  4  0
 11 25  4  0
 12 23  4  0
 13 20  4  0
 13 26  4  0
 14 19  4  0
 17 18  4  0
 17 24  4  0
 19 23  4  0
 20 24  4  0
 23 26  1  0
M  END
$$$$

 Created by Python create_sdf_string function

 26 30  0  0  0  0  0  0  0  0999 V2000
   10.0084   -1.8019   23.4945 C   0  0  0  0  0  0  0  0  0  0  0  0
   10.0005   -4.2520   16.5631 C   0  0  0  0  0  0  0  0  0  0  0  0
   10.2759   -4.0036   17.8845 C   0  0  0  0  0  0  0  0  0  0  0  0
    8.5652    1.5478   25.3778 N   0  0  0  0  0  0  0  0  0  0  0  0
    6.8048   -7.5457   17.8752 C   0  0  0  0  0  0  0  0  0  0  0  0
    6.1721   -8.2186   15.9886 N   0  0  0  0  0  0  0  0  0  0  0  0
   11.1764   -2.6600   19.5604 C   0  0  0  0  0  0  0  0  0  0  0  0
    9.5491   -0.6380   24.1912 C   0  0  0  0  0  0  0  0  0  0  0  0
    7.5337   -6.9256   16.9519 C   0  0  0  0  0  0  0  0  0  0  0  0
    9.6782    0.5671   23.5143 C   0  0  0  0  0  0  0  0  0  0  0  0
    8.4532    0.3482   26.0821 C   0  0  0  0  0  0  0  0  0  0  0  0
   10.4239   -1.7677   22.2230 N   0  0  0  0  0  0  0  0  0  0  0  0
    9.9468   -4.5953   20.1709 C   0  0  0  0  0  0  0  0  0  0  0  0
   10.0366   -3.0590   23.9864 N   0  0  0  0  0  0  0  0  0  0  0  0
    7.1191   -7.3636   15.7739 C   0  0  0  0  0  0  0  0  0  0  0  0
    5.9612   -8.3203   17.2732 N   0  0  0  0  0  0  0  0  0  0  0  0
    8.5296   -5.9814   17.1841 C   0  0  0  0  0  0  0  0  0  0  0  0
    9.1527   -5.2118   16.2116 C   0  0  0  0  0  0  0  0  0  0  0  0
   10.3364   -3.8368   22.9255 O   0  0  0  0  0  0  0  0  0  0  0  0
    9.6947   -4.8407   18.8534 C   0  0  0  0  0  0  0  0  0  0  0  0
    9.1596    1.7042   24.1381 C   0  0  0  0  0  0  0  0  0  0  0  0
   11.0456   -2.9774   18.2694 N   0  0  0  0  0  0  0  0  0  0  0  0
   10.4788   -3.0457   21.8593 C   0  0  0  0  0  0  0  0  0  0  0  0
    8.8693   -5.8099   18.4657 N   0  0  0  0  0  0  0  0  0  0  0  0
    8.9892   -0.7926   25.4573 C   0  0  0  0  0  0  0  0  0  0  0  0
   10.5677   -3.4462   20.5323 C   0  0  0  0  0  0  0  0  0  0  0  0
  1  8  1  0
  1 12  4  0
  1 14  4  0
  2  3  4  0
  2 18  4  0
  3 20  4  0
  3 22  4  0
  4 11  4  0
  4 21  4  0
  5  9  4  0
  5 16  4  0
  6 15  4  0
  6 16  4  0
  7 22  4  0
  7 26  4  0
  8 10  4  0
  8 25  4  0
  9 15  4  0
  9 17  1  0
 10 21  4  0
 11 25  4  0
 12 23  4  0
 13 20  4  0
 13 26  4  0
 14 19  4  0
 17 18  4  0
 17 24  4  0
 19 23  4  0
 20 24  4  0
 23 26  1  0
M  END
$$$$

 Created by Python create_sdf_string function

 26 30  0  0  0  0  0  0  0  0999 V2000
   10.0084   -1.8019   23.4945 C   0  0  0  0  0  0  0  0  0  0  0  0
   10.0005   -4.2520   16.5631 C   0  0  0  0  0  0  0  0  0  0  0  0
   10.2759   -4.0036   17.8845 C   0  0  0  0  0  0  0  0  0  0  0  0
    8.5652    1.5478   25.3778 N   0  0  0  0  0  0  0  0  0  0  0  0
    6.8048   -7.5457   17.8752 C   0  0  0  0  0  0  0  0  0  0  0  0
    6.1721   -8.2186   15.9886 N   0  0  0  0  0  0  0  0  0  0  0  0
   11.1764   -2.6600   19.5604 C   0  0  0  0  0  0  0  0  0  0  0  0
    9.5491   -0.6380   24.1912 C   0  0  0  0  0  0  0  0  0  0  0  0
    7.5337   -6.9256   16.9519 C   0  0  0  0  0  0  0  0  0  0  0  0
    9.6782    0.5671   23.5143 C   0  0  0  0  0  0  0  0  0  0  0  0
    8.4532    0.3482   26.0821 C   0  0  0  0  0  0  0  0  0  0  0  0
   10.4239   -1.7677   22.2230 N   0  0  0  0  0  0  0  0  0  0  0  0
    9.9468   -4.5953   20.1709 C   0  0  0  0  0  0  0  0  0  0  0  0
   10.0366   -3.0590   23.9864 N   0  0  0  0  0  0  0  0  0  0  0  0
    7.1191   -7.3636   15.7739 C   0  0  0  0  0  0  0  0  0  0  0  0
    5.9612   -8.3203   17.2732 N   0  0  0  0  0  0  0  0  0  0  0  0
    8.5296   -5.9814   17.1841 C   0  0  0  0  0  0  0  0  0  0  0  0
    9.1527   -5.2118   16.2116 C   0  0  0  0  0  0  0  0  0  0  0  0
   10.3364   -3.8368   22.9255 O   0  0  0  0  0  0  0  0  0  0  0  0
    9.6947   -4.8407   18.8534 C   0  0  0  0  0  0  0  0  0  0  0  0
    9.1596    1.7042   24.1381 C   0  0  0  0  0  0  0  0  0  0  0  0
   11.0456   -2.9774   18.2694 N   0  0  0  0  0  0  0  0  0  0  0  0
   10.4788   -3.0457   21.8593 C   0  0  0  0  0  0  0  0  0  0  0  0
    8.8693   -5.8099   18.4657 N   0  0  0  0  0  0  0  0  0  0  0  0
    8.9892   -0.7926   25.4573 C   0  0  0  0  0  0  0  0  0  0  0  0
   10.5677   -3.4462   20.5323 C   0  0  0  0  0  0  0  0  0  0  0  0
  1  8  1  0
  1 12  4  0
  1 14  4  0
  2  3  4  0
  2 18  4  0
  3 20  4  0
  3 22  4  0
  4 11  4  0
  4 21  4  0
  5  9  4  0
  5 16  4  0
  6 15  4  0
  6 16  4  0
  7 22  4  0
  7 26  4  0
  8 10  4  0
  8 25  4  0
  9 15  4  0
  9 17  1  0
 10 21  4  0
 11 25  4  0
 12 23  4  0
 13 20  4  0
 13 26  4  0
 14 19  4  0
 17 18  4  0
 17 24  4  0
 19 23  4  0
 20 24  4  0
 23 26  1  0
M  END
$$$$

 Created by Python create_sdf_string function

 26 30  0  0  0  0  0  0  0  0999 V2000
   10.0084   -1.8019   23.4945 C   0  0  0  0  0  0  0  0  0  0  0  0
   10.0005   -4.2520   16.5631 C   0  0  0  0  0  0  0  0  0  0  0  0
   10.2759   -4.0036   17.8845 C   0  0  0  0  0  0  0  0  0  0  0  0
    8.5652    1.5478   25.3778 N   0  0  0  0  0  0  0  0  0  0  0  0
    6.8048   -7.5457   17.8752 C   0  0  0  0  0  0  0  0  0  0  0  0
    6.1721   -8.2186   15.9886 N   0  0  0  0  0  0  0  0  0  0  0  0
   11.1764   -2.6600   19.5604 C   0  0  0  0  0  0  0  0  0  0  0  0
    9.5491   -0.6380   24.1912 C   0  0  0  0  0  0  0  0  0  0  0  0
    7.5337   -6.9256   16.9519 C   0  0  0  0  0  0  0  0  0  0  0  0
    9.6782    0.5671   23.5143 C   0  0  0  0  0  0  0  0  0  0  0  0
    8.4532    0.3482   26.0821 C   0  0  0  0  0  0  0  0  0  0  0  0
   10.4239   -1.7677   22.2230 N   0  0  0  0  0  0  0  0  0  0  0  0
    9.9468   -4.5953   20.1709 C   0  0  0  0  0  0  0  0  0  0  0  0
   10.0366   -3.0590   23.9864 N   0  0  0  0  0  0  0  0  0  0  0  0
    7.1191   -7.3636   15.7739 C   0  0  0  0  0  0  0  0  0  0  0  0
    5.9612   -8.3203   17.2732 N   0  0  0  0  0  0  0  0  0  0  0  0
    8.5296   -5.9814   17.1841 C   0  0  0  0  0  0  0  0  0  0  0  0
    9.1527   -5.2118   16.2116 C   0  0  0  0  0  0  0  0  0  0  0  0
   10.3364   -3.8368   22.9255 O   0  0  0  0  0  0  0  0  0  0  0  0
    9.6947   -4.8407   18.8534 C   0  0  0  0  0  0  0  0  0  0  0  0
    9.1596    1.7042   24.1381 C   0  0  0  0  0  0  0  0  0  0  0  0
   11.0456   -2.9774   18.2694 N   0  0  0  0  0  0  0  0  0  0  0  0
   10.4788   -3.0457   21.8593 C   0  0  0  0  0  0  0  0  0  0  0  0
    8.8693   -5.8099   18.4657 N   0  0  0  0  0  0  0  0  0  0  0  0
    8.9892   -0.7926   25.4573 C   0  0  0  0  0  0  0  0  0  0  0  0
   10.5677   -3.4462   20.5323 C   0  0  0  0  0  0  0  0  0  0  0  0
  1  8  1  0
  1 12  4  0
  1 14  4  0
  2  3  4  0
  2 18  4  0
  3 20  4  0
  3 22  4  0
  4 11  4  0
  4 21  4  0
  5  9  4  0
  5 16  4  0
  6 15  4  0
  6 16  4  0
  7 22  4  0
  7 26  4  0
  8 10  4  0
  8 25  4  0
  9 15  4  0
  9 17  1  0
 10 21  4  0
 11 25  4  0
 12 23  4  0
 13 20  4  0
 13 26  4  0
 14 19  4  0
 17 18  4  0
 17 24  4  0
 19 23  4  0
 20 24  4  0
 23 26  1  0
M  END
$$$$

 Created by Python create_sdf_string function

 26 30  0  0  0  0  0  0  0  0999 V2000
   10.0084   -1.8019   23.4945 C   0  0  0  0  0  0  0  0  0  0  0  0
   10.0005   -4.2520   16.5631 C   0  0  0  0  0  0  0  0  0  0  0  0
   10.2759   -4.0036   17.8845 C   0  0  0  0  0  0  0  0  0  0  0  0
    8.5652    1.5478   25.3778 N   0  0  0  0  0  0  0  0  0  0  0  0
    6.8048   -7.5457   17.8752 C   0  0  0  0  0  0  0  0  0  0  0  0
    6.1721   -8.2186   15.9886 N   0  0  0  0  0  0  0  0  0  0  0  0
   11.1764   -2.6600   19.5604 C   0  0  0  0  0  0  0  0  0  0  0  0
    9.5491   -0.6380   24.1912 C   0  0  0  0  0  0  0  0  0  0  0  0
    7.5337   -6.9256   16.9519 C   0  0  0  0  0  0  0  0  0  0  0  0
    9.6782    0.5671   23.5143 C   0  0  0  0  0  0  0  0  0  0  0  0
    8.4532    0.3482   26.0821 C   0  0  0  0  0  0  0  0  0  0  0  0
   10.4239   -1.7677   22.2230 N   0  0  0  0  0  0  0  0  0  0  0  0
    9.9468   -4.5953   20.1709 C   0  0  0  0  0  0  0  0  0  0  0  0
   10.0366   -3.0590   23.9864 N   0  0  0  0  0  0  0  0  0  0  0  0
    7.1191   -7.3636   15.7739 C   0  0  0  0  0  0  0  0  0  0  0  0
    5.9612   -8.3203   17.2732 N   0  0  0  0  0  0  0  0  0  0  0  0
    8.5296   -5.9814   17.1841 C   0  0  0  0  0  0  0  0  0  0  0  0
    9.1527   -5.2118   16.2116 C   0  0  0  0  0  0  0  0  0  0  0  0
   10.3364   -3.8368   22.9255 O   0  0  0  0  0  0  0  0  0  0  0  0
    9.6947   -4.8407   18.8534 C   0  0  0  0  0  0  0  0  0  0  0  0
    9.1596    1.7042   24.1381 C   0  0  0  0  0  0  0  0  0  0  0  0
   11.0456   -2.9774   18.2694 N   0  0  0  0  0  0  0  0  0  0  0  0
   10.4788   -3.0457   21.8593 C   0  0  0  0  0  0  0  0  0  0  0  0
    8.8693   -5.8099   18.4657 N   0  0  0  0  0  0  0  0  0  0  0  0
    8.9892   -0.7926   25.4573 C   0  0  0  0  0  0  0  0  0  0  0  0
   10.5677   -3.4462   20.5323 C   0  0  0  0  0  0  0  0  0  0  0  0
  1  8  1  0
  1 12  4  0
  1 14  4  0
  2  3  4  0
  2 18  4  0
  3 20  4  0
  3 22  4  0
  4 11  4  0
  4 21  4  0
  5  9  4  0
  5 16  4  0
  6 15  4  0
  6 16  4  0
  7 22  4  0
  7 26  4  0
  8 10  4  0
  8 25  4  0
  9 15  4  0
  9 17  1  0
 10 21  4  0
 11 25  4  0
 12 23  4  0
 13 20  4  0
 13 26  4  0
 14 19  4  0
 17 18  4  0
 17 24  4  0
 19 23  4  0
 20 24  4  0
 23 26  1  0
M  END
$$$$

 Created by Python create_sdf_string function

 26 30  0  0  0  0  0  0  0  0999 V2000
   10.0084   -1.8019   23.4945 C   0  0  0  0  0  0  0  0  0  0  0  0
   10.0005   -4.2520   16.5631 C   0  0  0  0  0  0  0  0  0  0  0  0
   10.2759   -4.0036   17.8845 C   0  0  0  0  0  0  0  0  0  0  0  0
    8.5652    1.5478   25.3778 N   0  0  0  0  0  0  0  0  0  0  0  0
    6.8048   -7.5457   17.8752 C   0  0  0  0  0  0  0  0  0  0  0  0
    6.1721   -8.2186   15.9886 N   0  0  0  0  0  0  0  0  0  0  0  0
   11.1764   -2.6600   19.5604 C   0  0  0  0  0  0  0  0  0  0  0  0
    9.5491   -0.6380   24.1912 C   0  0  0  0  0  0  0  0  0  0  0  0
    7.5337   -6.9256   16.9519 C   0  0  0  0  0  0  0  0  0  0  0  0
    9.6782    0.5671   23.5143 C   0  0  0  0  0  0  0  0  0  0  0  0
    8.4532    0.3482   26.0821 C   0  0  0  0  0  0  0  0  0  0  0  0
   10.4239   -1.7677   22.2230 N   0  0  0  0  0  0  0  0  0  0  0  0
    9.9468   -4.5953   20.1709 C   0  0  0  0  0  0  0  0  0  0  0  0
   10.0366   -3.0590   23.9864 N   0  0  0  0  0  0  0  0  0  0  0  0
    7.1191   -7.3636   15.7739 C   0  0  0  0  0  0  0  0  0  0  0  0
    5.9612   -8.3203   17.2732 N   0  0  0  0  0  0  0  0  0  0  0  0
    8.5296   -5.9814   17.1841 C   0  0  0  0  0  0  0  0  0  0  0  0
    9.1527   -5.2118   16.2116 C   0  0  0  0  0  0  0  0  0  0  0  0
   10.3364   -3.8368   22.9255 O   0  0  0  0  0  0  0  0  0  0  0  0
    9.6947   -4.8407   18.8534 C   0  0  0  0  0  0  0  0  0  0  0  0
    9.1596    1.7042   24.1381 C   0  0  0  0  0  0  0  0  0  0  0  0
   11.0456   -2.9774   18.2694 N   0  0  0  0  0  0  0  0  0  0  0  0
   10.4788   -3.0457   21.8593 C   0  0  0  0  0  0  0  0  0  0  0  0
    8.8693   -5.8099   18.4657 N   0  0  0  0  0  0  0  0  0  0  0  0
    8.9892   -0.7926   25.4573 C   0  0  0  0  0  0  0  0  0  0  0  0
   10.5677   -3.4462   20.5323 C   0  0  0  0  0  0  0  0  0  0  0  0
  1  8  1  0
  1 12  4  0
  1 14  4  0
  2  3  4  0
  2 18  4  0
  3 20  4  0
  3 22  4  0
  4 11  4  0
  4 21  4  0
  5  9  4  0
  5 16  4  0
  6 15  4  0
  6 16  4  0
  7 22  4  0
  7 26  4  0
  8 10  4  0
  8 25  4  0
  9 15  4  0
  9 17  1  0
 10 21  4  0
 11 25  4  0
 12 23  4  0
 13 20  4  0
 13 26  4  0
 14 19  4  0
 17 18  4  0
 17 24  4  0
 19 23  4  0
 20 24  4  0
 23 26  1  0
M  END
$$$$

 Created by Python create_sdf_string function

 26 30  0  0  0  0  0  0  0  0999 V2000
   10.0084   -1.8019   23.4945 C   0  0  0  0  0  0  0  0  0  0  0  0
   10.0005   -4.2520   16.5631 C   0  0  0  0  0  0  0  0  0  0  0  0
   10.2759   -4.0036   17.8845 C   0  0  0  0  0  0  0  0  0  0  0  0
    8.5652    1.5478   25.3778 N   0  0  0  0  0  0  0  0  0  0  0  0
    6.8048   -7.5457   17.8752 C   0  0  0  0  0  0  0  0  0  0  0  0
    6.1721   -8.2186   15.9886 N   0  0  0  0  0  0  0  0  0  0  0  0
   11.1764   -2.6600   19.5604 C   0  0  0  0  0  0  0  0  0  0  0  0
    9.5491   -0.6380   24.1912 C   0  0  0  0  0  0  0  0  0  0  0  0
    7.5337   -6.9256   16.9519 C   0  0  0  0  0  0  0  0  0  0  0  0
    9.6782    0.5671   23.5143 C   0  0  0  0  0  0  0  0  0  0  0  0
    8.4532    0.3482   26.0821 C   0  0  0  0  0  0  0  0  0  0  0  0
   10.4239   -1.7677   22.2230 N   0  0  0  0  0  0  0  0  0  0  0  0
    9.9468   -4.5953   20.1709 C   0  0  0  0  0  0  0  0  0  0  0  0
   10.0366   -3.0590   23.9864 N   0  0  0  0  0  0  0  0  0  0  0  0
    7.1191   -7.3636   15.7739 C   0  0  0  0  0  0  0  0  0  0  0  0
    5.9612   -8.3203   17.2732 N   0  0  0  0  0  0  0  0  0  0  0  0
    8.5296   -5.9814   17.1841 C   0  0  0  0  0  0  0  0  0  0  0  0
    9.1527   -5.2118   16.2116 C   0  0  0  0  0  0  0  0  0  0  0  0
   10.3364   -3.8368   22.9255 O   0  0  0  0  0  0  0  0  0  0  0  0
    9.6947   -4.8407   18.8534 C   0  0  0  0  0  0  0  0  0  0  0  0
    9.1596    1.7042   24.1381 C   0  0  0  0  0  0  0  0  0  0  0  0
   11.0456   -2.9774   18.2694 N   0  0  0  0  0  0  0  0  0  0  0  0
   10.4788   -3.0457   21.8593 C   0  0  0  0  0  0  0  0  0  0  0  0
    8.8693   -5.8099   18.4657 N   0  0  0  0  0  0  0  0  0  0  0  0
    8.9892   -0.7926   25.4573 C   0  0  0  0  0  0  0  0  0  0  0  0
   10.5677   -3.4462   20.5323 C   0  0  0  0  0  0  0  0  0  0  0  0
  1  8  1  0
  1 12  4  0
  1 14  4  0
  2  3  4  0
  2 18  4  0
  3 20  4  0
  3 22  4  0
  4 11  4  0
  4 21  4  0
  5  9  4  0
  5 16  4  0
  6 15  4  0
  6 16  4  0
  7 22  4  0
  7 26  4  0
  8 10  4  0
  8 25  4  0
  9 15  4  0
  9 17  1  0
 10 21  4  0
 11 25  4  0
 12 23  4  0
 13 20  4  0
 13 26  4  0
 14 19  4  0
 17 18  4  0
 17 24  4  0
 19 23  4  0
 20 24  4  0
 23 26  1  0
M  END
$$$$

 Created by Python create_sdf_string function

 26 30  0  0  0  0  0  0  0  0999 V2000
   10.0084   -1.8019   23.4945 C   0  0  0  0  0  0  0  0  0  0  0  0
   10.0005   -4.2520   16.5631 C   0  0  0  0  0  0  0  0  0  0  0  0
   10.2759   -4.0036   17.8845 C   0  0  0  0  0  0  0  0  0  0  0  0
    8.5652    1.5478   25.3778 N   0  0  0  0  0  0  0  0  0  0  0  0
    6.8048   -7.5457   17.8752 C   0  0  0  0  0  0  0  0  0  0  0  0
    6.1721   -8.2186   15.9886 N   0  0  0  0  0  0  0  0  0  0  0  0
   11.1764   -2.6600   19.5604 C   0  0  0  0  0  0  0  0  0  0  0  0
    9.5491   -0.6380   24.1912 C   0  0  0  0  0  0  0  0  0  0  0  0
    7.5337   -6.9256   16.9519 C   0  0  0  0  0  0  0  0  0  0  0  0
    9.6782    0.5671   23.5143 C   0  0  0  0  0  0  0  0  0  0  0  0
    8.4532    0.3482   26.0821 C   0  0  0  0  0  0  0  0  0  0  0  0
   10.4239   -1.7677   22.2230 N   0  0  0  0  0  0  0  0  0  0  0  0
    9.9468   -4.5953   20.1709 C   0  0  0  0  0  0  0  0  0  0  0  0
   10.0366   -3.0590   23.9864 N   0  0  0  0  0  0  0  0  0  0  0  0
    7.1191   -7.3636   15.7739 C   0  0  0  0  0  0  0  0  0  0  0  0
    5.9612   -8.3203   17.2732 N   0  0  0  0  0  0  0  0  0  0  0  0
    8.5296   -5.9814   17.1841 C   0  0  0  0  0  0  0  0  0  0  0  0
    9.1527   -5.2118   16.2116 C   0  0  0  0  0  0  0  0  0  0  0  0
   10.3364   -3.8368   22.9255 O   0  0  0  0  0  0  0  0  0  0  0  0
    9.6947   -4.8407   18.8534 C   0  0  0  0  0  0  0  0  0  0  0  0
    9.1596    1.7042   24.1381 C   0  0  0  0  0  0  0  0  0  0  0  0
   11.0456   -2.9774   18.2694 N   0  0  0  0  0  0  0  0  0  0  0  0
   10.4788   -3.0457   21.8593 C   0  0  0  0  0  0  0  0  0  0  0  0
    8.8693   -5.8099   18.4657 N   0  0  0  0  0  0  0  0  0  0  0  0
    8.9892   -0.7926   25.4573 C   0  0  0  0  0  0  0  0  0  0  0  0
   10.5677   -3.4462   20.5323 C   0  0  0  0  0  0  0  0  0  0  0  0
  1  8  1  0
  1 12  4  0
  1 14  4  0
  2  3  4  0
  2 18  4  0
  3 20  4  0
  3 22  4  0
  4 11  4  0
  4 21  4  0
  5  9  4  0
  5 16  4  0
  6 15  4  0
  6 16  4  0
  7 22  4  0
  7 26  4  0
  8 10  4  0
  8 25  4  0
  9 15  4  0
  9 17  1  0
 10 21  4  0
 11 25  4  0
 12 23  4  0
 13 20  4  0
 13 26  4  0
 14 19  4  0
 17 18  4  0
 17 24  4  0
 19 23  4  0
 20 24  4  0
 23 26  1  0
M  END
$$$$

 Created by Python create_sdf_string function

 26 30  0  0  0  0  0  0  0  0999 V2000
   10.0084   -1.8019   23.4945 C   0  0  0  0  0  0  0  0  0  0  0  0
   10.0005   -4.2520   16.5631 C   0  0  0  0  0  0  0  0  0  0  0  0
   10.2759   -4.0036   17.8845 C   0  0  0  0  0  0  0  0  0  0  0  0
    8.5652    1.5478   25.3778 N   0  0  0  0  0  0  0  0  0  0  0  0
    6.8048   -7.5457   17.8752 C   0  0  0  0  0  0  0  0  0  0  0  0
    6.1721   -8.2186   15.9886 N   0  0  0  0  0  0  0  0  0  0  0  0
   11.1764   -2.6600   19.5604 C   0  0  0  0  0  0  0  0  0  0  0  0
    9.5491   -0.6380   24.1912 C   0  0  0  0  0  0  0  0  0  0  0  0
    7.5337   -6.9256   16.9519 C   0  0  0  0  0  0  0  0  0  0  0  0
    9.6782    0.5671   23.5143 C   0  0  0  0  0  0  0  0  0  0  0  0
    8.4532    0.3482   26.0821 C   0  0  0  0  0  0  0  0  0  0  0  0
   10.4239   -1.7677   22.2230 N   0  0  0  0  0  0  0  0  0  0  0  0
    9.9468   -4.5953   20.1709 C   0  0  0  0  0  0  0  0  0  0  0  0
   10.0366   -3.0590   23.9864 N   0  0  0  0  0  0  0  0  0  0  0  0
    7.1191   -7.3636   15.7739 C   0  0  0  0  0  0  0  0  0  0  0  0
    5.9612   -8.3203   17.2732 N   0  0  0  0  0  0  0  0  0  0  0  0
    8.5296   -5.9814   17.1841 C   0  0  0  0  0  0  0  0  0  0  0  0
    9.1527   -5.2118   16.2116 C   0  0  0  0  0  0  0  0  0  0  0  0
   10.3364   -3.8368   22.9255 O   0  0  0  0  0  0  0  0  0  0  0  0
    9.6947   -4.8407   18.8534 C   0  0  0  0  0  0  0  0  0  0  0  0
    9.1596    1.7042   24.1381 C   0  0  0  0  0  0  0  0  0  0  0  0
   11.0456   -2.9774   18.2694 N   0  0  0  0  0  0  0  0  0  0  0  0
   10.4788   -3.0457   21.8593 C   0  0  0  0  0  0  0  0  0  0  0  0
    8.8693   -5.8099   18.4657 N   0  0  0  0  0  0  0  0  0  0  0  0
    8.9892   -0.7926   25.4573 C   0  0  0  0  0  0  0  0  0  0  0  0
   10.5677   -3.4462   20.5323 C   0  0  0  0  0  0  0  0  0  0  0  0
  1  8  1  0
  1 12  4  0
  1 14  4  0
  2  3  4  0
  2 18  4  0
  3 20  4  0
  3 22  4  0
  4 11  4  0
  4 21  4  0
  5  9  4  0
  5 16  4  0
  6 15  4  0
  6 16  4  0
  7 22  4  0
  7 26  4  0
  8 10  4  0
  8 25  4  0
  9 15  4  0
  9 17  1  0
 10 21  4  0
 11 25  4  0
 12 23  4  0
 13 20  4  0
 13 26  4  0
 14 19  4  0
 17 18  4  0
 17 24  4  0
 19 23  4  0
 20 24  4  0
 23 26  1  0
M  END
$$$$

 Created by Python create_sdf_string function

 26 30  0  0  0  0  0  0  0  0999 V2000
   10.0084   -1.8019   23.4945 C   0  0  0  0  0  0  0  0  0  0  0  0
   10.0005   -4.2520   16.5631 C   0  0  0  0  0  0  0  0  0  0  0  0
   10.2759   -4.0036   17.8845 C   0  0  0  0  0  0  0  0  0  0  0  0
    8.5652    1.5478   25.3778 N   0  0  0  0  0  0  0  0  0  0  0  0
    6.8048   -7.5457   17.8752 C   0  0  0  0  0  0  0  0  0  0  0  0
    6.1721   -8.2186   15.9886 N   0  0  0  0  0  0  0  0  0  0  0  0
   11.1764   -2.6600   19.5604 C   0  0  0  0  0  0  0  0  0  0  0  0
    9.5491   -0.6380   24.1912 C   0  0  0  0  0  0  0  0  0  0  0  0
    7.5337   -6.9256   16.9519 C   0  0  0  0  0  0  0  0  0  0  0  0
    9.6782    0.5671   23.5143 C   0  0  0  0  0  0  0  0  0  0  0  0
    8.4532    0.3482   26.0821 C   0  0  0  0  0  0  0  0  0  0  0  0
   10.4239   -1.7677   22.2230 N   0  0  0  0  0  0  0  0  0  0  0  0
    9.9468   -4.5953   20.1709 C   0  0  0  0  0  0  0  0  0  0  0  0
   10.0366   -3.0590   23.9864 N   0  0  0  0  0  0  0  0  0  0  0  0
    7.1191   -7.3636   15.7739 C   0  0  0  0  0  0  0  0  0  0  0  0
    5.9612   -8.3203   17.2732 N   0  0  0  0  0  0  0  0  0  0  0  0
    8.5296   -5.9814   17.1841 C   0  0  0  0  0  0  0  0  0  0  0  0
    9.1527   -5.2118   16.2116 C   0  0  0  0  0  0  0  0  0  0  0  0
   10.3364   -3.8368   22.9255 O   0  0  0  0  0  0  0  0  0  0  0  0
    9.6947   -4.8407   18.8534 C   0  0  0  0  0  0  0  0  0  0  0  0
    9.1596    1.7042   24.1381 C   0  0  0  0  0  0  0  0  0  0  0  0
   11.0456   -2.9774   18.2694 N   0  0  0  0  0  0  0  0  0  0  0  0
   10.4788   -3.0457   21.8593 C   0  0  0  0  0  0  0  0  0  0  0  0
    8.8693   -5.8099   18.4657 N   0  0  0  0  0  0  0  0  0  0  0  0
    8.9892   -0.7926   25.4573 C   0  0  0  0  0  0  0  0  0  0  0  0
   10.5677   -3.4462   20.5323 C   0  0  0  0  0  0  0  0  0  0  0  0
  1  8  1  0
  1 12  4  0
  1 14  4  0
  2  3  4  0
  2 18  4  0
  3 20  4  0
  3 22  4  0
  4 11  4  0
  4 21  4  0
  5  9  4  0
  5 16  4  0
  6 15  4  0
  6 16  4  0
  7 22  4  0
  7 26  4  0
  8 10  4  0
  8 25  4  0
  9 15  4  0
  9 17  1  0
 10 21  4  0
 11 25  4  0
 12 23  4  0
 13 20  4  0
 13 26  4  0
 14 19  4  0
 17 18  4  0
 17 24  4  0
 19 23  4  0
 20 24  4  0
 23 26  1  0
M  END
$$$$

 Created by Python create_sdf_string function

 26 30  0  0  0  0  0  0  0  0999 V2000
   10.0084   -1.8019   23.4945 C   0  0  0  0  0  0  0  0  0  0  0  0
   10.0005   -4.2520   16.5631 C   0  0  0  0  0  0  0  0  0  0  0  0
   10.2759   -4.0036   17.8845 C   0  0  0  0  0  0  0  0  0  0  0  0
    8.5652    1.5478   25.3778 N   0  0  0  0  0  0  0  0  0  0  0  0
    6.8048   -7.5457   17.8752 C   0  0  0  0  0  0  0  0  0  0  0  0
    6.1721   -8.2186   15.9886 N   0  0  0  0  0  0  0  0  0  0  0  0
   11.1764   -2.6600   19.5604 C   0  0  0  0  0  0  0  0  0  0  0  0
    9.5491   -0.6380   24.1912 C   0  0  0  0  0  0  0  0  0  0  0  0
    7.5337   -6.9256   16.9519 C   0  0  0  0  0  0  0  0  0  0  0  0
    9.6782    0.5671   23.5143 C   0  0  0  0  0  0  0  0  0  0  0  0
    8.4532    0.3482   26.0821 C   0  0  0  0  0  0  0  0  0  0  0  0
   10.4239   -1.7677   22.2230 N   0  0  0  0  0  0  0  0  0  0  0  0
    9.9468   -4.5953   20.1709 C   0  0  0  0  0  0  0  0  0  0  0  0
   10.0366   -3.0590   23.9864 N   0  0  0  0  0  0  0  0  0  0  0  0
    7.1191   -7.3636   15.7739 C   0  0  0  0  0  0  0  0  0  0  0  0
    5.9612   -8.3203   17.2732 N   0  0  0  0  0  0  0  0  0  0  0  0
    8.5296   -5.9814   17.1841 C   0  0  0  0  0  0  0  0  0  0  0  0
    9.1527   -5.2118   16.2116 C   0  0  0  0  0  0  0  0  0  0  0  0
   10.3364   -3.8368   22.9255 O   0  0  0  0  0  0  0  0  0  0  0  0
    9.6947   -4.8407   18.8534 C   0  0  0  0  0  0  0  0  0  0  0  0
    9.1596    1.7042   24.1381 C   0  0  0  0  0  0  0  0  0  0  0  0
   11.0456   -2.9774   18.2694 N   0  0  0  0  0  0  0  0  0  0  0  0
   10.4788   -3.0457   21.8593 C   0  0  0  0  0  0  0  0  0  0  0  0
    8.8693   -5.8099   18.4657 N   0  0  0  0  0  0  0  0  0  0  0  0
    8.9892   -0.7926   25.4573 C   0  0  0  0  0  0  0  0  0  0  0  0
   10.5677   -3.4462   20.5323 C   0  0  0  0  0  0  0  0  0  0  0  0
  1  8  1  0
  1 12  4  0
  1 14  4  0
  2  3  4  0
  2 18  4  0
  3 20  4  0
  3 22  4  0
  4 11  4  0
  4 21  4  0
  5  9  4  0
  5 16  4  0
  6 15  4  0
  6 16  4  0
  7 22  4  0
  7 26  4  0
  8 10  4  0
  8 25  4  0
  9 15  4  0
  9 17  1  0
 10 21  4  0
 11 25  4  0
 12 23  4  0
 13 20  4  0
 13 26  4  0
 14 19  4  0
 17 18  4  0
 17 24  4  0
 19 23  4  0
 20 24  4  0
 23 26  1  0
M  END
$$$$

 Created by Python create_sdf_string function

 26 30  0  0  0  0  0  0  0  0999 V2000
   10.0084   -1.8019   23.4945 C   0  0  0  0  0  0  0  0  0  0  0  0
   10.0005   -4.2520   16.5631 C   0  0  0  0  0  0  0  0  0  0  0  0
   10.2759   -4.0036   17.8845 C   0  0  0  0  0  0  0  0  0  0  0  0
    8.5652    1.5478   25.3778 N   0  0  0  0  0  0  0  0  0  0  0  0
    6.8048   -7.5457   17.8752 C   0  0  0  0  0  0  0  0  0  0  0  0
    6.1721   -8.2186   15.9886 N   0  0  0  0  0  0  0  0  0  0  0  0
   11.1764   -2.6600   19.5604 C   0  0  0  0  0  0  0  0  0  0  0  0
    9.5491   -0.6380   24.1912 C   0  0  0  0  0  0  0  0  0  0  0  0
    7.5337   -6.9256   16.9519 C   0  0  0  0  0  0  0  0  0  0  0  0
    9.6782    0.5671   23.5143 C   0  0  0  0  0  0  0  0  0  0  0  0
    8.4532    0.3482   26.0821 C   0  0  0  0  0  0  0  0  0  0  0  0
   10.4239   -1.7677   22.2230 N   0  0  0  0  0  0  0  0  0  0  0  0
    9.9468   -4.5953   20.1709 C   0  0  0  0  0  0  0  0  0  0  0  0
   10.0366   -3.0590   23.9864 N   0  0  0  0  0  0  0  0  0  0  0  0
    7.1191   -7.3636   15.7739 C   0  0  0  0  0  0  0  0  0  0  0  0
    5.9612   -8.3203   17.2732 N   0  0  0  0  0  0  0  0  0  0  0  0
    8.5296   -5.9814   17.1841 C   0  0  0  0  0  0  0  0  0  0  0  0
    9.1527   -5.2118   16.2116 C   0  0  0  0  0  0  0  0  0  0  0  0
   10.3364   -3.8368   22.9255 O   0  0  0  0  0  0  0  0  0  0  0  0
    9.6947   -4.8407   18.8534 C   0  0  0  0  0  0  0  0  0  0  0  0
    9.1596    1.7042   24.1381 C   0  0  0  0  0  0  0  0  0  0  0  0
   11.0456   -2.9774   18.2694 N   0  0  0  0  0  0  0  0  0  0  0  0
   10.4788   -3.0457   21.8593 C   0  0  0  0  0  0  0  0  0  0  0  0
    8.8693   -5.8099   18.4657 N   0  0  0  0  0  0  0  0  0  0  0  0
    8.9892   -0.7926   25.4573 C   0  0  0  0  0  0  0  0  0  0  0  0
   10.5677   -3.4462   20.5323 C   0  0  0  0  0  0  0  0  0  0  0  0
  1  8  1  0
  1 12  4  0
  1 14  4  0
  2  3  4  0
  2 18  4  0
  3 20  4  0
  3 22  4  0
  4 11  4  0
  4 21  4  0
  5  9  4  0
  5 16  4  0
  6 15  4  0
  6 16  4  0
  7 22  4  0
  7 26  4  0
  8 10  4  0
  8 25  4  0
  9 15  4  0
  9 17  1  0
 10 21  4  0
 11 25  4  0
 12 23  4  0
 13 20  4  0
 13 26  4  0
 14 19  4  0
 17 18  4  0
 17 24  4  0
 19 23  4  0
 20 24  4  0
 23 26  1  0
M  END
$$$$

 Created by Python create_sdf_string function

 26 30  0  0  0  0  0  0  0  0999 V2000
   10.0084   -1.8019   23.4945 C   0  0  0  0  0  0  0  0  0  0  0  0
   10.0005   -4.2520   16.5631 C   0  0  0  0  0  0  0  0  0  0  0  0
   10.2759   -4.0036   17.8845 C   0  0  0  0  0  0  0  0  0  0  0  0
    8.5652    1.5478   25.3778 N   0  0  0  0  0  0  0  0  0  0  0  0
    6.8048   -7.5457   17.8752 C   0  0  0  0  0  0  0  0  0  0  0  0
    6.1721   -8.2186   15.9886 N   0  0  0  0  0  0  0  0  0  0  0  0
   11.1764   -2.6600   19.5604 C   0  0  0  0  0  0  0  0  0  0  0  0
    9.5491   -0.6380   24.1912 C   0  0  0  0  0  0  0  0  0  0  0  0
    7.5337   -6.9256   16.9519 C   0  0  0  0  0  0  0  0  0  0  0  0
    9.6782    0.5671   23.5143 C   0  0  0  0  0  0  0  0  0  0  0  0
    8.4532    0.3482   26.0821 C   0  0  0  0  0  0  0  0  0  0  0  0
   10.4239   -1.7677   22.2230 N   0  0  0  0  0  0  0  0  0  0  0  0
    9.9468   -4.5953   20.1709 C   0  0  0  0  0  0  0  0  0  0  0  0
   10.0366   -3.0590   23.9864 N   0  0  0  0  0  0  0  0  0  0  0  0
    7.1191   -7.3636   15.7739 C   0  0  0  0  0  0  0  0  0  0  0  0
    5.9612   -8.3203   17.2732 N   0  0  0  0  0  0  0  0  0  0  0  0
    8.5296   -5.9814   17.1841 C   0  0  0  0  0  0  0  0  0  0  0  0
    9.1527   -5.2118   16.2116 C   0  0  0  0  0  0  0  0  0  0  0  0
   10.3364   -3.8368   22.9255 O   0  0  0  0  0  0  0  0  0  0  0  0
    9.6947   -4.8407   18.8534 C   0  0  0  0  0  0  0  0  0  0  0  0
    9.1596    1.7042   24.1381 C   0  0  0  0  0  0  0  0  0  0  0  0
   11.0456   -2.9774   18.2694 N   0  0  0  0  0  0  0  0  0  0  0  0
   10.4788   -3.0457   21.8593 C   0  0  0  0  0  0  0  0  0  0  0  0
    8.8693   -5.8099   18.4657 N   0  0  0  0  0  0  0  0  0  0  0  0
    8.9892   -0.7926   25.4573 C   0  0  0  0  0  0  0  0  0  0  0  0
   10.5677   -3.4462   20.5323 C   0  0  0  0  0  0  0  0  0  0  0  0
  1  8  1  0
  1 12  4  0
  1 14  4  0
  2  3  4  0
  2 18  4  0
  3 20  4  0
  3 22  4  0
  4 11  4  0
  4 21  4  0
  5  9  4  0
  5 16  4  0
  6 15  4  0
  6 16  4  0
  7 22  4  0
  7 26  4  0
  8 10  4  0
  8 25  4  0
  9 15  4  0
  9 17  1  0
 10 21  4  0
 11 25  4  0
 12 23  4  0
 13 20  4  0
 13 26  4  0
 14 19  4  0
 17 18  4  0
 17 24  4  0
 19 23  4  0
 20 24  4  0
 23 26  1  0
M  END
$$$$

 Created by Python create_sdf_string function

 26 30  0  0  0  0  0  0  0  0999 V2000
   10.0084   -1.8019   23.4945 C   0  0  0  0  0  0  0  0  0  0  0  0
   10.0005   -4.2520   16.5631 C   0  0  0  0  0  0  0  0  0  0  0  0
   10.2759   -4.0036   17.8845 C   0  0  0  0  0  0  0  0  0  0  0  0
    8.5652    1.5478   25.3778 N   0  0  0  0  0  0  0  0  0  0  0  0
    6.8048   -7.5457   17.8752 C   0  0  0  0  0  0  0  0  0  0  0  0
    6.1721   -8.2186   15.9886 N   0  0  0  0  0  0  0  0  0  0  0  0
   11.1764   -2.6600   19.5604 C   0  0  0  0  0  0  0  0  0  0  0  0
    9.5491   -0.6380   24.1912 C   0  0  0  0  0  0  0  0  0  0  0  0
    7.5337   -6.9256   16.9519 C   0  0  0  0  0  0  0  0  0  0  0  0
    9.6782    0.5671   23.5143 C   0  0  0  0  0  0  0  0  0  0  0  0
    8.4532    0.3482   26.0821 C   0  0  0  0  0  0  0  0  0  0  0  0
   10.4239   -1.7677   22.2230 N   0  0  0  0  0  0  0  0  0  0  0  0
    9.9468   -4.5953   20.1709 C   0  0  0  0  0  0  0  0  0  0  0  0
   10.0366   -3.0590   23.9864 N   0  0  0  0  0  0  0  0  0  0  0  0
    7.1191   -7.3636   15.7739 C   0  0  0  0  0  0  0  0  0  0  0  0
    5.9612   -8.3203   17.2732 N   0  0  0  0  0  0  0  0  0  0  0  0
    8.5296   -5.9814   17.1841 C   0  0  0  0  0  0  0  0  0  0  0  0
    9.1527   -5.2118   16.2116 C   0  0  0  0  0  0  0  0  0  0  0  0
   10.3364   -3.8368   22.9255 O   0  0  0  0  0  0  0  0  0  0  0  0
    9.6947   -4.8407   18.8534 C   0  0  0  0  0  0  0  0  0  0  0  0
    9.1596    1.7042   24.1381 C   0  0  0  0  0  0  0  0  0  0  0  0
   11.0456   -2.9774   18.2694 N   0  0  0  0  0  0  0  0  0  0  0  0
   10.4788   -3.0457   21.8593 C   0  0  0  0  0  0  0  0  0  0  0  0
    8.8693   -5.8099   18.4657 N   0  0  0  0  0  0  0  0  0  0  0  0
    8.9892   -0.7926   25.4573 C   0  0  0  0  0  0  0  0  0  0  0  0
   10.5677   -3.4462   20.5323 C   0  0  0  0  0  0  0  0  0  0  0  0
  1  8  1  0
  1 12  4  0
  1 14  4  0
  2  3  4  0
  2 18  4  0
  3 20  4  0
  3 22  4  0
  4 11  4  0
  4 21  4  0
  5  9  4  0
  5 16  4  0
  6 15  4  0
  6 16  4  0
  7 22  4  0
  7 26  4  0
  8 10  4  0
  8 25  4  0
  9 15  4  0
  9 17  1  0
 10 21  4  0
 11 25  4  0
 12 23  4  0
 13 20  4  0
 13 26  4  0
 14 19  4  0
 17 18  4  0
 17 24  4  0
 19 23  4  0
 20 24  4  0
 23 26  1  0
M  END
$$$$

 Created by Python create_sdf_string function

 26 30  0  0  0  0  0  0  0  0999 V2000
   10.0084   -1.8019   23.4945 C   0  0  0  0  0  0  0  0  0  0  0  0
   10.0005   -4.2520   16.5631 C   0  0  0  0  0  0  0  0  0  0  0  0
   10.2759   -4.0036   17.8845 C   0  0  0  0  0  0  0  0  0  0  0  0
    8.5652    1.5478   25.3778 N   0  0  0  0  0  0  0  0  0  0  0  0
    6.8048   -7.5457   17.8752 C   0  0  0  0  0  0  0  0  0  0  0  0
    6.1721   -8.2186   15.9886 N   0  0  0  0  0  0  0  0  0  0  0  0
   11.1764   -2.6600   19.5604 C   0  0  0  0  0  0  0  0  0  0  0  0
    9.5491   -0.6380   24.1912 C   0  0  0  0  0  0  0  0  0  0  0  0
    7.5337   -6.9256   16.9519 C   0  0  0  0  0  0  0  0  0  0  0  0
    9.6782    0.5671   23.5143 C   0  0  0  0  0  0  0  0  0  0  0  0
    8.4532    0.3482   26.0821 C   0  0  0  0  0  0  0  0  0  0  0  0
   10.4239   -1.7677   22.2230 N   0  0  0  0  0  0  0  0  0  0  0  0
    9.9468   -4.5953   20.1709 C   0  0  0  0  0  0  0  0  0  0  0  0
   10.0366   -3.0590   23.9864 N   0  0  0  0  0  0  0  0  0  0  0  0
    7.1191   -7.3636   15.7739 C   0  0  0  0  0  0  0  0  0  0  0  0
    5.9612   -8.3203   17.2732 N   0  0  0  0  0  0  0  0  0  0  0  0
    8.5296   -5.9814   17.1841 C   0  0  0  0  0  0  0  0  0  0  0  0
    9.1527   -5.2118   16.2116 C   0  0  0  0  0  0  0  0  0  0  0  0
   10.3364   -3.8368   22.9255 O   0  0  0  0  0  0  0  0  0  0  0  0
    9.6947   -4.8407   18.8534 C   0  0  0  0  0  0  0  0  0  0  0  0
    9.1596    1.7042   24.1381 C   0  0  0  0  0  0  0  0  0  0  0  0
   11.0456   -2.9774   18.2694 N   0  0  0  0  0  0  0  0  0  0  0  0
   10.4788   -3.0457   21.8593 C   0  0  0  0  0  0  0  0  0  0  0  0
    8.8693   -5.8099   18.4657 N   0  0  0  0  0  0  0  0  0  0  0  0
    8.9892   -0.7926   25.4573 C   0  0  0  0  0  0  0  0  0  0  0  0
   10.5677   -3.4462   20.5323 C   0  0  0  0  0  0  0  0  0  0  0  0
  1  8  1  0
  1 12  4  0
  1 14  4  0
  2  3  4  0
  2 18  4  0
  3 20  4  0
  3 22  4  0
  4 11  4  0
  4 21  4  0
  5  9  4  0
  5 16  4  0
  6 15  4  0
  6 16  4  0
  7 22  4  0
  7 26  4  0
  8 10  4  0
  8 25  4  0
  9 15  4  0
  9 17  1  0
 10 21  4  0
 11 25  4  0
 12 23  4  0
 13 20  4  0
 13 26  4  0
 14 19  4  0
 17 18  4  0
 17 24  4  0
 19 23  4  0
 20 24  4  0
 23 26  1  0
M  END
$$$$

 Created by Python create_sdf_string function

 26 30  0  0  0  0  0  0  0  0999 V2000
   10.0084   -1.8019   23.4945 C   0  0  0  0  0  0  0  0  0  0  0  0
   10.0005   -4.2520   16.5631 C   0  0  0  0  0  0  0  0  0  0  0  0
   10.2759   -4.0036   17.8845 C   0  0  0  0  0  0  0  0  0  0  0  0
    8.5652    1.5478   25.3778 N   0  0  0  0  0  0  0  0  0  0  0  0
    6.8048   -7.5457   17.8752 C   0  0  0  0  0  0  0  0  0  0  0  0
    6.1721   -8.2186   15.9886 N   0  0  0  0  0  0  0  0  0  0  0  0
   11.1764   -2.6600   19.5604 C   0  0  0  0  0  0  0  0  0  0  0  0
    9.5491   -0.6380   24.1912 C   0  0  0  0  0  0  0  0  0  0  0  0
    7.5337   -6.9256   16.9519 C   0  0  0  0  0  0  0  0  0  0  0  0
    9.6782    0.5671   23.5143 C   0  0  0  0  0  0  0  0  0  0  0  0
    8.4532    0.3482   26.0821 C   0  0  0  0  0  0  0  0  0  0  0  0
   10.4239   -1.7677   22.2230 N   0  0  0  0  0  0  0  0  0  0  0  0
    9.9468   -4.5953   20.1709 C   0  0  0  0  0  0  0  0  0  0  0  0
   10.0366   -3.0590   23.9864 N   0  0  0  0  0  0  0  0  0  0  0  0
    7.1191   -7.3636   15.7739 C   0  0  0  0  0  0  0  0  0  0  0  0
    5.9612   -8.3203   17.2732 N   0  0  0  0  0  0  0  0  0  0  0  0
    8.5296   -5.9814   17.1841 C   0  0  0  0  0  0  0  0  0  0  0  0
    9.1527   -5.2118   16.2116 C   0  0  0  0  0  0  0  0  0  0  0  0
   10.3364   -3.8368   22.9255 O   0  0  0  0  0  0  0  0  0  0  0  0
    9.6947   -4.8407   18.8534 C   0  0  0  0  0  0  0  0  0  0  0  0
    9.1596    1.7042   24.1381 C   0  0  0  0  0  0  0  0  0  0  0  0
   11.0456   -2.9774   18.2694 N   0  0  0  0  0  0  0  0  0  0  0  0
   10.4788   -3.0457   21.8593 C   0  0  0  0  0  0  0  0  0  0  0  0
    8.8693   -5.8099   18.4657 N   0  0  0  0  0  0  0  0  0  0  0  0
    8.9892   -0.7926   25.4573 C   0  0  0  0  0  0  0  0  0  0  0  0
   10.5677   -3.4462   20.5323 C   0  0  0  0  0  0  0  0  0  0  0  0
  1  8  1  0
  1 12  4  0
  1 14  4  0
  2  3  4  0
  2 18  4  0
  3 20  4  0
  3 22  4  0
  4 11  4  0
  4 21  4  0
  5  9  4  0
  5 16  4  0
  6 15  4  0
  6 16  4  0
  7 22  4  0
  7 26  4  0
  8 10  4  0
  8 25  4  0
  9 15  4  0
  9 17  1  0
 10 21  4  0
 11 25  4  0
 12 23  4  0
 13 20  4  0
 13 26  4  0
 14 19  4  0
 17 18  4  0
 17 24  4  0
 19 23  4  0
 20 24  4  0
 23 26  1  0
M  END
$$$$

 Created by Python create_sdf_string function

 26 30  0  0  0  0  0  0  0  0999 V2000
   10.0084   -1.8019   23.4945 C   0  0  0  0  0  0  0  0  0  0  0  0
   10.0005   -4.2520   16.5631 C   0  0  0  0  0  0  0  0  0  0  0  0
   10.2759   -4.0036   17.8845 C   0  0  0  0  0  0  0  0  0  0  0  0
    8.5652    1.5478   25.3778 N   0  0  0  0  0  0  0  0  0  0  0  0
    6.8048   -7.5457   17.8752 C   0  0  0  0  0  0  0  0  0  0  0  0
    6.1721   -8.2186   15.9886 N   0  0  0  0  0  0  0  0  0  0  0  0
   11.1764   -2.6600   19.5604 C   0  0  0  0  0  0  0  0  0  0  0  0
    9.5491   -0.6380   24.1912 C   0  0  0  0  0  0  0  0  0  0  0  0
    7.5337   -6.9256   16.9519 C   0  0  0  0  0  0  0  0  0  0  0  0
    9.6782    0.5671   23.5143 C   0  0  0  0  0  0  0  0  0  0  0  0
    8.4532    0.3482   26.0821 C   0  0  0  0  0  0  0  0  0  0  0  0
   10.4239   -1.7677   22.2230 N   0  0  0  0  0  0  0  0  0  0  0  0
    9.9468   -4.5953   20.1709 C   0  0  0  0  0  0  0  0  0  0  0  0
   10.0366   -3.0590   23.9864 N   0  0  0  0  0  0  0  0  0  0  0  0
    7.1191   -7.3636   15.7739 C   0  0  0  0  0  0  0  0  0  0  0  0
    5.9612   -8.3203   17.2732 N   0  0  0  0  0  0  0  0  0  0  0  0
    8.5296   -5.9814   17.1841 C   0  0  0  0  0  0  0  0  0  0  0  0
    9.1527   -5.2118   16.2116 C   0  0  0  0  0  0  0  0  0  0  0  0
   10.3364   -3.8368   22.9255 O   0  0  0  0  0  0  0  0  0  0  0  0
    9.6947   -4.8407   18.8534 C   0  0  0  0  0  0  0  0  0  0  0  0
    9.1596    1.7042   24.1381 C   0  0  0  0  0  0  0  0  0  0  0  0
   11.0456   -2.9774   18.2694 N   0  0  0  0  0  0  0  0  0  0  0  0
   10.4788   -3.0457   21.8593 C   0  0  0  0  0  0  0  0  0  0  0  0
    8.8693   -5.8099   18.4657 N   0  0  0  0  0  0  0  0  0  0  0  0
    8.9892   -0.7926   25.4573 C   0  0  0  0  0  0  0  0  0  0  0  0
   10.5677   -3.4462   20.5323 C   0  0  0  0  0  0  0  0  0  0  0  0
  1  8  1  0
  1 12  4  0
  1 14  4  0
  2  3  4  0
  2 18  4  0
  3 20  4  0
  3 22  4  0
  4 11  4  0
  4 21  4  0
  5  9  4  0
  5 16  4  0
  6 15  4  0
  6 16  4  0
  7 22  4  0
  7 26  4  0
  8 10  4  0
  8 25  4  0
  9 15  4  0
  9 17  1  0
 10 21  4  0
 11 25  4  0
 12 23  4  0
 13 20  4  0
 13 26  4  0
 14 19  4  0
 17 18  4  0
 17 24  4  0
 19 23  4  0
 20 24  4  0
 23 26  1  0
M  END
$$$$

 Created by Python create_sdf_string function

 26 30  0  0  0  0  0  0  0  0999 V2000
   10.0084   -1.8019   23.4945 C   0  0  0  0  0  0  0  0  0  0  0  0
   10.0005   -4.2520   16.5631 C   0  0  0  0  0  0  0  0  0  0  0  0
   10.2759   -4.0036   17.8845 C   0  0  0  0  0  0  0  0  0  0  0  0
    8.5652    1.5478   25.3778 N   0  0  0  0  0  0  0  0  0  0  0  0
    6.8048   -7.5457   17.8752 C   0  0  0  0  0  0  0  0  0  0  0  0
    6.1721   -8.2186   15.9886 N   0  0  0  0  0  0  0  0  0  0  0  0
   11.1764   -2.6600   19.5604 C   0  0  0  0  0  0  0  0  0  0  0  0
    9.5491   -0.6380   24.1912 C   0  0  0  0  0  0  0  0  0  0  0  0
    7.5337   -6.9256   16.9519 C   0  0  0  0  0  0  0  0  0  0  0  0
    9.6782    0.5671   23.5143 C   0  0  0  0  0  0  0  0  0  0  0  0
    8.4532    0.3482   26.0821 C   0  0  0  0  0  0  0  0  0  0  0  0
   10.4239   -1.7677   22.2230 N   0  0  0  0  0  0  0  0  0  0  0  0
    9.9468   -4.5953   20.1709 C   0  0  0  0  0  0  0  0  0  0  0  0
   10.0366   -3.0590   23.9864 N   0  0  0  0  0  0  0  0  0  0  0  0
    7.1191   -7.3636   15.7739 C   0  0  0  0  0  0  0  0  0  0  0  0
    5.9612   -8.3203   17.2732 N   0  0  0  0  0  0  0  0  0  0  0  0
    8.5296   -5.9814   17.1841 C   0  0  0  0  0  0  0  0  0  0  0  0
    9.1527   -5.2118   16.2116 C   0  0  0  0  0  0  0  0  0  0  0  0
   10.3364   -3.8368   22.9255 O   0  0  0  0  0  0  0  0  0  0  0  0
    9.6947   -4.8407   18.8534 C   0  0  0  0  0  0  0  0  0  0  0  0
    9.1596    1.7042   24.1381 C   0  0  0  0  0  0  0  0  0  0  0  0
   11.0456   -2.9774   18.2694 N   0  0  0  0  0  0  0  0  0  0  0  0
   10.4788   -3.0457   21.8593 C   0  0  0  0  0  0  0  0  0  0  0  0
    8.8693   -5.8099   18.4657 N   0  0  0  0  0  0  0  0  0  0  0  0
    8.9892   -0.7926   25.4573 C   0  0  0  0  0  0  0  0  0  0  0  0
   10.5677   -3.4462   20.5323 C   0  0  0  0  0  0  0  0  0  0  0  0
  1  8  1  0
  1 12  4  0
  1 14  4  0
  2  3  4  0
  2 18  4  0
  3 20  4  0
  3 22  4  0
  4 11  4  0
  4 21  4  0
  5  9  4  0
  5 16  4  0
  6 15  4  0
  6 16  4  0
  7 22  4  0
  7 26  4  0
  8 10  4  0
  8 25  4  0
  9 15  4  0
  9 17  1  0
 10 21  4  0
 11 25  4  0
 12 23  4  0
 13 20  4  0
 13 26  4  0
 14 19  4  0
 17 18  4  0
 17 24  4  0
 19 23  4  0
 20 24  4  0
 23 26  1  0
M  END
$$$$

 Created by Python create_sdf_string function

 26 30  0  0  0  0  0  0  0  0999 V2000
   10.0084   -1.8019   23.4945 C   0  0  0  0  0  0  0  0  0  0  0  0
   10.0005   -4.2520   16.5631 C   0  0  0  0  0  0  0  0  0  0  0  0
   10.2759   -4.0036   17.8845 C   0  0  0  0  0  0  0  0  0  0  0  0
    8.5652    1.5478   25.3778 N   0  0  0  0  0  0  0  0  0  0  0  0
    6.8048   -7.5457   17.8752 C   0  0  0  0  0  0  0  0  0  0  0  0
    6.1721   -8.2186   15.9886 N   0  0  0  0  0  0  0  0  0  0  0  0
   11.1764   -2.6600   19.5604 C   0  0  0  0  0  0  0  0  0  0  0  0
    9.5491   -0.6380   24.1912 C   0  0  0  0  0  0  0  0  0  0  0  0
    7.5337   -6.9256   16.9519 C   0  0  0  0  0  0  0  0  0  0  0  0
    9.6782    0.5671   23.5143 C   0  0  0  0  0  0  0  0  0  0  0  0
    8.4532    0.3482   26.0821 C   0  0  0  0  0  0  0  0  0  0  0  0
   10.4239   -1.7677   22.2230 N   0  0  0  0  0  0  0  0  0  0  0  0
    9.9468   -4.5953   20.1709 C   0  0  0  0  0  0  0  0  0  0  0  0
   10.0366   -3.0590   23.9864 N   0  0  0  0  0  0  0  0  0  0  0  0
    7.1191   -7.3636   15.7739 C   0  0  0  0  0  0  0  0  0  0  0  0
    5.9612   -8.3203   17.2732 N   0  0  0  0  0  0  0  0  0  0  0  0
    8.5296   -5.9814   17.1841 C   0  0  0  0  0  0  0  0  0  0  0  0
    9.1527   -5.2118   16.2116 C   0  0  0  0  0  0  0  0  0  0  0  0
   10.3364   -3.8368   22.9255 O   0  0  0  0  0  0  0  0  0  0  0  0
    9.6947   -4.8407   18.8534 C   0  0  0  0  0  0  0  0  0  0  0  0
    9.1596    1.7042   24.1381 C   0  0  0  0  0  0  0  0  0  0  0  0
   11.0456   -2.9774   18.2694 N   0  0  0  0  0  0  0  0  0  0  0  0
   10.4788   -3.0457   21.8593 C   0  0  0  0  0  0  0  0  0  0  0  0
    8.8693   -5.8099   18.4657 N   0  0  0  0  0  0  0  0  0  0  0  0
    8.9892   -0.7926   25.4573 C   0  0  0  0  0  0  0  0  0  0  0  0
   10.5677   -3.4462   20.5323 C   0  0  0  0  0  0  0  0  0  0  0  0
  1  8  1  0
  1 12  4  0
  1 14  4  0
  2  3  4  0
  2 18  4  0
  3 20  4  0
  3 22  4  0
  4 11  4  0
  4 21  4  0
  5  9  4  0
  5 16  4  0
  6 15  4  0
  6 16  4  0
  7 22  4  0
  7 26  4  0
  8 10  4  0
  8 25  4  0
  9 15  4  0
  9 17  1  0
 10 21  4  0
 11 25  4  0
 12 23  4  0
 13 20  4  0
 13 26  4  0
 14 19  4  0
 17 18  4  0
 17 24  4  0
 19 23  4  0
 20 24  4  0
 23 26  1  0
M  END
$$$$

 Created by Python create_sdf_string function

 26 30  0  0  0  0  0  0  0  0999 V2000
   10.0084   -1.8019   23.4945 C   0  0  0  0  0  0  0  0  0  0  0  0
   10.0005   -4.2520   16.5631 C   0  0  0  0  0  0  0  0  0  0  0  0
   10.2759   -4.0036   17.8845 C   0  0  0  0  0  0  0  0  0  0  0  0
    8.5652    1.5478   25.3778 N   0  0  0  0  0  0  0  0  0  0  0  0
    6.8048   -7.5457   17.8752 C   0  0  0  0  0  0  0  0  0  0  0  0
    6.1721   -8.2186   15.9886 N   0  0  0  0  0  0  0  0  0  0  0  0
   11.1764   -2.6600   19.5604 C   0  0  0  0  0  0  0  0  0  0  0  0
    9.5491   -0.6380   24.1912 C   0  0  0  0  0  0  0  0  0  0  0  0
    7.5337   -6.9256   16.9519 C   0  0  0  0  0  0  0  0  0  0  0  0
    9.6782    0.5671   23.5143 C   0  0  0  0  0  0  0  0  0  0  0  0
    8.4532    0.3482   26.0821 C   0  0  0  0  0  0  0  0  0  0  0  0
   10.4239   -1.7677   22.2230 N   0  0  0  0  0  0  0  0  0  0  0  0
    9.9468   -4.5953   20.1709 C   0  0  0  0  0  0  0  0  0  0  0  0
   10.0366   -3.0590   23.9864 N   0  0  0  0  0  0  0  0  0  0  0  0
    7.1191   -7.3636   15.7739 C   0  0  0  0  0  0  0  0  0  0  0  0
    5.9612   -8.3203   17.2732 N   0  0  0  0  0  0  0  0  0  0  0  0
    8.5296   -5.9814   17.1841 C   0  0  0  0  0  0  0  0  0  0  0  0
    9.1527   -5.2118   16.2116 C   0  0  0  0  0  0  0  0  0  0  0  0
   10.3364   -3.8368   22.9255 O   0  0  0  0  0  0  0  0  0  0  0  0
    9.6947   -4.8407   18.8534 C   0  0  0  0  0  0  0  0  0  0  0  0
    9.1596    1.7042   24.1381 C   0  0  0  0  0  0  0  0  0  0  0  0
   11.0456   -2.9774   18.2694 N   0  0  0  0  0  0  0  0  0  0  0  0
   10.4788   -3.0457   21.8593 C   0  0  0  0  0  0  0  0  0  0  0  0
    8.8693   -5.8099   18.4657 N   0  0  0  0  0  0  0  0  0  0  0  0
    8.9892   -0.7926   25.4573 C   0  0  0  0  0  0  0  0  0  0  0  0
   10.5677   -3.4462   20.5323 C   0  0  0  0  0  0  0  0  0  0  0  0
  1  8  1  0
  1 12  4  0
  1 14  4  0
  2  3  4  0
  2 18  4  0
  3 20  4  0
  3 22  4  0
  4 11  4  0
  4 21  4  0
  5  9  4  0
  5 16  4  0
  6 15  4  0
  6 16  4  0
  7 22  4  0
  7 26  4  0
  8 10  4  0
  8 25  4  0
  9 15  4  0
  9 17  1  0
 10 21  4  0
 11 25  4  0
 12 23  4  0
 13 20  4  0
 13 26  4  0
 14 19  4  0
 17 18  4  0
 17 24  4  0
 19 23  4  0
 20 24  4  0
 23 26  1  0
M  END
$$$$

 Created by Python create_sdf_string function

 26 30  0  0  0  0  0  0  0  0999 V2000
   10.0084   -1.8019   23.4945 C   0  0  0  0  0  0  0  0  0  0  0  0
   10.0005   -4.2520   16.5631 C   0  0  0  0  0  0  0  0  0  0  0  0
   10.2759   -4.0036   17.8845 C   0  0  0  0  0  0  0  0  0  0  0  0
    8.5652    1.5478   25.3778 N   0  0  0  0  0  0  0  0  0  0  0  0
    6.8048   -7.5457   17.8752 C   0  0  0  0  0  0  0  0  0  0  0  0
    6.1721   -8.2186   15.9886 N   0  0  0  0  0  0  0  0  0  0  0  0
   11.1764   -2.6600   19.5604 C   0  0  0  0  0  0  0  0  0  0  0  0
    9.5491   -0.6380   24.1912 C   0  0  0  0  0  0  0  0  0  0  0  0
    7.5337   -6.9256   16.9519 C   0  0  0  0  0  0  0  0  0  0  0  0
    9.6782    0.5671   23.5143 C   0  0  0  0  0  0  0  0  0  0  0  0
    8.4532    0.3482   26.0821 C   0  0  0  0  0  0  0  0  0  0  0  0
   10.4239   -1.7677   22.2230 N   0  0  0  0  0  0  0  0  0  0  0  0
    9.9468   -4.5953   20.1709 C   0  0  0  0  0  0  0  0  0  0  0  0
   10.0366   -3.0590   23.9864 N   0  0  0  0  0  0  0  0  0  0  0  0
    7.1191   -7.3636   15.7739 C   0  0  0  0  0  0  0  0  0  0  0  0
    5.9612   -8.3203   17.2732 N   0  0  0  0  0  0  0  0  0  0  0  0
    8.5296   -5.9814   17.1841 C   0  0  0  0  0  0  0  0  0  0  0  0
    9.1527   -5.2118   16.2116 C   0  0  0  0  0  0  0  0  0  0  0  0
   10.3364   -3.8368   22.9255 O   0  0  0  0  0  0  0  0  0  0  0  0
    9.6947   -4.8407   18.8534 C   0  0  0  0  0  0  0  0  0  0  0  0
    9.1596    1.7042   24.1381 C   0  0  0  0  0  0  0  0  0  0  0  0
   11.0456   -2.9774   18.2694 N   0  0  0  0  0  0  0  0  0  0  0  0
   10.4788   -3.0457   21.8593 C   0  0  0  0  0  0  0  0  0  0  0  0
    8.8693   -5.8099   18.4657 N   0  0  0  0  0  0  0  0  0  0  0  0
    8.9892   -0.7926   25.4573 C   0  0  0  0  0  0  0  0  0  0  0  0
   10.5677   -3.4462   20.5323 C   0  0  0  0  0  0  0  0  0  0  0  0
  1  8  1  0
  1 12  4  0
  1 14  4  0
  2  3  4  0
  2 18  4  0
  3 20  4  0
  3 22  4  0
  4 11  4  0
  4 21  4  0
  5  9  4  0
  5 16  4  0
  6 15  4  0
  6 16  4  0
  7 22  4  0
  7 26  4  0
  8 10  4  0
  8 25  4  0
  9 15  4  0
  9 17  1  0
 10 21  4  0
 11 25  4  0
 12 23  4  0
 13 20  4  0
 13 26  4  0
 14 19  4  0
 17 18  4  0
 17 24  4  0
 19 23  4  0
 20 24  4  0
 23 26  1  0
M  END
$$$$

 Created by Python create_sdf_string function

 26 30  0  0  0  0  0  0  0  0999 V2000
   10.0084   -1.8019   23.4945 C   0  0  0  0  0  0  0  0  0  0  0  0
   10.0005   -4.2520   16.5631 C   0  0  0  0  0  0  0  0  0  0  0  0
   10.2759   -4.0036   17.8845 C   0  0  0  0  0  0  0  0  0  0  0  0
    8.5652    1.5478   25.3778 N   0  0  0  0  0  0  0  0  0  0  0  0
    6.8048   -7.5457   17.8752 C   0  0  0  0  0  0  0  0  0  0  0  0
    6.1721   -8.2186   15.9886 N   0  0  0  0  0  0  0  0  0  0  0  0
   11.1764   -2.6600   19.5604 C   0  0  0  0  0  0  0  0  0  0  0  0
    9.5491   -0.6380   24.1912 C   0  0  0  0  0  0  0  0  0  0  0  0
    7.5337   -6.9256   16.9519 C   0  0  0  0  0  0  0  0  0  0  0  0
    9.6782    0.5671   23.5143 C   0  0  0  0  0  0  0  0  0  0  0  0
    8.4532    0.3482   26.0821 C   0  0  0  0  0  0  0  0  0  0  0  0
   10.4239   -1.7677   22.2230 N   0  0  0  0  0  0  0  0  0  0  0  0
    9.9468   -4.5953   20.1709 C   0  0  0  0  0  0  0  0  0  0  0  0
   10.0366   -3.0590   23.9864 N   0  0  0  0  0  0  0  0  0  0  0  0
    7.1191   -7.3636   15.7739 C   0  0  0  0  0  0  0  0  0  0  0  0
    5.9612   -8.3203   17.2732 N   0  0  0  0  0  0  0  0  0  0  0  0
    8.5296   -5.9814   17.1841 C   0  0  0  0  0  0  0  0  0  0  0  0
    9.1527   -5.2118   16.2116 C   0  0  0  0  0  0  0  0  0  0  0  0
   10.3364   -3.8368   22.9255 O   0  0  0  0  0  0  0  0  0  0  0  0
    9.6947   -4.8407   18.8534 C   0  0  0  0  0  0  0  0  0  0  0  0
    9.1596    1.7042   24.1381 C   0  0  0  0  0  0  0  0  0  0  0  0
   11.0456   -2.9774   18.2694 N   0  0  0  0  0  0  0  0  0  0  0  0
   10.4788   -3.0457   21.8593 C   0  0  0  0  0  0  0  0  0  0  0  0
    8.8693   -5.8099   18.4657 N   0  0  0  0  0  0  0  0  0  0  0  0
    8.9892   -0.7926   25.4573 C   0  0  0  0  0  0  0  0  0  0  0  0
   10.5677   -3.4462   20.5323 C   0  0  0  0  0  0  0  0  0  0  0  0
  1  8  1  0
  1 12  4  0
  1 14  4  0
  2  3  4  0
  2 18  4  0
  3 20  4  0
  3 22  4  0
  4 11  4  0
  4 21  4  0
  5  9  4  0
  5 16  4  0
  6 15  4  0
  6 16  4  0
  7 22  4  0
  7 26  4  0
  8 10  4  0
  8 25  4  0
  9 15  4  0
  9 17  1  0
 10 21  4  0
 11 25  4  0
 12 23  4  0
 13 20  4  0
 13 26  4  0
 14 19  4  0
 17 18  4  0
 17 24  4  0
 19 23  4  0
 20 24  4  0
 23 26  1  0
M  END
$$$$

 Created by Python create_sdf_string function

 26 30  0  0  0  0  0  0  0  0999 V2000
   10.0084   -1.8019   23.4945 C   0  0  0  0  0  0  0  0  0  0  0  0
   10.0005   -4.2520   16.5631 C   0  0  0  0  0  0  0  0  0  0  0  0
   10.2759   -4.0036   17.8845 C   0  0  0  0  0  0  0  0  0  0  0  0
    8.5652    1.5478   25.3778 N   0  0  0  0  0  0  0  0  0  0  0  0
    6.8048   -7.5457   17.8752 C   0  0  0  0  0  0  0  0  0  0  0  0
    6.1721   -8.2186   15.9886 N   0  0  0  0  0  0  0  0  0  0  0  0
   11.1764   -2.6600   19.5604 C   0  0  0  0  0  0  0  0  0  0  0  0
    9.5491   -0.6380   24.1912 C   0  0  0  0  0  0  0  0  0  0  0  0
    7.5337   -6.9256   16.9519 C   0  0  0  0  0  0  0  0  0  0  0  0
    9.6782    0.5671   23.5143 C   0  0  0  0  0  0  0  0  0  0  0  0
    8.4532    0.3482   26.0821 C   0  0  0  0  0  0  0  0  0  0  0  0
   10.4239   -1.7677   22.2230 N   0  0  0  0  0  0  0  0  0  0  0  0
    9.9468   -4.5953   20.1709 C   0  0  0  0  0  0  0  0  0  0  0  0
   10.0366   -3.0590   23.9864 N   0  0  0  0  0  0  0  0  0  0  0  0
    7.1191   -7.3636   15.7739 C   0  0  0  0  0  0  0  0  0  0  0  0
    5.9612   -8.3203   17.2732 N   0  0  0  0  0  0  0  0  0  0  0  0
    8.5296   -5.9814   17.1841 C   0  0  0  0  0  0  0  0  0  0  0  0
    9.1527   -5.2118   16.2116 C   0  0  0  0  0  0  0  0  0  0  0  0
   10.3364   -3.8368   22.9255 O   0  0  0  0  0  0  0  0  0  0  0  0
    9.6947   -4.8407   18.8534 C   0  0  0  0  0  0  0  0  0  0  0  0
    9.1596    1.7042   24.1381 C   0  0  0  0  0  0  0  0  0  0  0  0
   11.0456   -2.9774   18.2694 N   0  0  0  0  0  0  0  0  0  0  0  0
   10.4788   -3.0457   21.8593 C   0  0  0  0  0  0  0  0  0  0  0  0
    8.8693   -5.8099   18.4657 N   0  0  0  0  0  0  0  0  0  0  0  0
    8.9892   -0.7926   25.4573 C   0  0  0  0  0  0  0  0  0  0  0  0
   10.5677   -3.4462   20.5323 C   0  0  0  0  0  0  0  0  0  0  0  0
  1  8  1  0
  1 12  4  0
  1 14  4  0
  2  3  4  0
  2 18  4  0
  3 20  4  0
  3 22  4  0
  4 11  4  0
  4 21  4  0
  5  9  4  0
  5 16  4  0
  6 15  4  0
  6 16  4  0
  7 22  4  0
  7 26  4  0
  8 10  4  0
  8 25  4  0
  9 15  4  0
  9 17  1  0
 10 21  4  0
 11 25  4  0
 12 23  4  0
 13 20  4  0
 13 26  4  0
 14 19  4  0
 17 18  4  0
 17 24  4  0
 19 23  4  0
 20 24  4  0
 23 26  1  0
M  END
$$$$

 Created by Python create_sdf_string function

 26 30  0  0  0  0  0  0  0  0999 V2000
   10.0084   -1.8019   23.4945 C   0  0  0  0  0  0  0  0  0  0  0  0
   10.0005   -4.2520   16.5631 C   0  0  0  0  0  0  0  0  0  0  0  0
   10.2759   -4.0036   17.8845 C   0  0  0  0  0  0  0  0  0  0  0  0
    8.5652    1.5478   25.3778 N   0  0  0  0  0  0  0  0  0  0  0  0
    6.8048   -7.5457   17.8752 C   0  0  0  0  0  0  0  0  0  0  0  0
    6.1721   -8.2186   15.9886 N   0  0  0  0  0  0  0  0  0  0  0  0
   11.1764   -2.6600   19.5604 C   0  0  0  0  0  0  0  0  0  0  0  0
    9.5491   -0.6380   24.1912 C   0  0  0  0  0  0  0  0  0  0  0  0
    7.5337   -6.9256   16.9519 C   0  0  0  0  0  0  0  0  0  0  0  0
    9.6782    0.5671   23.5143 C   0  0  0  0  0  0  0  0  0  0  0  0
    8.4532    0.3482   26.0821 C   0  0  0  0  0  0  0  0  0  0  0  0
   10.4239   -1.7677   22.2230 N   0  0  0  0  0  0  0  0  0  0  0  0
    9.9468   -4.5953   20.1709 C   0  0  0  0  0  0  0  0  0  0  0  0
   10.0366   -3.0590   23.9864 N   0  0  0  0  0  0  0  0  0  0  0  0
    7.1191   -7.3636   15.7739 C   0  0  0  0  0  0  0  0  0  0  0  0
    5.9612   -8.3203   17.2732 N   0  0  0  0  0  0  0  0  0  0  0  0
    8.5296   -5.9814   17.1841 C   0  0  0  0  0  0  0  0  0  0  0  0
    9.1527   -5.2118   16.2116 C   0  0  0  0  0  0  0  0  0  0  0  0
   10.3364   -3.8368   22.9255 O   0  0  0  0  0  0  0  0  0  0  0  0
    9.6947   -4.8407   18.8534 C   0  0  0  0  0  0  0  0  0  0  0  0
    9.1596    1.7042   24.1381 C   0  0  0  0  0  0  0  0  0  0  0  0
   11.0456   -2.9774   18.2694 N   0  0  0  0  0  0  0  0  0  0  0  0
   10.4788   -3.0457   21.8593 C   0  0  0  0  0  0  0  0  0  0  0  0
    8.8693   -5.8099   18.4657 N   0  0  0  0  0  0  0  0  0  0  0  0
    8.9892   -0.7926   25.4573 C   0  0  0  0  0  0  0  0  0  0  0  0
   10.5677   -3.4462   20.5323 C   0  0  0  0  0  0  0  0  0  0  0  0
  1  8  1  0
  1 12  4  0
  1 14  4  0
  2  3  4  0
  2 18  4  0
  3 20  4  0
  3 22  4  0
  4 11  4  0
  4 21  4  0
  5  9  4  0
  5 16  4  0
  6 15  4  0
  6 16  4  0
  7 22  4  0
  7 26  4  0
  8 10  4  0
  8 25  4  0
  9 15  4  0
  9 17  1  0
 10 21  4  0
 11 25  4  0
 12 23  4  0
 13 20  4  0
 13 26  4  0
 14 19  4  0
 17 18  4  0
 17 24  4  0
 19 23  4  0
 20 24  4  0
 23 26  1  0
M  END
$$$$

 Created by Python create_sdf_string function

 26 30  0  0  0  0  0  0  0  0999 V2000
   10.0084   -1.8019   23.4945 C   0  0  0  0  0  0  0  0  0  0  0  0
   10.0005   -4.2520   16.5631 C   0  0  0  0  0  0  0  0  0  0  0  0
   10.2759   -4.0036   17.8845 C   0  0  0  0  0  0  0  0  0  0  0  0
    8.5652    1.5478   25.3778 N   0  0  0  0  0  0  0  0  0  0  0  0
    6.8048   -7.5457   17.8752 C   0  0  0  0  0  0  0  0  0  0  0  0
    6.1721   -8.2186   15.9886 N   0  0  0  0  0  0  0  0  0  0  0  0
   11.1764   -2.6600   19.5604 C   0  0  0  0  0  0  0  0  0  0  0  0
    9.5491   -0.6380   24.1912 C   0  0  0  0  0  0  0  0  0  0  0  0
    7.5337   -6.9256   16.9519 C   0  0  0  0  0  0  0  0  0  0  0  0
    9.6782    0.5671   23.5143 C   0  0  0  0  0  0  0  0  0  0  0  0
    8.4532    0.3482   26.0821 C   0  0  0  0  0  0  0  0  0  0  0  0
   10.4239   -1.7677   22.2230 N   0  0  0  0  0  0  0  0  0  0  0  0
    9.9468   -4.5953   20.1709 C   0  0  0  0  0  0  0  0  0  0  0  0
   10.0366   -3.0590   23.9864 N   0  0  0  0  0  0  0  0  0  0  0  0
    7.1191   -7.3636   15.7739 C   0  0  0  0  0  0  0  0  0  0  0  0
    5.9612   -8.3203   17.2732 N   0  0  0  0  0  0  0  0  0  0  0  0
    8.5296   -5.9814   17.1841 C   0  0  0  0  0  0  0  0  0  0  0  0
    9.1527   -5.2118   16.2116 C   0  0  0  0  0  0  0  0  0  0  0  0
   10.3364   -3.8368   22.9255 O   0  0  0  0  0  0  0  0  0  0  0  0
    9.6947   -4.8407   18.8534 C   0  0  0  0  0  0  0  0  0  0  0  0
    9.1596    1.7042   24.1381 C   0  0  0  0  0  0  0  0  0  0  0  0
   11.0456   -2.9774   18.2694 N   0  0  0  0  0  0  0  0  0  0  0  0
   10.4788   -3.0457   21.8593 C   0  0  0  0  0  0  0  0  0  0  0  0
    8.8693   -5.8099   18.4657 N   0  0  0  0  0  0  0  0  0  0  0  0
    8.9892   -0.7926   25.4573 C   0  0  0  0  0  0  0  0  0  0  0  0
   10.5677   -3.4462   20.5323 C   0  0  0  0  0  0  0  0  0  0  0  0
  1  8  1  0
  1 12  4  0
  1 14  4  0
  2  3  4  0
  2 18  4  0
  3 20  4  0
  3 22  4  0
  4 11  4  0
  4 21  4  0
  5  9  4  0
  5 16  4  0
  6 15  4  0
  6 16  4  0
  7 22  4  0
  7 26  4  0
  8 10  4  0
  8 25  4  0
  9 15  4  0
  9 17  1  0
 10 21  4  0
 11 25  4  0
 12 23  4  0
 13 20  4  0
 13 26  4  0
 14 19  4  0
 17 18  4  0
 17 24  4  0
 19 23  4  0
 20 24  4  0
 23 26  1  0
M  END
$$$$

 Created by Python create_sdf_string function

 26 30  0  0  0  0  0  0  0  0999 V2000
   10.0084   -1.8019   23.4945 C   0  0  0  0  0  0  0  0  0  0  0  0
   10.0005   -4.2520   16.5631 C   0  0  0  0  0  0  0  0  0  0  0  0
   10.2759   -4.0036   17.8845 C   0  0  0  0  0  0  0  0  0  0  0  0
    8.5652    1.5478   25.3778 N   0  0  0  0  0  0  0  0  0  0  0  0
    6.8048   -7.5457   17.8752 C   0  0  0  0  0  0  0  0  0  0  0  0
    6.1721   -8.2186   15.9886 N   0  0  0  0  0  0  0  0  0  0  0  0
   11.1764   -2.6600   19.5604 C   0  0  0  0  0  0  0  0  0  0  0  0
    9.5491   -0.6380   24.1912 C   0  0  0  0  0  0  0  0  0  0  0  0
    7.5337   -6.9256   16.9519 C   0  0  0  0  0  0  0  0  0  0  0  0
    9.6782    0.5671   23.5143 C   0  0  0  0  0  0  0  0  0  0  0  0
    8.4532    0.3482   26.0821 C   0  0  0  0  0  0  0  0  0  0  0  0
   10.4239   -1.7677   22.2230 N   0  0  0  0  0  0  0  0  0  0  0  0
    9.9468   -4.5953   20.1709 C   0  0  0  0  0  0  0  0  0  0  0  0
   10.0366   -3.0590   23.9864 N   0  0  0  0  0  0  0  0  0  0  0  0
    7.1191   -7.3636   15.7739 C   0  0  0  0  0  0  0  0  0  0  0  0
    5.9612   -8.3203   17.2732 N   0  0  0  0  0  0  0  0  0  0  0  0
    8.5296   -5.9814   17.1841 C   0  0  0  0  0  0  0  0  0  0  0  0
    9.1527   -5.2118   16.2116 C   0  0  0  0  0  0  0  0  0  0  0  0
   10.3364   -3.8368   22.9255 O   0  0  0  0  0  0  0  0  0  0  0  0
    9.6947   -4.8407   18.8534 C   0  0  0  0  0  0  0  0  0  0  0  0
    9.1596    1.7042   24.1381 C   0  0  0  0  0  0  0  0  0  0  0  0
   11.0456   -2.9774   18.2694 N   0  0  0  0  0  0  0  0  0  0  0  0
   10.4788   -3.0457   21.8593 C   0  0  0  0  0  0  0  0  0  0  0  0
    8.8693   -5.8099   18.4657 N   0  0  0  0  0  0  0  0  0  0  0  0
    8.9892   -0.7926   25.4573 C   0  0  0  0  0  0  0  0  0  0  0  0
   10.5677   -3.4462   20.5323 C   0  0  0  0  0  0  0  0  0  0  0  0
  1  8  1  0
  1 12  4  0
  1 14  4  0
  2  3  4  0
  2 18  4  0
  3 20  4  0
  3 22  4  0
  4 11  4  0
  4 21  4  0
  5  9  4  0
  5 16  4  0
  6 15  4  0
  6 16  4  0
  7 22  4  0
  7 26  4  0
  8 10  4  0
  8 25  4  0
  9 15  4  0
  9 17  1  0
 10 21  4  0
 11 25  4  0
 12 23  4  0
 13 20  4  0
 13 26  4  0
 14 19  4  0
 17 18  4  0
 17 24  4  0
 19 23  4  0
 20 24  4  0
 23 26  1  0
M  END
$$$$

 Created by Python create_sdf_string function

 26 30  0  0  0  0  0  0  0  0999 V2000
   10.0084   -1.8019   23.4945 C   0  0  0  0  0  0  0  0  0  0  0  0
   10.0005   -4.2520   16.5631 C   0  0  0  0  0  0  0  0  0  0  0  0
   10.2759   -4.0036   17.8845 C   0  0  0  0  0  0  0  0  0  0  0  0
    8.5652    1.5478   25.3778 N   0  0  0  0  0  0  0  0  0  0  0  0
    6.8048   -7.5457   17.8752 C   0  0  0  0  0  0  0  0  0  0  0  0
    6.1721   -8.2186   15.9886 N   0  0  0  0  0  0  0  0  0  0  0  0
   11.1764   -2.6600   19.5604 C   0  0  0  0  0  0  0  0  0  0  0  0
    9.5491   -0.6380   24.1912 C   0  0  0  0  0  0  0  0  0  0  0  0
    7.5337   -6.9256   16.9519 C   0  0  0  0  0  0  0  0  0  0  0  0
    9.6782    0.5671   23.5143 C   0  0  0  0  0  0  0  0  0  0  0  0
    8.4532    0.3482   26.0821 C   0  0  0  0  0  0  0  0  0  0  0  0
   10.4239   -1.7677   22.2230 N   0  0  0  0  0  0  0  0  0  0  0  0
    9.9468   -4.5953   20.1709 C   0  0  0  0  0  0  0  0  0  0  0  0
   10.0366   -3.0590   23.9864 N   0  0  0  0  0  0  0  0  0  0  0  0
    7.1191   -7.3636   15.7739 C   0  0  0  0  0  0  0  0  0  0  0  0
    5.9612   -8.3203   17.2732 N   0  0  0  0  0  0  0  0  0  0  0  0
    8.5296   -5.9814   17.1841 C   0  0  0  0  0  0  0  0  0  0  0  0
    9.1527   -5.2118   16.2116 C   0  0  0  0  0  0  0  0  0  0  0  0
   10.3364   -3.8368   22.9255 O   0  0  0  0  0  0  0  0  0  0  0  0
    9.6947   -4.8407   18.8534 C   0  0  0  0  0  0  0  0  0  0  0  0
    9.1596    1.7042   24.1381 C   0  0  0  0  0  0  0  0  0  0  0  0
   11.0456   -2.9774   18.2694 N   0  0  0  0  0  0  0  0  0  0  0  0
   10.4788   -3.0457   21.8593 C   0  0  0  0  0  0  0  0  0  0  0  0
    8.8693   -5.8099   18.4657 N   0  0  0  0  0  0  0  0  0  0  0  0
    8.9892   -0.7926   25.4573 C   0  0  0  0  0  0  0  0  0  0  0  0
   10.5677   -3.4462   20.5323 C   0  0  0  0  0  0  0  0  0  0  0  0
  1  8  1  0
  1 12  4  0
  1 14  4  0
  2  3  4  0
  2 18  4  0
  3 20  4  0
  3 22  4  0
  4 11  4  0
  4 21  4  0
  5  9  4  0
  5 16  4  0
  6 15  4  0
  6 16  4  0
  7 22  4  0
  7 26  4  0
  8 10  4  0
  8 25  4  0
  9 15  4  0
  9 17  1  0
 10 21  4  0
 11 25  4  0
 12 23  4  0
 13 20  4  0
 13 26  4  0
 14 19  4  0
 17 18  4  0
 17 24  4  0
 19 23  4  0
 20 24  4  0
 23 26  1  0
M  END
$$$$

 Created by Python create_sdf_string function

 26 30  0  0  0  0  0  0  0  0999 V2000
   10.0084   -1.8019   23.4945 C   0  0  0  0  0  0  0  0  0  0  0  0
   10.0005   -4.2520   16.5631 C   0  0  0  0  0  0  0  0  0  0  0  0
   10.2759   -4.0036   17.8845 C   0  0  0  0  0  0  0  0  0  0  0  0
    8.5652    1.5478   25.3778 N   0  0  0  0  0  0  0  0  0  0  0  0
    6.8048   -7.5457   17.8752 C   0  0  0  0  0  0  0  0  0  0  0  0
    6.1721   -8.2186   15.9886 N   0  0  0  0  0  0  0  0  0  0  0  0
   11.1764   -2.6600   19.5604 C   0  0  0  0  0  0  0  0  0  0  0  0
    9.5491   -0.6380   24.1912 C   0  0  0  0  0  0  0  0  0  0  0  0
    7.5337   -6.9256   16.9519 C   0  0  0  0  0  0  0  0  0  0  0  0
    9.6782    0.5671   23.5143 C   0  0  0  0  0  0  0  0  0  0  0  0
    8.4532    0.3482   26.0821 C   0  0  0  0  0  0  0  0  0  0  0  0
   10.4239   -1.7677   22.2230 N   0  0  0  0  0  0  0  0  0  0  0  0
    9.9468   -4.5953   20.1709 C   0  0  0  0  0  0  0  0  0  0  0  0
   10.0366   -3.0590   23.9864 N   0  0  0  0  0  0  0  0  0  0  0  0
    7.1191   -7.3636   15.7739 C   0  0  0  0  0  0  0  0  0  0  0  0
    5.9612   -8.3203   17.2732 N   0  0  0  0  0  0  0  0  0  0  0  0
    8.5296   -5.9814   17.1841 C   0  0  0  0  0  0  0  0  0  0  0  0
    9.1527   -5.2118   16.2116 C   0  0  0  0  0  0  0  0  0  0  0  0
   10.3364   -3.8368   22.9255 O   0  0  0  0  0  0  0  0  0  0  0  0
    9.6947   -4.8407   18.8534 C   0  0  0  0  0  0  0  0  0  0  0  0
    9.1596    1.7042   24.1381 C   0  0  0  0  0  0  0  0  0  0  0  0
   11.0456   -2.9774   18.2694 N   0  0  0  0  0  0  0  0  0  0  0  0
   10.4788   -3.0457   21.8593 C   0  0  0  0  0  0  0  0  0  0  0  0
    8.8693   -5.8099   18.4657 N   0  0  0  0  0  0  0  0  0  0  0  0
    8.9892   -0.7926   25.4573 C   0  0  0  0  0  0  0  0  0  0  0  0
   10.5677   -3.4462   20.5323 C   0  0  0  0  0  0  0  0  0  0  0  0
  1  8  1  0
  1 12  4  0
  1 14  4  0
  2  3  4  0
  2 18  4  0
  3 20  4  0
  3 22  4  0
  4 11  4  0
  4 21  4  0
  5  9  4  0
  5 16  4  0
  6 15  4  0
  6 16  4  0
  7 22  4  0
  7 26  4  0
  8 10  4  0
  8 25  4  0
  9 15  4  0
  9 17  1  0
 10 21  4  0
 11 25  4  0
 12 23  4  0
 13 20  4  0
 13 26  4  0
 14 19  4  0
 17 18  4  0
 17 24  4  0
 19 23  4  0
 20 24  4  0
 23 26  1  0
M  END
$$$$

 Created by Python create_sdf_string function

 26 30  0  0  0  0  0  0  0  0999 V2000
   10.0084   -1.8019   23.4945 C   0  0  0  0  0  0  0  0  0  0  0  0
   10.0005   -4.2520   16.5631 C   0  0  0  0  0  0  0  0  0  0  0  0
   10.2759   -4.0036   17.8845 C   0  0  0  0  0  0  0  0  0  0  0  0
    8.5652    1.5478   25.3778 N   0  0  0  0  0  0  0  0  0  0  0  0
    6.8048   -7.5457   17.8752 C   0  0  0  0  0  0  0  0  0  0  0  0
    6.1721   -8.2186   15.9886 N   0  0  0  0  0  0  0  0  0  0  0  0
   11.1764   -2.6600   19.5604 C   0  0  0  0  0  0  0  0  0  0  0  0
    9.5491   -0.6380   24.1912 C   0  0  0  0  0  0  0  0  0  0  0  0
    7.5337   -6.9256   16.9519 C   0  0  0  0  0  0  0  0  0  0  0  0
    9.6782    0.5671   23.5143 C   0  0  0  0  0  0  0  0  0  0  0  0
    8.4532    0.3482   26.0821 C   0  0  0  0  0  0  0  0  0  0  0  0
   10.4239   -1.7677   22.2230 N   0  0  0  0  0  0  0  0  0  0  0  0
    9.9468   -4.5953   20.1709 C   0  0  0  0  0  0  0  0  0  0  0  0
   10.0366   -3.0590   23.9864 N   0  0  0  0  0  0  0  0  0  0  0  0
    7.1191   -7.3636   15.7739 C   0  0  0  0  0  0  0  0  0  0  0  0
    5.9612   -8.3203   17.2732 N   0  0  0  0  0  0  0  0  0  0  0  0
    8.5296   -5.9814   17.1841 C   0  0  0  0  0  0  0  0  0  0  0  0
    9.1527   -5.2118   16.2116 C   0  0  0  0  0  0  0  0  0  0  0  0
   10.3364   -3.8368   22.9255 O   0  0  0  0  0  0  0  0  0  0  0  0
    9.6947   -4.8407   18.8534 C   0  0  0  0  0  0  0  0  0  0  0  0
    9.1596    1.7042   24.1381 C   0  0  0  0  0  0  0  0  0  0  0  0
   11.0456   -2.9774   18.2694 N   0  0  0  0  0  0  0  0  0  0  0  0
   10.4788   -3.0457   21.8593 C   0  0  0  0  0  0  0  0  0  0  0  0
    8.8693   -5.8099   18.4657 N   0  0  0  0  0  0  0  0  0  0  0  0
    8.9892   -0.7926   25.4573 C   0  0  0  0  0  0  0  0  0  0  0  0
   10.5677   -3.4462   20.5323 C   0  0  0  0  0  0  0  0  0  0  0  0
  1  8  1  0
  1 12  4  0
  1 14  4  0
  2  3  4  0
  2 18  4  0
  3 20  4  0
  3 22  4  0
  4 11  4  0
  4 21  4  0
  5  9  4  0
  5 16  4  0
  6 15  4  0
  6 16  4  0
  7 22  4  0
  7 26  4  0
  8 10  4  0
  8 25  4  0
  9 15  4  0
  9 17  1  0
 10 21  4  0
 11 25  4  0
 12 23  4  0
 13 20  4  0
 13 26  4  0
 14 19  4  0
 17 18  4  0
 17 24  4  0
 19 23  4  0
 20 24  4  0
 23 26  1  0
M  END
$$$$

 Created by Python create_sdf_string function

 26 30  0  0  0  0  0  0  0  0999 V2000
   10.0084   -1.8019   23.4945 C   0  0  0  0  0  0  0  0  0  0  0  0
   10.0005   -4.2520   16.5631 C   0  0  0  0  0  0  0  0  0  0  0  0
   10.2759   -4.0036   17.8845 C   0  0  0  0  0  0  0  0  0  0  0  0
    8.5652    1.5478   25.3778 N   0  0  0  0  0  0  0  0  0  0  0  0
    6.8048   -7.5457   17.8752 C   0  0  0  0  0  0  0  0  0  0  0  0
    6.1721   -8.2186   15.9886 N   0  0  0  0  0  0  0  0  0  0  0  0
   11.1764   -2.6600   19.5604 C   0  0  0  0  0  0  0  0  0  0  0  0
    9.5491   -0.6380   24.1912 C   0  0  0  0  0  0  0  0  0  0  0  0
    7.5337   -6.9256   16.9519 C   0  0  0  0  0  0  0  0  0  0  0  0
    9.6782    0.5671   23.5143 C   0  0  0  0  0  0  0  0  0  0  0  0
    8.4532    0.3482   26.0821 C   0  0  0  0  0  0  0  0  0  0  0  0
   10.4239   -1.7677   22.2230 N   0  0  0  0  0  0  0  0  0  0  0  0
    9.9468   -4.5953   20.1709 C   0  0  0  0  0  0  0  0  0  0  0  0
   10.0366   -3.0590   23.9864 N   0  0  0  0  0  0  0  0  0  0  0  0
    7.1191   -7.3636   15.7739 C   0  0  0  0  0  0  0  0  0  0  0  0
    5.9612   -8.3203   17.2732 N   0  0  0  0  0  0  0  0  0  0  0  0
    8.5296   -5.9814   17.1841 C   0  0  0  0  0  0  0  0  0  0  0  0
    9.1527   -5.2118   16.2116 C   0  0  0  0  0  0  0  0  0  0  0  0
   10.3364   -3.8368   22.9255 O   0  0  0  0  0  0  0  0  0  0  0  0
    9.6947   -4.8407   18.8534 C   0  0  0  0  0  0  0  0  0  0  0  0
    9.1596    1.7042   24.1381 C   0  0  0  0  0  0  0  0  0  0  0  0
   11.0456   -2.9774   18.2694 N   0  0  0  0  0  0  0  0  0  0  0  0
   10.4788   -3.0457   21.8593 C   0  0  0  0  0  0  0  0  0  0  0  0
    8.8693   -5.8099   18.4657 N   0  0  0  0  0  0  0  0  0  0  0  0
    8.9892   -0.7926   25.4573 C   0  0  0  0  0  0  0  0  0  0  0  0
   10.5677   -3.4462   20.5323 C   0  0  0  0  0  0  0  0  0  0  0  0
  1  8  1  0
  1 12  4  0
  1 14  4  0
  2  3  4  0
  2 18  4  0
  3 20  4  0
  3 22  4  0
  4 11  4  0
  4 21  4  0
  5  9  4  0
  5 16  4  0
  6 15  4  0
  6 16  4  0
  7 22  4  0
  7 26  4  0
  8 10  4  0
  8 25  4  0
  9 15  4  0
  9 17  1  0
 10 21  4  0
 11 25  4  0
 12 23  4  0
 13 20  4  0
 13 26  4  0
 14 19  4  0
 17 18  4  0
 17 24  4  0
 19 23  4  0
 20 24  4  0
 23 26  1  0
M  END
$$$$

 Created by Python create_sdf_string function

 26 30  0  0  0  0  0  0  0  0999 V2000
   10.0084   -1.8019   23.4945 C   0  0  0  0  0  0  0  0  0  0  0  0
   10.0005   -4.2520   16.5631 C   0  0  0  0  0  0  0  0  0  0  0  0
   10.2759   -4.0036   17.8845 C   0  0  0  0  0  0  0  0  0  0  0  0
    8.5652    1.5478   25.3778 N   0  0  0  0  0  0  0  0  0  0  0  0
    6.8048   -7.5457   17.8752 C   0  0  0  0  0  0  0  0  0  0  0  0
    6.1721   -8.2186   15.9886 N   0  0  0  0  0  0  0  0  0  0  0  0
   11.1764   -2.6600   19.5604 C   0  0  0  0  0  0  0  0  0  0  0  0
    9.5491   -0.6380   24.1912 C   0  0  0  0  0  0  0  0  0  0  0  0
    7.5337   -6.9256   16.9519 C   0  0  0  0  0  0  0  0  0  0  0  0
    9.6782    0.5671   23.5143 C   0  0  0  0  0  0  0  0  0  0  0  0
    8.4532    0.3482   26.0821 C   0  0  0  0  0  0  0  0  0  0  0  0
   10.4239   -1.7677   22.2230 N   0  0  0  0  0  0  0  0  0  0  0  0
    9.9468   -4.5953   20.1709 C   0  0  0  0  0  0  0  0  0  0  0  0
   10.0366   -3.0590   23.9864 N   0  0  0  0  0  0  0  0  0  0  0  0
    7.1191   -7.3636   15.7739 C   0  0  0  0  0  0  0  0  0  0  0  0
    5.9612   -8.3203   17.2732 N   0  0  0  0  0  0  0  0  0  0  0  0
    8.5296   -5.9814   17.1841 C   0  0  0  0  0  0  0  0  0  0  0  0
    9.1527   -5.2118   16.2116 C   0  0  0  0  0  0  0  0  0  0  0  0
   10.3364   -3.8368   22.9255 O   0  0  0  0  0  0  0  0  0  0  0  0
    9.6947   -4.8407   18.8534 C   0  0  0  0  0  0  0  0  0  0  0  0
    9.1596    1.7042   24.1381 C   0  0  0  0  0  0  0  0  0  0  0  0
   11.0456   -2.9774   18.2694 N   0  0  0  0  0  0  0  0  0  0  0  0
   10.4788   -3.0457   21.8593 C   0  0  0  0  0  0  0  0  0  0  0  0
    8.8693   -5.8099   18.4657 N   0  0  0  0  0  0  0  0  0  0  0  0
    8.9892   -0.7926   25.4573 C   0  0  0  0  0  0  0  0  0  0  0  0
   10.5677   -3.4462   20.5323 C   0  0  0  0  0  0  0  0  0  0  0  0
  1  8  1  0
  1 12  4  0
  1 14  4  0
  2  3  4  0
  2 18  4  0
  3 20  4  0
  3 22  4  0
  4 11  4  0
  4 21  4  0
  5  9  4  0
  5 16  4  0
  6 15  4  0
  6 16  4  0
  7 22  4  0
  7 26  4  0
  8 10  4  0
  8 25  4  0
  9 15  4  0
  9 17  1  0
 10 21  4  0
 11 25  4  0
 12 23  4  0
 13 20  4  0
 13 26  4  0
 14 19  4  0
 17 18  4  0
 17 24  4  0
 19 23  4  0
 20 24  4  0
 23 26  1  0
M  END
$$$$

 Created by Python create_sdf_string function

 26 30  0  0  0  0  0  0  0  0999 V2000
   10.0084   -1.8019   23.4945 C   0  0  0  0  0  0  0  0  0  0  0  0
   10.0005   -4.2520   16.5631 C   0  0  0  0  0  0  0  0  0  0  0  0
   10.2759   -4.0036   17.8845 C   0  0  0  0  0  0  0  0  0  0  0  0
    8.5652    1.5478   25.3778 N   0  0  0  0  0  0  0  0  0  0  0  0
    6.8048   -7.5457   17.8752 C   0  0  0  0  0  0  0  0  0  0  0  0
    6.1721   -8.2186   15.9886 N   0  0  0  0  0  0  0  0  0  0  0  0
   11.1764   -2.6600   19.5604 C   0  0  0  0  0  0  0  0  0  0  0  0
    9.5491   -0.6380   24.1912 C   0  0  0  0  0  0  0  0  0  0  0  0
    7.5337   -6.9256   16.9519 C   0  0  0  0  0  0  0  0  0  0  0  0
    9.6782    0.5671   23.5143 C   0  0  0  0  0  0  0  0  0  0  0  0
    8.4532    0.3482   26.0821 C   0  0  0  0  0  0  0  0  0  0  0  0
   10.4239   -1.7677   22.2230 N   0  0  0  0  0  0  0  0  0  0  0  0
    9.9468   -4.5953   20.1709 C   0  0  0  0  0  0  0  0  0  0  0  0
   10.0366   -3.0590   23.9864 N   0  0  0  0  0  0  0  0  0  0  0  0
    7.1191   -7.3636   15.7739 C   0  0  0  0  0  0  0  0  0  0  0  0
    5.9612   -8.3203   17.2732 N   0  0  0  0  0  0  0  0  0  0  0  0
    8.5296   -5.9814   17.1841 C   0  0  0  0  0  0  0  0  0  0  0  0
    9.1527   -5.2118   16.2116 C   0  0  0  0  0  0  0  0  0  0  0  0
   10.3364   -3.8368   22.9255 O   0  0  0  0  0  0  0  0  0  0  0  0
    9.6947   -4.8407   18.8534 C   0  0  0  0  0  0  0  0  0  0  0  0
    9.1596    1.7042   24.1381 C   0  0  0  0  0  0  0  0  0  0  0  0
   11.0456   -2.9774   18.2694 N   0  0  0  0  0  0  0  0  0  0  0  0
   10.4788   -3.0457   21.8593 C   0  0  0  0  0  0  0  0  0  0  0  0
    8.8693   -5.8099   18.4657 N   0  0  0  0  0  0  0  0  0  0  0  0
    8.9892   -0.7926   25.4573 C   0  0  0  0  0  0  0  0  0  0  0  0
   10.5677   -3.4462   20.5323 C   0  0  0  0  0  0  0  0  0  0  0  0
  1  8  1  0
  1 12  4  0
  1 14  4  0
  2  3  4  0
  2 18  4  0
  3 20  4  0
  3 22  4  0
  4 11  4  0
  4 21  4  0
  5  9  4  0
  5 16  4  0
  6 15  4  0
  6 16  4  0
  7 22  4  0
  7 26  4  0
  8 10  4  0
  8 25  4  0
  9 15  4  0
  9 17  1  0
 10 21  4  0
 11 25  4  0
 12 23  4  0
 13 20  4  0
 13 26  4  0
 14 19  4  0
 17 18  4  0
 17 24  4  0
 19 23  4  0
 20 24  4  0
 23 26  1  0
M  END
$$$$

 Created by Python create_sdf_string function

 26 30  0  0  0  0  0  0  0  0999 V2000
   10.0084   -1.8019   23.4945 C   0  0  0  0  0  0  0  0  0  0  0  0
   10.0005   -4.2520   16.5631 C   0  0  0  0  0  0  0  0  0  0  0  0
   10.2759   -4.0036   17.8845 C   0  0  0  0  0  0  0  0  0  0  0  0
    8.5652    1.5478   25.3778 N   0  0  0  0  0  0  0  0  0  0  0  0
    6.8048   -7.5457   17.8752 C   0  0  0  0  0  0  0  0  0  0  0  0
    6.1721   -8.2186   15.9886 N   0  0  0  0  0  0  0  0  0  0  0  0
   11.1764   -2.6600   19.5604 C   0  0  0  0  0  0  0  0  0  0  0  0
    9.5491   -0.6380   24.1912 C   0  0  0  0  0  0  0  0  0  0  0  0
    7.5337   -6.9256   16.9519 C   0  0  0  0  0  0  0  0  0  0  0  0
    9.6782    0.5671   23.5143 C   0  0  0  0  0  0  0  0  0  0  0  0
    8.4532    0.3482   26.0821 C   0  0  0  0  0  0  0  0  0  0  0  0
   10.4239   -1.7677   22.2230 N   0  0  0  0  0  0  0  0  0  0  0  0
    9.9468   -4.5953   20.1709 C   0  0  0  0  0  0  0  0  0  0  0  0
   10.0366   -3.0590   23.9864 N   0  0  0  0  0  0  0  0  0  0  0  0
    7.1191   -7.3636   15.7739 C   0  0  0  0  0  0  0  0  0  0  0  0
    5.9612   -8.3203   17.2732 N   0  0  0  0  0  0  0  0  0  0  0  0
    8.5296   -5.9814   17.1841 C   0  0  0  0  0  0  0  0  0  0  0  0
    9.1527   -5.2118   16.2116 C   0  0  0  0  0  0  0  0  0  0  0  0
   10.3364   -3.8368   22.9255 O   0  0  0  0  0  0  0  0  0  0  0  0
    9.6947   -4.8407   18.8534 C   0  0  0  0  0  0  0  0  0  0  0  0
    9.1596    1.7042   24.1381 C   0  0  0  0  0  0  0  0  0  0  0  0
   11.0456   -2.9774   18.2694 N   0  0  0  0  0  0  0  0  0  0  0  0
   10.4788   -3.0457   21.8593 C   0  0  0  0  0  0  0  0  0  0  0  0
    8.8693   -5.8099   18.4657 N   0  0  0  0  0  0  0  0  0  0  0  0
    8.9892   -0.7926   25.4573 C   0  0  0  0  0  0  0  0  0  0  0  0
   10.5677   -3.4462   20.5323 C   0  0  0  0  0  0  0  0  0  0  0  0
  1  8  1  0
  1 12  4  0
  1 14  4  0
  2  3  4  0
  2 18  4  0
  3 20  4  0
  3 22  4  0
  4 11  4  0
  4 21  4  0
  5  9  4  0
  5 16  4  0
  6 15  4  0
  6 16  4  0
  7 22  4  0
  7 26  4  0
  8 10  4  0
  8 25  4  0
  9 15  4  0
  9 17  1  0
 10 21  4  0
 11 25  4  0
 12 23  4  0
 13 20  4  0
 13 26  4  0
 14 19  4  0
 17 18  4  0
 17 24  4  0
 19 23  4  0
 20 24  4  0
 23 26  1  0
M  END
$$$$

 Created by Python create_sdf_string function

 26 30  0  0  0  0  0  0  0  0999 V2000
   10.0084   -1.8019   23.4945 C   0  0  0  0  0  0  0  0  0  0  0  0
   10.0005   -4.2520   16.5631 C   0  0  0  0  0  0  0  0  0  0  0  0
   10.2759   -4.0036   17.8845 C   0  0  0  0  0  0  0  0  0  0  0  0
    8.5652    1.5478   25.3778 N   0  0  0  0  0  0  0  0  0  0  0  0
    6.8048   -7.5457   17.8752 C   0  0  0  0  0  0  0  0  0  0  0  0
    6.1721   -8.2186   15.9886 N   0  0  0  0  0  0  0  0  0  0  0  0
   11.1764   -2.6600   19.5604 C   0  0  0  0  0  0  0  0  0  0  0  0
    9.5491   -0.6380   24.1912 C   0  0  0  0  0  0  0  0  0  0  0  0
    7.5337   -6.9256   16.9519 C   0  0  0  0  0  0  0  0  0  0  0  0
    9.6782    0.5671   23.5143 C   0  0  0  0  0  0  0  0  0  0  0  0
    8.4532    0.3482   26.0821 C   0  0  0  0  0  0  0  0  0  0  0  0
   10.4239   -1.7677   22.2230 N   0  0  0  0  0  0  0  0  0  0  0  0
    9.9468   -4.5953   20.1709 C   0  0  0  0  0  0  0  0  0  0  0  0
   10.0366   -3.0590   23.9864 N   0  0  0  0  0  0  0  0  0  0  0  0
    7.1191   -7.3636   15.7739 C   0  0  0  0  0  0  0  0  0  0  0  0
    5.9612   -8.3203   17.2732 N   0  0  0  0  0  0  0  0  0  0  0  0
    8.5296   -5.9814   17.1841 C   0  0  0  0  0  0  0  0  0  0  0  0
    9.1527   -5.2118   16.2116 C   0  0  0  0  0  0  0  0  0  0  0  0
   10.3364   -3.8368   22.9255 O   0  0  0  0  0  0  0  0  0  0  0  0
    9.6947   -4.8407   18.8534 C   0  0  0  0  0  0  0  0  0  0  0  0
    9.1596    1.7042   24.1381 C   0  0  0  0  0  0  0  0  0  0  0  0
   11.0456   -2.9774   18.2694 N   0  0  0  0  0  0  0  0  0  0  0  0
   10.4788   -3.0457   21.8593 C   0  0  0  0  0  0  0  0  0  0  0  0
    8.8693   -5.8099   18.4657 N   0  0  0  0  0  0  0  0  0  0  0  0
    8.9892   -0.7926   25.4573 C   0  0  0  0  0  0  0  0  0  0  0  0
   10.5677   -3.4462   20.5323 C   0  0  0  0  0  0  0  0  0  0  0  0
  1  8  1  0
  1 12  4  0
  1 14  4  0
  2  3  4  0
  2 18  4  0
  3 20  4  0
  3 22  4  0
  4 11  4  0
  4 21  4  0
  5  9  4  0
  5 16  4  0
  6 15  4  0
  6 16  4  0
  7 22  4  0
  7 26  4  0
  8 10  4  0
  8 25  4  0
  9 15  4  0
  9 17  1  0
 10 21  4  0
 11 25  4  0
 12 23  4  0
 13 20  4  0
 13 26  4  0
 14 19  4  0
 17 18  4  0
 17 24  4  0
 19 23  4  0
 20 24  4  0
 23 26  1  0
M  END
$$$$

 Created by Python create_sdf_string function

 26 30  0  0  0  0  0  0  0  0999 V2000
   10.0084   -1.8019   23.4945 C   0  0  0  0  0  0  0  0  0  0  0  0
   10.0005   -4.2520   16.5631 C   0  0  0  0  0  0  0  0  0  0  0  0
   10.2759   -4.0036   17.8845 C   0  0  0  0  0  0  0  0  0  0  0  0
    8.5652    1.5478   25.3778 N   0  0  0  0  0  0  0  0  0  0  0  0
    6.8048   -7.5457   17.8752 C   0  0  0  0  0  0  0  0  0  0  0  0
    6.1721   -8.2186   15.9886 N   0  0  0  0  0  0  0  0  0  0  0  0
   11.1764   -2.6600   19.5604 C   0  0  0  0  0  0  0  0  0  0  0  0
    9.5491   -0.6380   24.1912 C   0  0  0  0  0  0  0  0  0  0  0  0
    7.5337   -6.9256   16.9519 C   0  0  0  0  0  0  0  0  0  0  0  0
    9.6782    0.5671   23.5143 C   0  0  0  0  0  0  0  0  0  0  0  0
    8.4532    0.3482   26.0821 C   0  0  0  0  0  0  0  0  0  0  0  0
   10.4239   -1.7677   22.2230 N   0  0  0  0  0  0  0  0  0  0  0  0
    9.9468   -4.5953   20.1709 C   0  0  0  0  0  0  0  0  0  0  0  0
   10.0366   -3.0590   23.9864 N   0  0  0  0  0  0  0  0  0  0  0  0
    7.1191   -7.3636   15.7739 C   0  0  0  0  0  0  0  0  0  0  0  0
    5.9612   -8.3203   17.2732 N   0  0  0  0  0  0  0  0  0  0  0  0
    8.5296   -5.9814   17.1841 C   0  0  0  0  0  0  0  0  0  0  0  0
    9.1527   -5.2118   16.2116 C   0  0  0  0  0  0  0  0  0  0  0  0
   10.3364   -3.8368   22.9255 O   0  0  0  0  0  0  0  0  0  0  0  0
    9.6947   -4.8407   18.8534 C   0  0  0  0  0  0  0  0  0  0  0  0
    9.1596    1.7042   24.1381 C   0  0  0  0  0  0  0  0  0  0  0  0
   11.0456   -2.9774   18.2694 N   0  0  0  0  0  0  0  0  0  0  0  0
   10.4788   -3.0457   21.8593 C   0  0  0  0  0  0  0  0  0  0  0  0
    8.8693   -5.8099   18.4657 N   0  0  0  0  0  0  0  0  0  0  0  0
    8.9892   -0.7926   25.4573 C   0  0  0  0  0  0  0  0  0  0  0  0
   10.5677   -3.4462   20.5323 C   0  0  0  0  0  0  0  0  0  0  0  0
  1  8  1  0
  1 12  4  0
  1 14  4  0
  2  3  4  0
  2 18  4  0
  3 20  4  0
  3 22  4  0
  4 11  4  0
  4 21  4  0
  5  9  4  0
  5 16  4  0
  6 15  4  0
  6 16  4  0
  7 22  4  0
  7 26  4  0
  8 10  4  0
  8 25  4  0
  9 15  4  0
  9 17  1  0
 10 21  4  0
 11 25  4  0
 12 23  4  0
 13 20  4  0
 13 26  4  0
 14 19  4  0
 17 18  4  0
 17 24  4  0
 19 23  4  0
 20 24  4  0
 23 26  1  0
M  END
$$$$

 Created by Python create_sdf_string function

 26 30  0  0  0  0  0  0  0  0999 V2000
   10.0084   -1.8019   23.4945 C   0  0  0  0  0  0  0  0  0  0  0  0
   10.0005   -4.2520   16.5631 C   0  0  0  0  0  0  0  0  0  0  0  0
   10.2759   -4.0036   17.8845 C   0  0  0  0  0  0  0  0  0  0  0  0
    8.5652    1.5478   25.3778 N   0  0  0  0  0  0  0  0  0  0  0  0
    6.8048   -7.5457   17.8752 C   0  0  0  0  0  0  0  0  0  0  0  0
    6.1721   -8.2186   15.9886 N   0  0  0  0  0  0  0  0  0  0  0  0
   11.1764   -2.6600   19.5604 C   0  0  0  0  0  0  0  0  0  0  0  0
    9.5491   -0.6380   24.1912 C   0  0  0  0  0  0  0  0  0  0  0  0
    7.5337   -6.9256   16.9519 C   0  0  0  0  0  0  0  0  0  0  0  0
    9.6782    0.5671   23.5143 C   0  0  0  0  0  0  0  0  0  0  0  0
    8.4532    0.3482   26.0821 C   0  0  0  0  0  0  0  0  0  0  0  0
   10.4239   -1.7677   22.2230 N   0  0  0  0  0  0  0  0  0  0  0  0
    9.9468   -4.5953   20.1709 C   0  0  0  0  0  0  0  0  0  0  0  0
   10.0366   -3.0590   23.9864 N   0  0  0  0  0  0  0  0  0  0  0  0
    7.1191   -7.3636   15.7739 C   0  0  0  0  0  0  0  0  0  0  0  0
    5.9612   -8.3203   17.2732 N   0  0  0  0  0  0  0  0  0  0  0  0
    8.5296   -5.9814   17.1841 C   0  0  0  0  0  0  0  0  0  0  0  0
    9.1527   -5.2118   16.2116 C   0  0  0  0  0  0  0  0  0  0  0  0
   10.3364   -3.8368   22.9255 O   0  0  0  0  0  0  0  0  0  0  0  0
    9.6947   -4.8407   18.8534 C   0  0  0  0  0  0  0  0  0  0  0  0
    9.1596    1.7042   24.1381 C   0  0  0  0  0  0  0  0  0  0  0  0
   11.0456   -2.9774   18.2694 N   0  0  0  0  0  0  0  0  0  0  0  0
   10.4788   -3.0457   21.8593 C   0  0  0  0  0  0  0  0  0  0  0  0
    8.8693   -5.8099   18.4657 N   0  0  0  0  0  0  0  0  0  0  0  0
    8.9892   -0.7926   25.4573 C   0  0  0  0  0  0  0  0  0  0  0  0
   10.5677   -3.4462   20.5323 C   0  0  0  0  0  0  0  0  0  0  0  0
  1  8  1  0
  1 12  4  0
  1 14  4  0
  2  3  4  0
  2 18  4  0
  3 20  4  0
  3 22  4  0
  4 11  4  0
  4 21  4  0
  5  9  4  0
  5 16  4  0
  6 15  4  0
  6 16  4  0
  7 22  4  0
  7 26  4  0
  8 10  4  0
  8 25  4  0
  9 15  4  0
  9 17  1  0
 10 21  4  0
 11 25  4  0
 12 23  4  0
 13 20  4  0
 13 26  4  0
 14 19  4  0
 17 18  4  0
 17 24  4  0
 19 23  4  0
 20 24  4  0
 23 26  1  0
M  END
$$$$

 Created by Python create_sdf_string function

 26 30  0  0  0  0  0  0  0  0999 V2000
   10.0084   -1.8019   23.4945 C   0  0  0  0  0  0  0  0  0  0  0  0
   10.0005   -4.2520   16.5631 C   0  0  0  0  0  0  0  0  0  0  0  0
   10.2759   -4.0036   17.8845 C   0  0  0  0  0  0  0  0  0  0  0  0
    8.5652    1.5478   25.3778 N   0  0  0  0  0  0  0  0  0  0  0  0
    6.8048   -7.5457   17.8752 C   0  0  0  0  0  0  0  0  0  0  0  0
    6.1721   -8.2186   15.9886 N   0  0  0  0  0  0  0  0  0  0  0  0
   11.1764   -2.6600   19.5604 C   0  0  0  0  0  0  0  0  0  0  0  0
    9.5491   -0.6380   24.1912 C   0  0  0  0  0  0  0  0  0  0  0  0
    7.5337   -6.9256   16.9519 C   0  0  0  0  0  0  0  0  0  0  0  0
    9.6782    0.5671   23.5143 C   0  0  0  0  0  0  0  0  0  0  0  0
    8.4532    0.3482   26.0821 C   0  0  0  0  0  0  0  0  0  0  0  0
   10.4239   -1.7677   22.2230 N   0  0  0  0  0  0  0  0  0  0  0  0
    9.9468   -4.5953   20.1709 C   0  0  0  0  0  0  0  0  0  0  0  0
   10.0366   -3.0590   23.9864 N   0  0  0  0  0  0  0  0  0  0  0  0
    7.1191   -7.3636   15.7739 C   0  0  0  0  0  0  0  0  0  0  0  0
    5.9612   -8.3203   17.2732 N   0  0  0  0  0  0  0  0  0  0  0  0
    8.5296   -5.9814   17.1841 C   0  0  0  0  0  0  0  0  0  0  0  0
    9.1527   -5.2118   16.2116 C   0  0  0  0  0  0  0  0  0  0  0  0
   10.3364   -3.8368   22.9255 O   0  0  0  0  0  0  0  0  0  0  0  0
    9.6947   -4.8407   18.8534 C   0  0  0  0  0  0  0  0  0  0  0  0
    9.1596    1.7042   24.1381 C   0  0  0  0  0  0  0  0  0  0  0  0
   11.0456   -2.9774   18.2694 N   0  0  0  0  0  0  0  0  0  0  0  0
   10.4788   -3.0457   21.8593 C   0  0  0  0  0  0  0  0  0  0  0  0
    8.8693   -5.8099   18.4657 N   0  0  0  0  0  0  0  0  0  0  0  0
    8.9892   -0.7926   25.4573 C   0  0  0  0  0  0  0  0  0  0  0  0
   10.5677   -3.4462   20.5323 C   0  0  0  0  0  0  0  0  0  0  0  0
  1  8  1  0
  1 12  4  0
  1 14  4  0
  2  3  4  0
  2 18  4  0
  3 20  4  0
  3 22  4  0
  4 11  4  0
  4 21  4  0
  5  9  4  0
  5 16  4  0
  6 15  4  0
  6 16  4  0
  7 22  4  0
  7 26  4  0
  8 10  4  0
  8 25  4  0
  9 15  4  0
  9 17  1  0
 10 21  4  0
 11 25  4  0
 12 23  4  0
 13 20  4  0
 13 26  4  0
 14 19  4  0
 17 18  4  0
 17 24  4  0
 19 23  4  0
 20 24  4  0
 23 26  1  0
M  END
$$$$

 Created by Python create_sdf_string function

 26 30  0  0  0  0  0  0  0  0999 V2000
   10.0084   -1.8019   23.4945 C   0  0  0  0  0  0  0  0  0  0  0  0
   10.0005   -4.2520   16.5631 C   0  0  0  0  0  0  0  0  0  0  0  0
   10.2759   -4.0036   17.8845 C   0  0  0  0  0  0  0  0  0  0  0  0
    8.5652    1.5478   25.3778 N   0  0  0  0  0  0  0  0  0  0  0  0
    6.8048   -7.5457   17.8752 C   0  0  0  0  0  0  0  0  0  0  0  0
    6.1721   -8.2186   15.9886 N   0  0  0  0  0  0  0  0  0  0  0  0
   11.1764   -2.6600   19.5604 C   0  0  0  0  0  0  0  0  0  0  0  0
    9.5491   -0.6380   24.1912 C   0  0  0  0  0  0  0  0  0  0  0  0
    7.5337   -6.9256   16.9519 C   0  0  0  0  0  0  0  0  0  0  0  0
    9.6782    0.5671   23.5143 C   0  0  0  0  0  0  0  0  0  0  0  0
    8.4532    0.3482   26.0821 C   0  0  0  0  0  0  0  0  0  0  0  0
   10.4239   -1.7677   22.2230 N   0  0  0  0  0  0  0  0  0  0  0  0
    9.9468   -4.5953   20.1709 C   0  0  0  0  0  0  0  0  0  0  0  0
   10.0366   -3.0590   23.9864 N   0  0  0  0  0  0  0  0  0  0  0  0
    7.1191   -7.3636   15.7739 C   0  0  0  0  0  0  0  0  0  0  0  0
    5.9612   -8.3203   17.2732 N   0  0  0  0  0  0  0  0  0  0  0  0
    8.5296   -5.9814   17.1841 C   0  0  0  0  0  0  0  0  0  0  0  0
    9.1527   -5.2118   16.2116 C   0  0  0  0  0  0  0  0  0  0  0  0
   10.3364   -3.8368   22.9255 O   0  0  0  0  0  0  0  0  0  0  0  0
    9.6947   -4.8407   18.8534 C   0  0  0  0  0  0  0  0  0  0  0  0
    9.1596    1.7042   24.1381 C   0  0  0  0  0  0  0  0  0  0  0  0
   11.0456   -2.9774   18.2694 N   0  0  0  0  0  0  0  0  0  0  0  0
   10.4788   -3.0457   21.8593 C   0  0  0  0  0  0  0  0  0  0  0  0
    8.8693   -5.8099   18.4657 N   0  0  0  0  0  0  0  0  0  0  0  0
    8.9892   -0.7926   25.4573 C   0  0  0  0  0  0  0  0  0  0  0  0
   10.5677   -3.4462   20.5323 C   0  0  0  0  0  0  0  0  0  0  0  0
  1  8  1  0
  1 12  4  0
  1 14  4  0
  2  3  4  0
  2 18  4  0
  3 20  4  0
  3 22  4  0
  4 11  4  0
  4 21  4  0
  5  9  4  0
  5 16  4  0
  6 15  4  0
  6 16  4  0
  7 22  4  0
  7 26  4  0
  8 10  4  0
  8 25  4  0
  9 15  4  0
  9 17  1  0
 10 21  4  0
 11 25  4  0
 12 23  4  0
 13 20  4  0
 13 26  4  0
 14 19  4  0
 17 18  4  0
 17 24  4  0
 19 23  4  0
 20 24  4  0
 23 26  1  0
M  END
$$$$

 Created by Python create_sdf_string function

 26 30  0  0  0  0  0  0  0  0999 V2000
   10.0084   -1.8019   23.4945 C   0  0  0  0  0  0  0  0  0  0  0  0
   10.0005   -4.2520   16.5631 C   0  0  0  0  0  0  0  0  0  0  0  0
   10.2759   -4.0036   17.8845 C   0  0  0  0  0  0  0  0  0  0  0  0
    8.5652    1.5478   25.3778 N   0  0  0  0  0  0  0  0  0  0  0  0
    6.8048   -7.5457   17.8752 C   0  0  0  0  0  0  0  0  0  0  0  0
    6.1721   -8.2186   15.9886 N   0  0  0  0  0  0  0  0  0  0  0  0
   11.1764   -2.6600   19.5604 C   0  0  0  0  0  0  0  0  0  0  0  0
    9.5491   -0.6380   24.1912 C   0  0  0  0  0  0  0  0  0  0  0  0
    7.5337   -6.9256   16.9519 C   0  0  0  0  0  0  0  0  0  0  0  0
    9.6782    0.5671   23.5143 C   0  0  0  0  0  0  0  0  0  0  0  0
    8.4532    0.3482   26.0821 C   0  0  0  0  0  0  0  0  0  0  0  0
   10.4239   -1.7677   22.2230 N   0  0  0  0  0  0  0  0  0  0  0  0
    9.9468   -4.5953   20.1709 C   0  0  0  0  0  0  0  0  0  0  0  0
   10.0366   -3.0590   23.9864 N   0  0  0  0  0  0  0  0  0  0  0  0
    7.1191   -7.3636   15.7739 C   0  0  0  0  0  0  0  0  0  0  0  0
    5.9612   -8.3203   17.2732 N   0  0  0  0  0  0  0  0  0  0  0  0
    8.5296   -5.9814   17.1841 C   0  0  0  0  0  0  0  0  0  0  0  0
    9.1527   -5.2118   16.2116 C   0  0  0  0  0  0  0  0  0  0  0  0
   10.3364   -3.8368   22.9255 O   0  0  0  0  0  0  0  0  0  0  0  0
    9.6947   -4.8407   18.8534 C   0  0  0  0  0  0  0  0  0  0  0  0
    9.1596    1.7042   24.1381 C   0  0  0  0  0  0  0  0  0  0  0  0
   11.0456   -2.9774   18.2694 N   0  0  0  0  0  0  0  0  0  0  0  0
   10.4788   -3.0457   21.8593 C   0  0  0  0  0  0  0  0  0  0  0  0
    8.8693   -5.8099   18.4657 N   0  0  0  0  0  0  0  0  0  0  0  0
    8.9892   -0.7926   25.4573 C   0  0  0  0  0  0  0  0  0  0  0  0
   10.5677   -3.4462   20.5323 C   0  0  0  0  0  0  0  0  0  0  0  0
  1  8  1  0
  1 12  4  0
  1 14  4  0
  2  3  4  0
  2 18  4  0
  3 20  4  0
  3 22  4  0
  4 11  4  0
  4 21  4  0
  5  9  4  0
  5 16  4  0
  6 15  4  0
  6 16  4  0
  7 22  4  0
  7 26  4  0
  8 10  4  0
  8 25  4  0
  9 15  4  0
  9 17  1  0
 10 21  4  0
 11 25  4  0
 12 23  4  0
 13 20  4  0
 13 26  4  0
 14 19  4  0
 17 18  4  0
 17 24  4  0
 19 23  4  0
 20 24  4  0
 23 26  1  0
M  END
$$$$

 Created by Python create_sdf_string function

 26 30  0  0  0  0  0  0  0  0999 V2000
   10.0084   -1.8019   23.4945 C   0  0  0  0  0  0  0  0  0  0  0  0
   10.0005   -4.2520   16.5631 C   0  0  0  0  0  0  0  0  0  0  0  0
   10.2759   -4.0036   17.8845 C   0  0  0  0  0  0  0  0  0  0  0  0
    8.5652    1.5478   25.3778 N   0  0  0  0  0  0  0  0  0  0  0  0
    6.8048   -7.5457   17.8752 C   0  0  0  0  0  0  0  0  0  0  0  0
    6.1721   -8.2186   15.9886 N   0  0  0  0  0  0  0  0  0  0  0  0
   11.1764   -2.6600   19.5604 C   0  0  0  0  0  0  0  0  0  0  0  0
    9.5491   -0.6380   24.1912 C   0  0  0  0  0  0  0  0  0  0  0  0
    7.5337   -6.9256   16.9519 C   0  0  0  0  0  0  0  0  0  0  0  0
    9.6782    0.5671   23.5143 C   0  0  0  0  0  0  0  0  0  0  0  0
    8.4532    0.3482   26.0821 C   0  0  0  0  0  0  0  0  0  0  0  0
   10.4239   -1.7677   22.2230 N   0  0  0  0  0  0  0  0  0  0  0  0
    9.9468   -4.5953   20.1709 C   0  0  0  0  0  0  0  0  0  0  0  0
   10.0366   -3.0590   23.9864 N   0  0  0  0  0  0  0  0  0  0  0  0
    7.1191   -7.3636   15.7739 C   0  0  0  0  0  0  0  0  0  0  0  0
    5.9612   -8.3203   17.2732 N   0  0  0  0  0  0  0  0  0  0  0  0
    8.5296   -5.9814   17.1841 C   0  0  0  0  0  0  0  0  0  0  0  0
    9.1527   -5.2118   16.2116 C   0  0  0  0  0  0  0  0  0  0  0  0
   10.3364   -3.8368   22.9255 O   0  0  0  0  0  0  0  0  0  0  0  0
    9.6947   -4.8407   18.8534 C   0  0  0  0  0  0  0  0  0  0  0  0
    9.1596    1.7042   24.1381 C   0  0  0  0  0  0  0  0  0  0  0  0
   11.0456   -2.9774   18.2694 N   0  0  0  0  0  0  0  0  0  0  0  0
   10.4788   -3.0457   21.8593 C   0  0  0  0  0  0  0  0  0  0  0  0
    8.8693   -5.8099   18.4657 N   0  0  0  0  0  0  0  0  0  0  0  0
    8.9892   -0.7926   25.4573 C   0  0  0  0  0  0  0  0  0  0  0  0
   10.5677   -3.4462   20.5323 C   0  0  0  0  0  0  0  0  0  0  0  0
  1  8  1  0
  1 12  4  0
  1 14  4  0
  2  3  4  0
  2 18  4  0
  3 20  4  0
  3 22  4  0
  4 11  4  0
  4 21  4  0
  5  9  4  0
  5 16  4  0
  6 15  4  0
  6 16  4  0
  7 22  4  0
  7 26  4  0
  8 10  4  0
  8 25  4  0
  9 15  4  0
  9 17  1  0
 10 21  4  0
 11 25  4  0
 12 23  4  0
 13 20  4  0
 13 26  4  0
 14 19  4  0
 17 18  4  0
 17 24  4  0
 19 23  4  0
 20 24  4  0
 23 26  1  0
M  END
$$$$

 Created by Python create_sdf_string function

 26 30  0  0  0  0  0  0  0  0999 V2000
   10.0084   -1.8019   23.4945 C   0  0  0  0  0  0  0  0  0  0  0  0
   10.0005   -4.2520   16.5631 C   0  0  0  0  0  0  0  0  0  0  0  0
   10.2759   -4.0036   17.8845 C   0  0  0  0  0  0  0  0  0  0  0  0
    8.5652    1.5478   25.3778 N   0  0  0  0  0  0  0  0  0  0  0  0
    6.8048   -7.5457   17.8752 C   0  0  0  0  0  0  0  0  0  0  0  0
    6.1721   -8.2186   15.9886 N   0  0  0  0  0  0  0  0  0  0  0  0
   11.1764   -2.6600   19.5604 C   0  0  0  0  0  0  0  0  0  0  0  0
    9.5491   -0.6380   24.1912 C   0  0  0  0  0  0  0  0  0  0  0  0
    7.5337   -6.9256   16.9519 C   0  0  0  0  0  0  0  0  0  0  0  0
    9.6782    0.5671   23.5143 C   0  0  0  0  0  0  0  0  0  0  0  0
    8.4532    0.3482   26.0821 C   0  0  0  0  0  0  0  0  0  0  0  0
   10.4239   -1.7677   22.2230 N   0  0  0  0  0  0  0  0  0  0  0  0
    9.9468   -4.5953   20.1709 C   0  0  0  0  0  0  0  0  0  0  0  0
   10.0366   -3.0590   23.9864 N   0  0  0  0  0  0  0  0  0  0  0  0
    7.1191   -7.3636   15.7739 C   0  0  0  0  0  0  0  0  0  0  0  0
    5.9612   -8.3203   17.2732 N   0  0  0  0  0  0  0  0  0  0  0  0
    8.5296   -5.9814   17.1841 C   0  0  0  0  0  0  0  0  0  0  0  0
    9.1527   -5.2118   16.2116 C   0  0  0  0  0  0  0  0  0  0  0  0
   10.3364   -3.8368   22.9255 O   0  0  0  0  0  0  0  0  0  0  0  0
    9.6947   -4.8407   18.8534 C   0  0  0  0  0  0  0  0  0  0  0  0
    9.1596    1.7042   24.1381 C   0  0  0  0  0  0  0  0  0  0  0  0
   11.0456   -2.9774   18.2694 N   0  0  0  0  0  0  0  0  0  0  0  0
   10.4788   -3.0457   21.8593 C   0  0  0  0  0  0  0  0  0  0  0  0
    8.8693   -5.8099   18.4657 N   0  0  0  0  0  0  0  0  0  0  0  0
    8.9892   -0.7926   25.4573 C   0  0  0  0  0  0  0  0  0  0  0  0
   10.5677   -3.4462   20.5323 C   0  0  0  0  0  0  0  0  0  0  0  0
  1  8  1  0
  1 12  4  0
  1 14  4  0
  2  3  4  0
  2 18  4  0
  3 20  4  0
  3 22  4  0
  4 11  4  0
  4 21  4  0
  5  9  4  0
  5 16  4  0
  6 15  4  0
  6 16  4  0
  7 22  4  0
  7 26  4  0
  8 10  4  0
  8 25  4  0
  9 15  4  0
  9 17  1  0
 10 21  4  0
 11 25  4  0
 12 23  4  0
 13 20  4  0
 13 26  4  0
 14 19  4  0
 17 18  4  0
 17 24  4  0
 19 23  4  0
 20 24  4  0
 23 26  1  0
M  END
$$$$

 Created by Python create_sdf_string function

 26 30  0  0  0  0  0  0  0  0999 V2000
   10.0084   -1.8019   23.4945 C   0  0  0  0  0  0  0  0  0  0  0  0
   10.0005   -4.2520   16.5631 C   0  0  0  0  0  0  0  0  0  0  0  0
   10.2759   -4.0036   17.8845 C   0  0  0  0  0  0  0  0  0  0  0  0
    8.5652    1.5478   25.3778 N   0  0  0  0  0  0  0  0  0  0  0  0
    6.8048   -7.5457   17.8752 C   0  0  0  0  0  0  0  0  0  0  0  0
    6.1721   -8.2186   15.9886 N   0  0  0  0  0  0  0  0  0  0  0  0
   11.1764   -2.6600   19.5604 C   0  0  0  0  0  0  0  0  0  0  0  0
    9.5491   -0.6380   24.1912 C   0  0  0  0  0  0  0  0  0  0  0  0
    7.5337   -6.9256   16.9519 C   0  0  0  0  0  0  0  0  0  0  0  0
    9.6782    0.5671   23.5143 C   0  0  0  0  0  0  0  0  0  0  0  0
    8.4532    0.3482   26.0821 C   0  0  0  0  0  0  0  0  0  0  0  0
   10.4239   -1.7677   22.2230 N   0  0  0  0  0  0  0  0  0  0  0  0
    9.9468   -4.5953   20.1709 C   0  0  0  0  0  0  0  0  0  0  0  0
   10.0366   -3.0590   23.9864 N   0  0  0  0  0  0  0  0  0  0  0  0
    7.1191   -7.3636   15.7739 C   0  0  0  0  0  0  0  0  0  0  0  0
    5.9612   -8.3203   17.2732 N   0  0  0  0  0  0  0  0  0  0  0  0
    8.5296   -5.9814   17.1841 C   0  0  0  0  0  0  0  0  0  0  0  0
    9.1527   -5.2118   16.2116 C   0  0  0  0  0  0  0  0  0  0  0  0
   10.3364   -3.8368   22.9255 O   0  0  0  0  0  0  0  0  0  0  0  0
    9.6947   -4.8407   18.8534 C   0  0  0  0  0  0  0  0  0  0  0  0
    9.1596    1.7042   24.1381 C   0  0  0  0  0  0  0  0  0  0  0  0
   11.0456   -2.9774   18.2694 N   0  0  0  0  0  0  0  0  0  0  0  0
   10.4788   -3.0457   21.8593 C   0  0  0  0  0  0  0  0  0  0  0  0
    8.8693   -5.8099   18.4657 N   0  0  0  0  0  0  0  0  0  0  0  0
    8.9892   -0.7926   25.4573 C   0  0  0  0  0  0  0  0  0  0  0  0
   10.5677   -3.4462   20.5323 C   0  0  0  0  0  0  0  0  0  0  0  0
  1  8  1  0
  1 12  4  0
  1 14  4  0
  2  3  4  0
  2 18  4  0
  3 20  4  0
  3 22  4  0
  4 11  4  0
  4 21  4  0
  5  9  4  0
  5 16  4  0
  6 15  4  0
  6 16  4  0
  7 22  4  0
  7 26  4  0
  8 10  4  0
  8 25  4  0
  9 15  4  0
  9 17  1  0
 10 21  4  0
 11 25  4  0
 12 23  4  0
 13 20  4  0
 13 26  4  0
 14 19  4  0
 17 18  4  0
 17 24  4  0
 19 23  4  0
 20 24  4  0
 23 26  1  0
M  END
$$$$

 Created by Python create_sdf_string function

 26 30  0  0  0  0  0  0  0  0999 V2000
   10.0084   -1.8019   23.4945 C   0  0  0  0  0  0  0  0  0  0  0  0
   10.0005   -4.2520   16.5631 C   0  0  0  0  0  0  0  0  0  0  0  0
   10.2759   -4.0036   17.8845 C   0  0  0  0  0  0  0  0  0  0  0  0
    8.5652    1.5478   25.3778 N   0  0  0  0  0  0  0  0  0  0  0  0
    6.8048   -7.5457   17.8752 C   0  0  0  0  0  0  0  0  0  0  0  0
    6.1721   -8.2186   15.9886 N   0  0  0  0  0  0  0  0  0  0  0  0
   11.1764   -2.6600   19.5604 C   0  0  0  0  0  0  0  0  0  0  0  0
    9.5491   -0.6380   24.1912 C   0  0  0  0  0  0  0  0  0  0  0  0
    7.5337   -6.9256   16.9519 C   0  0  0  0  0  0  0  0  0  0  0  0
    9.6782    0.5671   23.5143 C   0  0  0  0  0  0  0  0  0  0  0  0
    8.4532    0.3482   26.0821 C   0  0  0  0  0  0  0  0  0  0  0  0
   10.4239   -1.7677   22.2230 N   0  0  0  0  0  0  0  0  0  0  0  0
    9.9468   -4.5953   20.1709 C   0  0  0  0  0  0  0  0  0  0  0  0
   10.0366   -3.0590   23.9864 N   0  0  0  0  0  0  0  0  0  0  0  0
    7.1191   -7.3636   15.7739 C   0  0  0  0  0  0  0  0  0  0  0  0
    5.9612   -8.3203   17.2732 N   0  0  0  0  0  0  0  0  0  0  0  0
    8.5296   -5.9814   17.1841 C   0  0  0  0  0  0  0  0  0  0  0  0
    9.1527   -5.2118   16.2116 C   0  0  0  0  0  0  0  0  0  0  0  0
   10.3364   -3.8368   22.9255 O   0  0  0  0  0  0  0  0  0  0  0  0
    9.6947   -4.8407   18.8534 C   0  0  0  0  0  0  0  0  0  0  0  0
    9.1596    1.7042   24.1381 C   0  0  0  0  0  0  0  0  0  0  0  0
   11.0456   -2.9774   18.2694 N   0  0  0  0  0  0  0  0  0  0  0  0
   10.4788   -3.0457   21.8593 C   0  0  0  0  0  0  0  0  0  0  0  0
    8.8693   -5.8099   18.4657 N   0  0  0  0  0  0  0  0  0  0  0  0
    8.9892   -0.7926   25.4573 C   0  0  0  0  0  0  0  0  0  0  0  0
   10.5677   -3.4462   20.5323 C   0  0  0  0  0  0  0  0  0  0  0  0
  1  8  1  0
  1 12  4  0
  1 14  4  0
  2  3  4  0
  2 18  4  0
  3 20  4  0
  3 22  4  0
  4 11  4  0
  4 21  4  0
  5  9  4  0
  5 16  4  0
  6 15  4  0
  6 16  4  0
  7 22  4  0
  7 26  4  0
  8 10  4  0
  8 25  4  0
  9 15  4  0
  9 17  1  0
 10 21  4  0
 11 25  4  0
 12 23  4  0
 13 20  4  0
 13 26  4  0
 14 19  4  0
 17 18  4  0
 17 24  4  0
 19 23  4  0
 20 24  4  0
 23 26  1  0
M  END
$$$$

 Created by Python create_sdf_string function

 26 30  0  0  0  0  0  0  0  0999 V2000
   10.0084   -1.8019   23.4945 C   0  0  0  0  0  0  0  0  0  0  0  0
   10.0005   -4.2520   16.5631 C   0  0  0  0  0  0  0  0  0  0  0  0
   10.2759   -4.0036   17.8845 C   0  0  0  0  0  0  0  0  0  0  0  0
    8.5652    1.5478   25.3778 N   0  0  0  0  0  0  0  0  0  0  0  0
    6.8048   -7.5457   17.8752 C   0  0  0  0  0  0  0  0  0  0  0  0
    6.1721   -8.2186   15.9886 N   0  0  0  0  0  0  0  0  0  0  0  0
   11.1764   -2.6600   19.5604 C   0  0  0  0  0  0  0  0  0  0  0  0
    9.5491   -0.6380   24.1912 C   0  0  0  0  0  0  0  0  0  0  0  0
    7.5337   -6.9256   16.9519 C   0  0  0  0  0  0  0  0  0  0  0  0
    9.6782    0.5671   23.5143 C   0  0  0  0  0  0  0  0  0  0  0  0
    8.4532    0.3482   26.0821 C   0  0  0  0  0  0  0  0  0  0  0  0
   10.4239   -1.7677   22.2230 N   0  0  0  0  0  0  0  0  0  0  0  0
    9.9468   -4.5953   20.1709 C   0  0  0  0  0  0  0  0  0  0  0  0
   10.0366   -3.0590   23.9864 N   0  0  0  0  0  0  0  0  0  0  0  0
    7.1191   -7.3636   15.7739 C   0  0  0  0  0  0  0  0  0  0  0  0
    5.9612   -8.3203   17.2732 N   0  0  0  0  0  0  0  0  0  0  0  0
    8.5296   -5.9814   17.1841 C   0  0  0  0  0  0  0  0  0  0  0  0
    9.1527   -5.2118   16.2116 C   0  0  0  0  0  0  0  0  0  0  0  0
   10.3364   -3.8368   22.9255 O   0  0  0  0  0  0  0  0  0  0  0  0
    9.6947   -4.8407   18.8534 C   0  0  0  0  0  0  0  0  0  0  0  0
    9.1596    1.7042   24.1381 C   0  0  0  0  0  0  0  0  0  0  0  0
   11.0456   -2.9774   18.2694 N   0  0  0  0  0  0  0  0  0  0  0  0
   10.4788   -3.0457   21.8593 C   0  0  0  0  0  0  0  0  0  0  0  0
    8.8693   -5.8099   18.4657 N   0  0  0  0  0  0  0  0  0  0  0  0
    8.9892   -0.7926   25.4573 C   0  0  0  0  0  0  0  0  0  0  0  0
   10.5677   -3.4462   20.5323 C   0  0  0  0  0  0  0  0  0  0  0  0
  1  8  1  0
  1 12  4  0
  1 14  4  0
  2  3  4  0
  2 18  4  0
  3 20  4  0
  3 22  4  0
  4 11  4  0
  4 21  4  0
  5  9  4  0
  5 16  4  0
  6 15  4  0
  6 16  4  0
  7 22  4  0
  7 26  4  0
  8 10  4  0
  8 25  4  0
  9 15  4  0
  9 17  1  0
 10 21  4  0
 11 25  4  0
 12 23  4  0
 13 20  4  0
 13 26  4  0
 14 19  4  0
 17 18  4  0
 17 24  4  0
 19 23  4  0
 20 24  4  0
 23 26  1  0
M  END
$$$$

 Created by Python create_sdf_string function

 26 30  0  0  0  0  0  0  0  0999 V2000
   10.0084   -1.8019   23.4945 C   0  0  0  0  0  0  0  0  0  0  0  0
   10.0005   -4.2520   16.5631 C   0  0  0  0  0  0  0  0  0  0  0  0
   10.2759   -4.0036   17.8845 C   0  0  0  0  0  0  0  0  0  0  0  0
    8.5652    1.5478   25.3778 N   0  0  0  0  0  0  0  0  0  0  0  0
    6.8048   -7.5457   17.8752 C   0  0  0  0  0  0  0  0  0  0  0  0
    6.1721   -8.2186   15.9886 N   0  0  0  0  0  0  0  0  0  0  0  0
   11.1764   -2.6600   19.5604 C   0  0  0  0  0  0  0  0  0  0  0  0
    9.5491   -0.6380   24.1912 C   0  0  0  0  0  0  0  0  0  0  0  0
    7.5337   -6.9256   16.9519 C   0  0  0  0  0  0  0  0  0  0  0  0
    9.6782    0.5671   23.5143 C   0  0  0  0  0  0  0  0  0  0  0  0
    8.4532    0.3482   26.0821 C   0  0  0  0  0  0  0  0  0  0  0  0
   10.4239   -1.7677   22.2230 N   0  0  0  0  0  0  0  0  0  0  0  0
    9.9468   -4.5953   20.1709 C   0  0  0  0  0  0  0  0  0  0  0  0
   10.0366   -3.0590   23.9864 N   0  0  0  0  0  0  0  0  0  0  0  0
    7.1191   -7.3636   15.7739 C   0  0  0  0  0  0  0  0  0  0  0  0
    5.9612   -8.3203   17.2732 N   0  0  0  0  0  0  0  0  0  0  0  0
    8.5296   -5.9814   17.1841 C   0  0  0  0  0  0  0  0  0  0  0  0
    9.1527   -5.2118   16.2116 C   0  0  0  0  0  0  0  0  0  0  0  0
   10.3364   -3.8368   22.9255 O   0  0  0  0  0  0  0  0  0  0  0  0
    9.6947   -4.8407   18.8534 C   0  0  0  0  0  0  0  0  0  0  0  0
    9.1596    1.7042   24.1381 C   0  0  0  0  0  0  0  0  0  0  0  0
   11.0456   -2.9774   18.2694 N   0  0  0  0  0  0  0  0  0  0  0  0
   10.4788   -3.0457   21.8593 C   0  0  0  0  0  0  0  0  0  0  0  0
    8.8693   -5.8099   18.4657 N   0  0  0  0  0  0  0  0  0  0  0  0
    8.9892   -0.7926   25.4573 C   0  0  0  0  0  0  0  0  0  0  0  0
   10.5677   -3.4462   20.5323 C   0  0  0  0  0  0  0  0  0  0  0  0
  1  8  1  0
  1 12  4  0
  1 14  4  0
  2  3  4  0
  2 18  4  0
  3 20  4  0
  3 22  4  0
  4 11  4  0
  4 21  4  0
  5  9  4  0
  5 16  4  0
  6 15  4  0
  6 16  4  0
  7 22  4  0
  7 26  4  0
  8 10  4  0
  8 25  4  0
  9 15  4  0
  9 17  1  0
 10 21  4  0
 11 25  4  0
 12 23  4  0
 13 20  4  0
 13 26  4  0
 14 19  4  0
 17 18  4  0
 17 24  4  0
 19 23  4  0
 20 24  4  0
 23 26  1  0
M  END
$$$$

 Created by Python create_sdf_string function

 26 30  0  0  0  0  0  0  0  0999 V2000
   10.0084   -1.8019   23.4945 C   0  0  0  0  0  0  0  0  0  0  0  0
   10.0005   -4.2520   16.5631 C   0  0  0  0  0  0  0  0  0  0  0  0
   10.2759   -4.0036   17.8845 C   0  0  0  0  0  0  0  0  0  0  0  0
    8.5652    1.5478   25.3778 N   0  0  0  0  0  0  0  0  0  0  0  0
    6.8048   -7.5457   17.8752 C   0  0  0  0  0  0  0  0  0  0  0  0
    6.1721   -8.2186   15.9886 N   0  0  0  0  0  0  0  0  0  0  0  0
   11.1764   -2.6600   19.5604 C   0  0  0  0  0  0  0  0  0  0  0  0
    9.5491   -0.6380   24.1912 C   0  0  0  0  0  0  0  0  0  0  0  0
    7.5337   -6.9256   16.9519 C   0  0  0  0  0  0  0  0  0  0  0  0
    9.6782    0.5671   23.5143 C   0  0  0  0  0  0  0  0  0  0  0  0
    8.4532    0.3482   26.0821 C   0  0  0  0  0  0  0  0  0  0  0  0
   10.4239   -1.7677   22.2230 N   0  0  0  0  0  0  0  0  0  0  0  0
    9.9468   -4.5953   20.1709 C   0  0  0  0  0  0  0  0  0  0  0  0
   10.0366   -3.0590   23.9864 N   0  0  0  0  0  0  0  0  0  0  0  0
    7.1191   -7.3636   15.7739 C   0  0  0  0  0  0  0  0  0  0  0  0
    5.9612   -8.3203   17.2732 N   0  0  0  0  0  0  0  0  0  0  0  0
    8.5296   -5.9814   17.1841 C   0  0  0  0  0  0  0  0  0  0  0  0
    9.1527   -5.2118   16.2116 C   0  0  0  0  0  0  0  0  0  0  0  0
   10.3364   -3.8368   22.9255 O   0  0  0  0  0  0  0  0  0  0  0  0
    9.6947   -4.8407   18.8534 C   0  0  0  0  0  0  0  0  0  0  0  0
    9.1596    1.7042   24.1381 C   0  0  0  0  0  0  0  0  0  0  0  0
   11.0456   -2.9774   18.2694 N   0  0  0  0  0  0  0  0  0  0  0  0
   10.4788   -3.0457   21.8593 C   0  0  0  0  0  0  0  0  0  0  0  0
    8.8693   -5.8099   18.4657 N   0  0  0  0  0  0  0  0  0  0  0  0
    8.9892   -0.7926   25.4573 C   0  0  0  0  0  0  0  0  0  0  0  0
   10.5677   -3.4462   20.5323 C   0  0  0  0  0  0  0  0  0  0  0  0
  1  8  1  0
  1 12  4  0
  1 14  4  0
  2  3  4  0
  2 18  4  0
  3 20  4  0
  3 22  4  0
  4 11  4  0
  4 21  4  0
  5  9  4  0
  5 16  4  0
  6 15  4  0
  6 16  4  0
  7 22  4  0
  7 26  4  0
  8 10  4  0
  8 25  4  0
  9 15  4  0
  9 17  1  0
 10 21  4  0
 11 25  4  0
 12 23  4  0
 13 20  4  0
 13 26  4  0
 14 19  4  0
 17 18  4  0
 17 24  4  0
 19 23  4  0
 20 24  4  0
 23 26  1  0
M  END
$$$$

 Created by Python create_sdf_string function

 26 30  0  0  0  0  0  0  0  0999 V2000
   10.0084   -1.8019   23.4945 C   0  0  0  0  0  0  0  0  0  0  0  0
   10.0005   -4.2520   16.5631 C   0  0  0  0  0  0  0  0  0  0  0  0
   10.2759   -4.0036   17.8845 C   0  0  0  0  0  0  0  0  0  0  0  0
    8.5652    1.5478   25.3778 N   0  0  0  0  0  0  0  0  0  0  0  0
    6.8048   -7.5457   17.8752 C   0  0  0  0  0  0  0  0  0  0  0  0
    6.1721   -8.2186   15.9886 N   0  0  0  0  0  0  0  0  0  0  0  0
   11.1764   -2.6600   19.5604 C   0  0  0  0  0  0  0  0  0  0  0  0
    9.5491   -0.6380   24.1912 C   0  0  0  0  0  0  0  0  0  0  0  0
    7.5337   -6.9256   16.9519 C   0  0  0  0  0  0  0  0  0  0  0  0
    9.6782    0.5671   23.5143 C   0  0  0  0  0  0  0  0  0  0  0  0
    8.4532    0.3482   26.0821 C   0  0  0  0  0  0  0  0  0  0  0  0
   10.4239   -1.7677   22.2230 N   0  0  0  0  0  0  0  0  0  0  0  0
    9.9468   -4.5953   20.1709 C   0  0  0  0  0  0  0  0  0  0  0  0
   10.0366   -3.0590   23.9864 N   0  0  0  0  0  0  0  0  0  0  0  0
    7.1191   -7.3636   15.7739 C   0  0  0  0  0  0  0  0  0  0  0  0
    5.9612   -8.3203   17.2732 N   0  0  0  0  0  0  0  0  0  0  0  0
    8.5296   -5.9814   17.1841 C   0  0  0  0  0  0  0  0  0  0  0  0
    9.1527   -5.2118   16.2116 C   0  0  0  0  0  0  0  0  0  0  0  0
   10.3364   -3.8368   22.9255 O   0  0  0  0  0  0  0  0  0  0  0  0
    9.6947   -4.8407   18.8534 C   0  0  0  0  0  0  0  0  0  0  0  0
    9.1596    1.7042   24.1381 C   0  0  0  0  0  0  0  0  0  0  0  0
   11.0456   -2.9774   18.2694 N   0  0  0  0  0  0  0  0  0  0  0  0
   10.4788   -3.0457   21.8593 C   0  0  0  0  0  0  0  0  0  0  0  0
    8.8693   -5.8099   18.4657 N   0  0  0  0  0  0  0  0  0  0  0  0
    8.9892   -0.7926   25.4573 C   0  0  0  0  0  0  0  0  0  0  0  0
   10.5677   -3.4462   20.5323 C   0  0  0  0  0  0  0  0  0  0  0  0
  1  8  1  0
  1 12  4  0
  1 14  4  0
  2  3  4  0
  2 18  4  0
  3 20  4  0
  3 22  4  0
  4 11  4  0
  4 21  4  0
  5  9  4  0
  5 16  4  0
  6 15  4  0
  6 16  4  0
  7 22  4  0
  7 26  4  0
  8 10  4  0
  8 25  4  0
  9 15  4  0
  9 17  1  0
 10 21  4  0
 11 25  4  0
 12 23  4  0
 13 20  4  0
 13 26  4  0
 14 19  4  0
 17 18  4  0
 17 24  4  0
 19 23  4  0
 20 24  4  0
 23 26  1  0
M  END
$$$$

 Created by Python create_sdf_string function

 26 30  0  0  0  0  0  0  0  0999 V2000
   10.0084   -1.8019   23.4945 C   0  0  0  0  0  0  0  0  0  0  0  0
   10.0005   -4.2520   16.5631 C   0  0  0  0  0  0  0  0  0  0  0  0
   10.2759   -4.0036   17.8845 C   0  0  0  0  0  0  0  0  0  0  0  0
    8.5652    1.5478   25.3778 N   0  0  0  0  0  0  0  0  0  0  0  0
    6.8048   -7.5457   17.8752 C   0  0  0  0  0  0  0  0  0  0  0  0
    6.1721   -8.2186   15.9886 N   0  0  0  0  0  0  0  0  0  0  0  0
   11.1764   -2.6600   19.5604 C   0  0  0  0  0  0  0  0  0  0  0  0
    9.5491   -0.6380   24.1912 C   0  0  0  0  0  0  0  0  0  0  0  0
    7.5337   -6.9256   16.9519 C   0  0  0  0  0  0  0  0  0  0  0  0
    9.6782    0.5671   23.5143 C   0  0  0  0  0  0  0  0  0  0  0  0
    8.4532    0.3482   26.0821 C   0  0  0  0  0  0  0  0  0  0  0  0
   10.4239   -1.7677   22.2230 N   0  0  0  0  0  0  0  0  0  0  0  0
    9.9468   -4.5953   20.1709 C   0  0  0  0  0  0  0  0  0  0  0  0
   10.0366   -3.0590   23.9864 N   0  0  0  0  0  0  0  0  0  0  0  0
    7.1191   -7.3636   15.7739 C   0  0  0  0  0  0  0  0  0  0  0  0
    5.9612   -8.3203   17.2732 N   0  0  0  0  0  0  0  0  0  0  0  0
    8.5296   -5.9814   17.1841 C   0  0  0  0  0  0  0  0  0  0  0  0
    9.1527   -5.2118   16.2116 C   0  0  0  0  0  0  0  0  0  0  0  0
   10.3364   -3.8368   22.9255 O   0  0  0  0  0  0  0  0  0  0  0  0
    9.6947   -4.8407   18.8534 C   0  0  0  0  0  0  0  0  0  0  0  0
    9.1596    1.7042   24.1381 C   0  0  0  0  0  0  0  0  0  0  0  0
   11.0456   -2.9774   18.2694 N   0  0  0  0  0  0  0  0  0  0  0  0
   10.4788   -3.0457   21.8593 C   0  0  0  0  0  0  0  0  0  0  0  0
    8.8693   -5.8099   18.4657 N   0  0  0  0  0  0  0  0  0  0  0  0
    8.9892   -0.7926   25.4573 C   0  0  0  0  0  0  0  0  0  0  0  0
   10.5677   -3.4462   20.5323 C   0  0  0  0  0  0  0  0  0  0  0  0
  1  8  1  0
  1 12  4  0
  1 14  4  0
  2  3  4  0
  2 18  4  0
  3 20  4  0
  3 22  4  0
  4 11  4  0
  4 21  4  0
  5  9  4  0
  5 16  4  0
  6 15  4  0
  6 16  4  0
  7 22  4  0
  7 26  4  0
  8 10  4  0
  8 25  4  0
  9 15  4  0
  9 17  1  0
 10 21  4  0
 11 25  4  0
 12 23  4  0
 13 20  4  0
 13 26  4  0
 14 19  4  0
 17 18  4  0
 17 24  4  0
 19 23  4  0
 20 24  4  0
 23 26  1  0
M  END
$$$$

 Created by Python create_sdf_string function

 26 30  0  0  0  0  0  0  0  0999 V2000
   10.0084   -1.8019   23.4945 C   0  0  0  0  0  0  0  0  0  0  0  0
   10.0005   -4.2520   16.5631 C   0  0  0  0  0  0  0  0  0  0  0  0
   10.2759   -4.0036   17.8845 C   0  0  0  0  0  0  0  0  0  0  0  0
    8.5652    1.5478   25.3778 N   0  0  0  0  0  0  0  0  0  0  0  0
    6.8048   -7.5457   17.8752 C   0  0  0  0  0  0  0  0  0  0  0  0
    6.1721   -8.2186   15.9886 N   0  0  0  0  0  0  0  0  0  0  0  0
   11.1764   -2.6600   19.5604 C   0  0  0  0  0  0  0  0  0  0  0  0
    9.5491   -0.6380   24.1912 C   0  0  0  0  0  0  0  0  0  0  0  0
    7.5337   -6.9256   16.9519 C   0  0  0  0  0  0  0  0  0  0  0  0
    9.6782    0.5671   23.5143 C   0  0  0  0  0  0  0  0  0  0  0  0
    8.4532    0.3482   26.0821 C   0  0  0  0  0  0  0  0  0  0  0  0
   10.4239   -1.7677   22.2230 N   0  0  0  0  0  0  0  0  0  0  0  0
    9.9468   -4.5953   20.1709 C   0  0  0  0  0  0  0  0  0  0  0  0
   10.0366   -3.0590   23.9864 N   0  0  0  0  0  0  0  0  0  0  0  0
    7.1191   -7.3636   15.7739 C   0  0  0  0  0  0  0  0  0  0  0  0
    5.9612   -8.3203   17.2732 N   0  0  0  0  0  0  0  0  0  0  0  0
    8.5296   -5.9814   17.1841 C   0  0  0  0  0  0  0  0  0  0  0  0
    9.1527   -5.2118   16.2116 C   0  0  0  0  0  0  0  0  0  0  0  0
   10.3364   -3.8368   22.9255 O   0  0  0  0  0  0  0  0  0  0  0  0
    9.6947   -4.8407   18.8534 C   0  0  0  0  0  0  0  0  0  0  0  0
    9.1596    1.7042   24.1381 C   0  0  0  0  0  0  0  0  0  0  0  0
   11.0456   -2.9774   18.2694 N   0  0  0  0  0  0  0  0  0  0  0  0
   10.4788   -3.0457   21.8593 C   0  0  0  0  0  0  0  0  0  0  0  0
    8.8693   -5.8099   18.4657 N   0  0  0  0  0  0  0  0  0  0  0  0
    8.9892   -0.7926   25.4573 C   0  0  0  0  0  0  0  0  0  0  0  0
   10.5677   -3.4462   20.5323 C   0  0  0  0  0  0  0  0  0  0  0  0
  1  8  1  0
  1 12  4  0
  1 14  4  0
  2  3  4  0
  2 18  4  0
  3 20  4  0
  3 22  4  0
  4 11  4  0
  4 21  4  0
  5  9  4  0
  5 16  4  0
  6 15  4  0
  6 16  4  0
  7 22  4  0
  7 26  4  0
  8 10  4  0
  8 25  4  0
  9 15  4  0
  9 17  1  0
 10 21  4  0
 11 25  4  0
 12 23  4  0
 13 20  4  0
 13 26  4  0
 14 19  4  0
 17 18  4  0
 17 24  4  0
 19 23  4  0
 20 24  4  0
 23 26  1  0
M  END
$$$$

 Created by Python create_sdf_string function

 26 30  0  0  0  0  0  0  0  0999 V2000
   10.0084   -1.8019   23.4945 C   0  0  0  0  0  0  0  0  0  0  0  0
   10.0005   -4.2520   16.5631 C   0  0  0  0  0  0  0  0  0  0  0  0
   10.2759   -4.0036   17.8845 C   0  0  0  0  0  0  0  0  0  0  0  0
    8.5652    1.5478   25.3778 N   0  0  0  0  0  0  0  0  0  0  0  0
    6.8048   -7.5457   17.8752 C   0  0  0  0  0  0  0  0  0  0  0  0
    6.1721   -8.2186   15.9886 N   0  0  0  0  0  0  0  0  0  0  0  0
   11.1764   -2.6600   19.5604 C   0  0  0  0  0  0  0  0  0  0  0  0
    9.5491   -0.6380   24.1912 C   0  0  0  0  0  0  0  0  0  0  0  0
    7.5337   -6.9256   16.9519 C   0  0  0  0  0  0  0  0  0  0  0  0
    9.6782    0.5671   23.5143 C   0  0  0  0  0  0  0  0  0  0  0  0
    8.4532    0.3482   26.0821 C   0  0  0  0  0  0  0  0  0  0  0  0
   10.4239   -1.7677   22.2230 N   0  0  0  0  0  0  0  0  0  0  0  0
    9.9468   -4.5953   20.1709 C   0  0  0  0  0  0  0  0  0  0  0  0
   10.0366   -3.0590   23.9864 N   0  0  0  0  0  0  0  0  0  0  0  0
    7.1191   -7.3636   15.7739 C   0  0  0  0  0  0  0  0  0  0  0  0
    5.9612   -8.3203   17.2732 N   0  0  0  0  0  0  0  0  0  0  0  0
    8.5296   -5.9814   17.1841 C   0  0  0  0  0  0  0  0  0  0  0  0
    9.1527   -5.2118   16.2116 C   0  0  0  0  0  0  0  0  0  0  0  0
   10.3364   -3.8368   22.9255 O   0  0  0  0  0  0  0  0  0  0  0  0
    9.6947   -4.8407   18.8534 C   0  0  0  0  0  0  0  0  0  0  0  0
    9.1596    1.7042   24.1381 C   0  0  0  0  0  0  0  0  0  0  0  0
   11.0456   -2.9774   18.2694 N   0  0  0  0  0  0  0  0  0  0  0  0
   10.4788   -3.0457   21.8593 C   0  0  0  0  0  0  0  0  0  0  0  0
    8.8693   -5.8099   18.4657 N   0  0  0  0  0  0  0  0  0  0  0  0
    8.9892   -0.7926   25.4573 C   0  0  0  0  0  0  0  0  0  0  0  0
   10.5677   -3.4462   20.5323 C   0  0  0  0  0  0  0  0  0  0  0  0
  1  8  1  0
  1 12  4  0
  1 14  4  0
  2  3  4  0
  2 18  4  0
  3 20  4  0
  3 22  4  0
  4 11  4  0
  4 21  4  0
  5  9  4  0
  5 16  4  0
  6 15  4  0
  6 16  4  0
  7 22  4  0
  7 26  4  0
  8 10  4  0
  8 25  4  0
  9 15  4  0
  9 17  1  0
 10 21  4  0
 11 25  4  0
 12 23  4  0
 13 20  4  0
 13 26  4  0
 14 19  4  0
 17 18  4  0
 17 24  4  0
 19 23  4  0
 20 24  4  0
 23 26  1  0
M  END
$$$$

 Created by Python create_sdf_string function

 26 30  0  0  0  0  0  0  0  0999 V2000
   10.0084   -1.8019   23.4945 C   0  0  0  0  0  0  0  0  0  0  0  0
   10.0005   -4.2520   16.5631 C   0  0  0  0  0  0  0  0  0  0  0  0
   10.2759   -4.0036   17.8845 C   0  0  0  0  0  0  0  0  0  0  0  0
    8.5652    1.5478   25.3778 N   0  0  0  0  0  0  0  0  0  0  0  0
    6.8048   -7.5457   17.8752 C   0  0  0  0  0  0  0  0  0  0  0  0
    6.1721   -8.2186   15.9886 N   0  0  0  0  0  0  0  0  0  0  0  0
   11.1764   -2.6600   19.5604 C   0  0  0  0  0  0  0  0  0  0  0  0
    9.5491   -0.6380   24.1912 C   0  0  0  0  0  0  0  0  0  0  0  0
    7.5337   -6.9256   16.9519 C   0  0  0  0  0  0  0  0  0  0  0  0
    9.6782    0.5671   23.5143 C   0  0  0  0  0  0  0  0  0  0  0  0
    8.4532    0.3482   26.0821 C   0  0  0  0  0  0  0  0  0  0  0  0
   10.4239   -1.7677   22.2230 N   0  0  0  0  0  0  0  0  0  0  0  0
    9.9468   -4.5953   20.1709 C   0  0  0  0  0  0  0  0  0  0  0  0
   10.0366   -3.0590   23.9864 N   0  0  0  0  0  0  0  0  0  0  0  0
    7.1191   -7.3636   15.7739 C   0  0  0  0  0  0  0  0  0  0  0  0
    5.9612   -8.3203   17.2732 N   0  0  0  0  0  0  0  0  0  0  0  0
    8.5296   -5.9814   17.1841 C   0  0  0  0  0  0  0  0  0  0  0  0
    9.1527   -5.2118   16.2116 C   0  0  0  0  0  0  0  0  0  0  0  0
   10.3364   -3.8368   22.9255 O   0  0  0  0  0  0  0  0  0  0  0  0
    9.6947   -4.8407   18.8534 C   0  0  0  0  0  0  0  0  0  0  0  0
    9.1596    1.7042   24.1381 C   0  0  0  0  0  0  0  0  0  0  0  0
   11.0456   -2.9774   18.2694 N   0  0  0  0  0  0  0  0  0  0  0  0
   10.4788   -3.0457   21.8593 C   0  0  0  0  0  0  0  0  0  0  0  0
    8.8693   -5.8099   18.4657 N   0  0  0  0  0  0  0  0  0  0  0  0
    8.9892   -0.7926   25.4573 C   0  0  0  0  0  0  0  0  0  0  0  0
   10.5677   -3.4462   20.5323 C   0  0  0  0  0  0  0  0  0  0  0  0
  1  8  1  0
  1 12  4  0
  1 14  4  0
  2  3  4  0
  2 18  4  0
  3 20  4  0
  3 22  4  0
  4 11  4  0
  4 21  4  0
  5  9  4  0
  5 16  4  0
  6 15  4  0
  6 16  4  0
  7 22  4  0
  7 26  4  0
  8 10  4  0
  8 25  4  0
  9 15  4  0
  9 17  1  0
 10 21  4  0
 11 25  4  0
 12 23  4  0
 13 20  4  0
 13 26  4  0
 14 19  4  0
 17 18  4  0
 17 24  4  0
 19 23  4  0
 20 24  4  0
 23 26  1  0
M  END
$$$$

 Created by Python create_sdf_string function

 26 30  0  0  0  0  0  0  0  0999 V2000
   10.0084   -1.8019   23.4945 C   0  0  0  0  0  0  0  0  0  0  0  0
   10.0005   -4.2520   16.5631 C   0  0  0  0  0  0  0  0  0  0  0  0
   10.2759   -4.0036   17.8845 C   0  0  0  0  0  0  0  0  0  0  0  0
    8.5652    1.5478   25.3778 N   0  0  0  0  0  0  0  0  0  0  0  0
    6.8048   -7.5457   17.8752 C   0  0  0  0  0  0  0  0  0  0  0  0
    6.1721   -8.2186   15.9886 N   0  0  0  0  0  0  0  0  0  0  0  0
   11.1764   -2.6600   19.5604 C   0  0  0  0  0  0  0  0  0  0  0  0
    9.5491   -0.6380   24.1912 C   0  0  0  0  0  0  0  0  0  0  0  0
    7.5337   -6.9256   16.9519 C   0  0  0  0  0  0  0  0  0  0  0  0
    9.6782    0.5671   23.5143 C   0  0  0  0  0  0  0  0  0  0  0  0
    8.4532    0.3482   26.0821 C   0  0  0  0  0  0  0  0  0  0  0  0
   10.4239   -1.7677   22.2230 N   0  0  0  0  0  0  0  0  0  0  0  0
    9.9468   -4.5953   20.1709 C   0  0  0  0  0  0  0  0  0  0  0  0
   10.0366   -3.0590   23.9864 N   0  0  0  0  0  0  0  0  0  0  0  0
    7.1191   -7.3636   15.7739 C   0  0  0  0  0  0  0  0  0  0  0  0
    5.9612   -8.3203   17.2732 N   0  0  0  0  0  0  0  0  0  0  0  0
    8.5296   -5.9814   17.1841 C   0  0  0  0  0  0  0  0  0  0  0  0
    9.1527   -5.2118   16.2116 C   0  0  0  0  0  0  0  0  0  0  0  0
   10.3364   -3.8368   22.9255 O   0  0  0  0  0  0  0  0  0  0  0  0
    9.6947   -4.8407   18.8534 C   0  0  0  0  0  0  0  0  0  0  0  0
    9.1596    1.7042   24.1381 C   0  0  0  0  0  0  0  0  0  0  0  0
   11.0456   -2.9774   18.2694 N   0  0  0  0  0  0  0  0  0  0  0  0
   10.4788   -3.0457   21.8593 C   0  0  0  0  0  0  0  0  0  0  0  0
    8.8693   -5.8099   18.4657 N   0  0  0  0  0  0  0  0  0  0  0  0
    8.9892   -0.7926   25.4573 C   0  0  0  0  0  0  0  0  0  0  0  0
   10.5677   -3.4462   20.5323 C   0  0  0  0  0  0  0  0  0  0  0  0
  1  8  1  0
  1 12  4  0
  1 14  4  0
  2  3  4  0
  2 18  4  0
  3 20  4  0
  3 22  4  0
  4 11  4  0
  4 21  4  0
  5  9  4  0
  5 16  4  0
  6 15  4  0
  6 16  4  0
  7 22  4  0
  7 26  4  0
  8 10  4  0
  8 25  4  0
  9 15  4  0
  9 17  1  0
 10 21  4  0
 11 25  4  0
 12 23  4  0
 13 20  4  0
 13 26  4  0
 14 19  4  0
 17 18  4  0
 17 24  4  0
 19 23  4  0
 20 24  4  0
 23 26  1  0
M  END
$$$$

 Created by Python create_sdf_string function

 26 30  0  0  0  0  0  0  0  0999 V2000
   10.0084   -1.8019   23.4945 C   0  0  0  0  0  0  0  0  0  0  0  0
   10.0005   -4.2520   16.5631 C   0  0  0  0  0  0  0  0  0  0  0  0
   10.2759   -4.0036   17.8845 C   0  0  0  0  0  0  0  0  0  0  0  0
    8.5652    1.5478   25.3778 N   0  0  0  0  0  0  0  0  0  0  0  0
    6.8048   -7.5457   17.8752 C   0  0  0  0  0  0  0  0  0  0  0  0
    6.1721   -8.2186   15.9886 N   0  0  0  0  0  0  0  0  0  0  0  0
   11.1764   -2.6600   19.5604 C   0  0  0  0  0  0  0  0  0  0  0  0
    9.5491   -0.6380   24.1912 C   0  0  0  0  0  0  0  0  0  0  0  0
    7.5337   -6.9256   16.9519 C   0  0  0  0  0  0  0  0  0  0  0  0
    9.6782    0.5671   23.5143 C   0  0  0  0  0  0  0  0  0  0  0  0
    8.4532    0.3482   26.0821 C   0  0  0  0  0  0  0  0  0  0  0  0
   10.4239   -1.7677   22.2230 N   0  0  0  0  0  0  0  0  0  0  0  0
    9.9468   -4.5953   20.1709 C   0  0  0  0  0  0  0  0  0  0  0  0
   10.0366   -3.0590   23.9864 N   0  0  0  0  0  0  0  0  0  0  0  0
    7.1191   -7.3636   15.7739 C   0  0  0  0  0  0  0  0  0  0  0  0
    5.9612   -8.3203   17.2732 N   0  0  0  0  0  0  0  0  0  0  0  0
    8.5296   -5.9814   17.1841 C   0  0  0  0  0  0  0  0  0  0  0  0
    9.1527   -5.2118   16.2116 C   0  0  0  0  0  0  0  0  0  0  0  0
   10.3364   -3.8368   22.9255 O   0  0  0  0  0  0  0  0  0  0  0  0
    9.6947   -4.8407   18.8534 C   0  0  0  0  0  0  0  0  0  0  0  0
    9.1596    1.7042   24.1381 C   0  0  0  0  0  0  0  0  0  0  0  0
   11.0456   -2.9774   18.2694 N   0  0  0  0  0  0  0  0  0  0  0  0
   10.4788   -3.0457   21.8593 C   0  0  0  0  0  0  0  0  0  0  0  0
    8.8693   -5.8099   18.4657 N   0  0  0  0  0  0  0  0  0  0  0  0
    8.9892   -0.7926   25.4573 C   0  0  0  0  0  0  0  0  0  0  0  0
   10.5677   -3.4462   20.5323 C   0  0  0  0  0  0  0  0  0  0  0  0
  1  8  1  0
  1 12  4  0
  1 14  4  0
  2  3  4  0
  2 18  4  0
  3 20  4  0
  3 22  4  0
  4 11  4  0
  4 21  4  0
  5  9  4  0
  5 16  4  0
  6 15  4  0
  6 16  4  0
  7 22  4  0
  7 26  4  0
  8 10  4  0
  8 25  4  0
  9 15  4  0
  9 17  1  0
 10 21  4  0
 11 25  4  0
 12 23  4  0
 13 20  4  0
 13 26  4  0
 14 19  4  0
 17 18  4  0
 17 24  4  0
 19 23  4  0
 20 24  4  0
 23 26  1  0
M  END
$$$$

 Created by Python create_sdf_string function

 26 30  0  0  0  0  0  0  0  0999 V2000
   10.0084   -1.8019   23.4945 C   0  0  0  0  0  0  0  0  0  0  0  0
   10.0005   -4.2520   16.5631 C   0  0  0  0  0  0  0  0  0  0  0  0
   10.2759   -4.0036   17.8845 C   0  0  0  0  0  0  0  0  0  0  0  0
    8.5652    1.5478   25.3778 N   0  0  0  0  0  0  0  0  0  0  0  0
    6.8048   -7.5457   17.8752 C   0  0  0  0  0  0  0  0  0  0  0  0
    6.1721   -8.2186   15.9886 N   0  0  0  0  0  0  0  0  0  0  0  0
   11.1764   -2.6600   19.5604 C   0  0  0  0  0  0  0  0  0  0  0  0
    9.5491   -0.6380   24.1912 C   0  0  0  0  0  0  0  0  0  0  0  0
    7.5337   -6.9256   16.9519 C   0  0  0  0  0  0  0  0  0  0  0  0
    9.6782    0.5671   23.5143 C   0  0  0  0  0  0  0  0  0  0  0  0
    8.4532    0.3482   26.0821 C   0  0  0  0  0  0  0  0  0  0  0  0
   10.4239   -1.7677   22.2230 N   0  0  0  0  0  0  0  0  0  0  0  0
    9.9468   -4.5953   20.1709 C   0  0  0  0  0  0  0  0  0  0  0  0
   10.0366   -3.0590   23.9864 N   0  0  0  0  0  0  0  0  0  0  0  0
    7.1191   -7.3636   15.7739 C   0  0  0  0  0  0  0  0  0  0  0  0
    5.9612   -8.3203   17.2732 N   0  0  0  0  0  0  0  0  0  0  0  0
    8.5296   -5.9814   17.1841 C   0  0  0  0  0  0  0  0  0  0  0  0
    9.1527   -5.2118   16.2116 C   0  0  0  0  0  0  0  0  0  0  0  0
   10.3364   -3.8368   22.9255 O   0  0  0  0  0  0  0  0  0  0  0  0
    9.6947   -4.8407   18.8534 C   0  0  0  0  0  0  0  0  0  0  0  0
    9.1596    1.7042   24.1381 C   0  0  0  0  0  0  0  0  0  0  0  0
   11.0456   -2.9774   18.2694 N   0  0  0  0  0  0  0  0  0  0  0  0
   10.4788   -3.0457   21.8593 C   0  0  0  0  0  0  0  0  0  0  0  0
    8.8693   -5.8099   18.4657 N   0  0  0  0  0  0  0  0  0  0  0  0
    8.9892   -0.7926   25.4573 C   0  0  0  0  0  0  0  0  0  0  0  0
   10.5677   -3.4462   20.5323 C   0  0  0  0  0  0  0  0  0  0  0  0
  1  8  1  0
  1 12  4  0
  1 14  4  0
  2  3  4  0
  2 18  4  0
  3 20  4  0
  3 22  4  0
  4 11  4  0
  4 21  4  0
  5  9  4  0
  5 16  4  0
  6 15  4  0
  6 16  4  0
  7 22  4  0
  7 26  4  0
  8 10  4  0
  8 25  4  0
  9 15  4  0
  9 17  1  0
 10 21  4  0
 11 25  4  0
 12 23  4  0
 13 20  4  0
 13 26  4  0
 14 19  4  0
 17 18  4  0
 17 24  4  0
 19 23  4  0
 20 24  4  0
 23 26  1  0
M  END
$$$$

 Created by Python create_sdf_string function

 26 30  0  0  0  0  0  0  0  0999 V2000
   10.0084   -1.8019   23.4945 C   0  0  0  0  0  0  0  0  0  0  0  0
   10.0005   -4.2520   16.5631 C   0  0  0  0  0  0  0  0  0  0  0  0
   10.2759   -4.0036   17.8845 C   0  0  0  0  0  0  0  0  0  0  0  0
    8.5652    1.5478   25.3778 N   0  0  0  0  0  0  0  0  0  0  0  0
    6.8048   -7.5457   17.8752 C   0  0  0  0  0  0  0  0  0  0  0  0
    6.1721   -8.2186   15.9886 N   0  0  0  0  0  0  0  0  0  0  0  0
   11.1764   -2.6600   19.5604 C   0  0  0  0  0  0  0  0  0  0  0  0
    9.5491   -0.6380   24.1912 C   0  0  0  0  0  0  0  0  0  0  0  0
    7.5337   -6.9256   16.9519 C   0  0  0  0  0  0  0  0  0  0  0  0
    9.6782    0.5671   23.5143 C   0  0  0  0  0  0  0  0  0  0  0  0
    8.4532    0.3482   26.0821 C   0  0  0  0  0  0  0  0  0  0  0  0
   10.4239   -1.7677   22.2230 N   0  0  0  0  0  0  0  0  0  0  0  0
    9.9468   -4.5953   20.1709 C   0  0  0  0  0  0  0  0  0  0  0  0
   10.0366   -3.0590   23.9864 N   0  0  0  0  0  0  0  0  0  0  0  0
    7.1191   -7.3636   15.7739 C   0  0  0  0  0  0  0  0  0  0  0  0
    5.9612   -8.3203   17.2732 N   0  0  0  0  0  0  0  0  0  0  0  0
    8.5296   -5.9814   17.1841 C   0  0  0  0  0  0  0  0  0  0  0  0
    9.1527   -5.2118   16.2116 C   0  0  0  0  0  0  0  0  0  0  0  0
   10.3364   -3.8368   22.9255 O   0  0  0  0  0  0  0  0  0  0  0  0
    9.6947   -4.8407   18.8534 C   0  0  0  0  0  0  0  0  0  0  0  0
    9.1596    1.7042   24.1381 C   0  0  0  0  0  0  0  0  0  0  0  0
   11.0456   -2.9774   18.2694 N   0  0  0  0  0  0  0  0  0  0  0  0
   10.4788   -3.0457   21.8593 C   0  0  0  0  0  0  0  0  0  0  0  0
    8.8693   -5.8099   18.4657 N   0  0  0  0  0  0  0  0  0  0  0  0
    8.9892   -0.7926   25.4573 C   0  0  0  0  0  0  0  0  0  0  0  0
   10.5677   -3.4462   20.5323 C   0  0  0  0  0  0  0  0  0  0  0  0
  1  8  1  0
  1 12  4  0
  1 14  4  0
  2  3  4  0
  2 18  4  0
  3 20  4  0
  3 22  4  0
  4 11  4  0
  4 21  4  0
  5  9  4  0
  5 16  4  0
  6 15  4  0
  6 16  4  0
  7 22  4  0
  7 26  4  0
  8 10  4  0
  8 25  4  0
  9 15  4  0
  9 17  1  0
 10 21  4  0
 11 25  4  0
 12 23  4  0
 13 20  4  0
 13 26  4  0
 14 19  4  0
 17 18  4  0
 17 24  4  0
 19 23  4  0
 20 24  4  0
 23 26  1  0
M  END
$$$$

 Created by Python create_sdf_string function

 26 30  0  0  0  0  0  0  0  0999 V2000
   10.0084   -1.8019   23.4945 C   0  0  0  0  0  0  0  0  0  0  0  0
   10.0005   -4.2520   16.5631 C   0  0  0  0  0  0  0  0  0  0  0  0
   10.2759   -4.0036   17.8845 C   0  0  0  0  0  0  0  0  0  0  0  0
    8.5652    1.5478   25.3778 N   0  0  0  0  0  0  0  0  0  0  0  0
    6.8048   -7.5457   17.8752 C   0  0  0  0  0  0  0  0  0  0  0  0
    6.1721   -8.2186   15.9886 N   0  0  0  0  0  0  0  0  0  0  0  0
   11.1764   -2.6600   19.5604 C   0  0  0  0  0  0  0  0  0  0  0  0
    9.5491   -0.6380   24.1912 C   0  0  0  0  0  0  0  0  0  0  0  0
    7.5337   -6.9256   16.9519 C   0  0  0  0  0  0  0  0  0  0  0  0
    9.6782    0.5671   23.5143 C   0  0  0  0  0  0  0  0  0  0  0  0
    8.4532    0.3482   26.0821 C   0  0  0  0  0  0  0  0  0  0  0  0
   10.4239   -1.7677   22.2230 N   0  0  0  0  0  0  0  0  0  0  0  0
    9.9468   -4.5953   20.1709 C   0  0  0  0  0  0  0  0  0  0  0  0
   10.0366   -3.0590   23.9864 N   0  0  0  0  0  0  0  0  0  0  0  0
    7.1191   -7.3636   15.7739 C   0  0  0  0  0  0  0  0  0  0  0  0
    5.9612   -8.3203   17.2732 N   0  0  0  0  0  0  0  0  0  0  0  0
    8.5296   -5.9814   17.1841 C   0  0  0  0  0  0  0  0  0  0  0  0
    9.1527   -5.2118   16.2116 C   0  0  0  0  0  0  0  0  0  0  0  0
   10.3364   -3.8368   22.9255 O   0  0  0  0  0  0  0  0  0  0  0  0
    9.6947   -4.8407   18.8534 C   0  0  0  0  0  0  0  0  0  0  0  0
    9.1596    1.7042   24.1381 C   0  0  0  0  0  0  0  0  0  0  0  0
   11.0456   -2.9774   18.2694 N   0  0  0  0  0  0  0  0  0  0  0  0
   10.4788   -3.0457   21.8593 C   0  0  0  0  0  0  0  0  0  0  0  0
    8.8693   -5.8099   18.4657 N   0  0  0  0  0  0  0  0  0  0  0  0
    8.9892   -0.7926   25.4573 C   0  0  0  0  0  0  0  0  0  0  0  0
   10.5677   -3.4462   20.5323 C   0  0  0  0  0  0  0  0  0  0  0  0
  1  8  1  0
  1 12  4  0
  1 14  4  0
  2  3  4  0
  2 18  4  0
  3 20  4  0
  3 22  4  0
  4 11  4  0
  4 21  4  0
  5  9  4  0
  5 16  4  0
  6 15  4  0
  6 16  4  0
  7 22  4  0
  7 26  4  0
  8 10  4  0
  8 25  4  0
  9 15  4  0
  9 17  1  0
 10 21  4  0
 11 25  4  0
 12 23  4  0
 13 20  4  0
 13 26  4  0
 14 19  4  0
 17 18  4  0
 17 24  4  0
 19 23  4  0
 20 24  4  0
 23 26  1  0
M  END
$$$$

 Created by Python create_sdf_string function

 26 30  0  0  0  0  0  0  0  0999 V2000
   10.0084   -1.8019   23.4945 C   0  0  0  0  0  0  0  0  0  0  0  0
   10.0005   -4.2520   16.5631 C   0  0  0  0  0  0  0  0  0  0  0  0
   10.2759   -4.0036   17.8845 C   0  0  0  0  0  0  0  0  0  0  0  0
    8.5652    1.5478   25.3778 N   0  0  0  0  0  0  0  0  0  0  0  0
    6.8048   -7.5457   17.8752 C   0  0  0  0  0  0  0  0  0  0  0  0
    6.1721   -8.2186   15.9886 N   0  0  0  0  0  0  0  0  0  0  0  0
   11.1764   -2.6600   19.5604 C   0  0  0  0  0  0  0  0  0  0  0  0
    9.5491   -0.6380   24.1912 C   0  0  0  0  0  0  0  0  0  0  0  0
    7.5337   -6.9256   16.9519 C   0  0  0  0  0  0  0  0  0  0  0  0
    9.6782    0.5671   23.5143 C   0  0  0  0  0  0  0  0  0  0  0  0
    8.4532    0.3482   26.0821 C   0  0  0  0  0  0  0  0  0  0  0  0
   10.4239   -1.7677   22.2230 N   0  0  0  0  0  0  0  0  0  0  0  0
    9.9468   -4.5953   20.1709 C   0  0  0  0  0  0  0  0  0  0  0  0
   10.0366   -3.0590   23.9864 N   0  0  0  0  0  0  0  0  0  0  0  0
    7.1191   -7.3636   15.7739 C   0  0  0  0  0  0  0  0  0  0  0  0
    5.9612   -8.3203   17.2732 N   0  0  0  0  0  0  0  0  0  0  0  0
    8.5296   -5.9814   17.1841 C   0  0  0  0  0  0  0  0  0  0  0  0
    9.1527   -5.2118   16.2116 C   0  0  0  0  0  0  0  0  0  0  0  0
   10.3364   -3.8368   22.9255 O   0  0  0  0  0  0  0  0  0  0  0  0
    9.6947   -4.8407   18.8534 C   0  0  0  0  0  0  0  0  0  0  0  0
    9.1596    1.7042   24.1381 C   0  0  0  0  0  0  0  0  0  0  0  0
   11.0456   -2.9774   18.2694 N   0  0  0  0  0  0  0  0  0  0  0  0
   10.4788   -3.0457   21.8593 C   0  0  0  0  0  0  0  0  0  0  0  0
    8.8693   -5.8099   18.4657 N   0  0  0  0  0  0  0  0  0  0  0  0
    8.9892   -0.7926   25.4573 C   0  0  0  0  0  0  0  0  0  0  0  0
   10.5677   -3.4462   20.5323 C   0  0  0  0  0  0  0  0  0  0  0  0
  1  8  1  0
  1 12  4  0
  1 14  4  0
  2  3  4  0
  2 18  4  0
  3 20  4  0
  3 22  4  0
  4 11  4  0
  4 21  4  0
  5  9  4  0
  5 16  4  0
  6 15  4  0
  6 16  4  0
  7 22  4  0
  7 26  4  0
  8 10  4  0
  8 25  4  0
  9 15  4  0
  9 17  1  0
 10 21  4  0
 11 25  4  0
 12 23  4  0
 13 20  4  0
 13 26  4  0
 14 19  4  0
 17 18  4  0
 17 24  4  0
 19 23  4  0
 20 24  4  0
 23 26  1  0
M  END
$$$$

 Created by Python create_sdf_string function

 26 30  0  0  0  0  0  0  0  0999 V2000
   10.0084   -1.8019   23.4945 C   0  0  0  0  0  0  0  0  0  0  0  0
   10.0005   -4.2520   16.5631 C   0  0  0  0  0  0  0  0  0  0  0  0
   10.2759   -4.0036   17.8845 C   0  0  0  0  0  0  0  0  0  0  0  0
    8.5652    1.5478   25.3778 N   0  0  0  0  0  0  0  0  0  0  0  0
    6.8048   -7.5457   17.8752 C   0  0  0  0  0  0  0  0  0  0  0  0
    6.1721   -8.2186   15.9886 N   0  0  0  0  0  0  0  0  0  0  0  0
   11.1764   -2.6600   19.5604 C   0  0  0  0  0  0  0  0  0  0  0  0
    9.5491   -0.6380   24.1912 C   0  0  0  0  0  0  0  0  0  0  0  0
    7.5337   -6.9256   16.9519 C   0  0  0  0  0  0  0  0  0  0  0  0
    9.6782    0.5671   23.5143 C   0  0  0  0  0  0  0  0  0  0  0  0
    8.4532    0.3482   26.0821 C   0  0  0  0  0  0  0  0  0  0  0  0
   10.4239   -1.7677   22.2230 N   0  0  0  0  0  0  0  0  0  0  0  0
    9.9468   -4.5953   20.1709 C   0  0  0  0  0  0  0  0  0  0  0  0
   10.0366   -3.0590   23.9864 N   0  0  0  0  0  0  0  0  0  0  0  0
    7.1191   -7.3636   15.7739 C   0  0  0  0  0  0  0  0  0  0  0  0
    5.9612   -8.3203   17.2732 N   0  0  0  0  0  0  0  0  0  0  0  0
    8.5296   -5.9814   17.1841 C   0  0  0  0  0  0  0  0  0  0  0  0
    9.1527   -5.2118   16.2116 C   0  0  0  0  0  0  0  0  0  0  0  0
   10.3364   -3.8368   22.9255 O   0  0  0  0  0  0  0  0  0  0  0  0
    9.6947   -4.8407   18.8534 C   0  0  0  0  0  0  0  0  0  0  0  0
    9.1596    1.7042   24.1381 C   0  0  0  0  0  0  0  0  0  0  0  0
   11.0456   -2.9774   18.2694 N   0  0  0  0  0  0  0  0  0  0  0  0
   10.4788   -3.0457   21.8593 C   0  0  0  0  0  0  0  0  0  0  0  0
    8.8693   -5.8099   18.4657 N   0  0  0  0  0  0  0  0  0  0  0  0
    8.9892   -0.7926   25.4573 C   0  0  0  0  0  0  0  0  0  0  0  0
   10.5677   -3.4462   20.5323 C   0  0  0  0  0  0  0  0  0  0  0  0
  1  8  1  0
  1 12  4  0
  1 14  4  0
  2  3  4  0
  2 18  4  0
  3 20  4  0
  3 22  4  0
  4 11  4  0
  4 21  4  0
  5  9  4  0
  5 16  4  0
  6 15  4  0
  6 16  4  0
  7 22  4  0
  7 26  4  0
  8 10  4  0
  8 25  4  0
  9 15  4  0
  9 17  1  0
 10 21  4  0
 11 25  4  0
 12 23  4  0
 13 20  4  0
 13 26  4  0
 14 19  4  0
 17 18  4  0
 17 24  4  0
 19 23  4  0
 20 24  4  0
 23 26  1  0
M  END
$$$$

 Created by Python create_sdf_string function

 26 30  0  0  0  0  0  0  0  0999 V2000
   10.0084   -1.8019   23.4945 C   0  0  0  0  0  0  0  0  0  0  0  0
   10.0005   -4.2520   16.5631 C   0  0  0  0  0  0  0  0  0  0  0  0
   10.2759   -4.0036   17.8845 C   0  0  0  0  0  0  0  0  0  0  0  0
    8.5652    1.5478   25.3778 N   0  0  0  0  0  0  0  0  0  0  0  0
    6.8048   -7.5457   17.8752 C   0  0  0  0  0  0  0  0  0  0  0  0
    6.1721   -8.2186   15.9886 N   0  0  0  0  0  0  0  0  0  0  0  0
   11.1764   -2.6600   19.5604 C   0  0  0  0  0  0  0  0  0  0  0  0
    9.5491   -0.6380   24.1912 C   0  0  0  0  0  0  0  0  0  0  0  0
    7.5337   -6.9256   16.9519 C   0  0  0  0  0  0  0  0  0  0  0  0
    9.6782    0.5671   23.5143 C   0  0  0  0  0  0  0  0  0  0  0  0
    8.4532    0.3482   26.0821 C   0  0  0  0  0  0  0  0  0  0  0  0
   10.4239   -1.7677   22.2230 N   0  0  0  0  0  0  0  0  0  0  0  0
    9.9468   -4.5953   20.1709 C   0  0  0  0  0  0  0  0  0  0  0  0
   10.0366   -3.0590   23.9864 N   0  0  0  0  0  0  0  0  0  0  0  0
    7.1191   -7.3636   15.7739 C   0  0  0  0  0  0  0  0  0  0  0  0
    5.9612   -8.3203   17.2732 N   0  0  0  0  0  0  0  0  0  0  0  0
    8.5296   -5.9814   17.1841 C   0  0  0  0  0  0  0  0  0  0  0  0
    9.1527   -5.2118   16.2116 C   0  0  0  0  0  0  0  0  0  0  0  0
   10.3364   -3.8368   22.9255 O   0  0  0  0  0  0  0  0  0  0  0  0
    9.6947   -4.8407   18.8534 C   0  0  0  0  0  0  0  0  0  0  0  0
    9.1596    1.7042   24.1381 C   0  0  0  0  0  0  0  0  0  0  0  0
   11.0456   -2.9774   18.2694 N   0  0  0  0  0  0  0  0  0  0  0  0
   10.4788   -3.0457   21.8593 C   0  0  0  0  0  0  0  0  0  0  0  0
    8.8693   -5.8099   18.4657 N   0  0  0  0  0  0  0  0  0  0  0  0
    8.9892   -0.7926   25.4573 C   0  0  0  0  0  0  0  0  0  0  0  0
   10.5677   -3.4462   20.5323 C   0  0  0  0  0  0  0  0  0  0  0  0
  1  8  1  0
  1 12  4  0
  1 14  4  0
  2  3  4  0
  2 18  4  0
  3 20  4  0
  3 22  4  0
  4 11  4  0
  4 21  4  0
  5  9  4  0
  5 16  4  0
  6 15  4  0
  6 16  4  0
  7 22  4  0
  7 26  4  0
  8 10  4  0
  8 25  4  0
  9 15  4  0
  9 17  1  0
 10 21  4  0
 11 25  4  0
 12 23  4  0
 13 20  4  0
 13 26  4  0
 14 19  4  0
 17 18  4  0
 17 24  4  0
 19 23  4  0
 20 24  4  0
 23 26  1  0
M  END
$$$$

 Created by Python create_sdf_string function

 26 30  0  0  0  0  0  0  0  0999 V2000
   10.0084   -1.8019   23.4945 C   0  0  0  0  0  0  0  0  0  0  0  0
   10.0005   -4.2520   16.5631 C   0  0  0  0  0  0  0  0  0  0  0  0
   10.2759   -4.0036   17.8845 C   0  0  0  0  0  0  0  0  0  0  0  0
    8.5652    1.5478   25.3778 N   0  0  0  0  0  0  0  0  0  0  0  0
    6.8048   -7.5457   17.8752 C   0  0  0  0  0  0  0  0  0  0  0  0
    6.1721   -8.2186   15.9886 N   0  0  0  0  0  0  0  0  0  0  0  0
   11.1764   -2.6600   19.5604 C   0  0  0  0  0  0  0  0  0  0  0  0
    9.5491   -0.6380   24.1912 C   0  0  0  0  0  0  0  0  0  0  0  0
    7.5337   -6.9256   16.9519 C   0  0  0  0  0  0  0  0  0  0  0  0
    9.6782    0.5671   23.5143 C   0  0  0  0  0  0  0  0  0  0  0  0
    8.4532    0.3482   26.0821 C   0  0  0  0  0  0  0  0  0  0  0  0
   10.4239   -1.7677   22.2230 N   0  0  0  0  0  0  0  0  0  0  0  0
    9.9468   -4.5953   20.1709 C   0  0  0  0  0  0  0  0  0  0  0  0
   10.0366   -3.0590   23.9864 N   0  0  0  0  0  0  0  0  0  0  0  0
    7.1191   -7.3636   15.7739 C   0  0  0  0  0  0  0  0  0  0  0  0
    5.9612   -8.3203   17.2732 N   0  0  0  0  0  0  0  0  0  0  0  0
    8.5296   -5.9814   17.1841 C   0  0  0  0  0  0  0  0  0  0  0  0
    9.1527   -5.2118   16.2116 C   0  0  0  0  0  0  0  0  0  0  0  0
   10.3364   -3.8368   22.9255 O   0  0  0  0  0  0  0  0  0  0  0  0
    9.6947   -4.8407   18.8534 C   0  0  0  0  0  0  0  0  0  0  0  0
    9.1596    1.7042   24.1381 C   0  0  0  0  0  0  0  0  0  0  0  0
   11.0456   -2.9774   18.2694 N   0  0  0  0  0  0  0  0  0  0  0  0
   10.4788   -3.0457   21.8593 C   0  0  0  0  0  0  0  0  0  0  0  0
    8.8693   -5.8099   18.4657 N   0  0  0  0  0  0  0  0  0  0  0  0
    8.9892   -0.7926   25.4573 C   0  0  0  0  0  0  0  0  0  0  0  0
   10.5677   -3.4462   20.5323 C   0  0  0  0  0  0  0  0  0  0  0  0
  1  8  1  0
  1 12  4  0
  1 14  4  0
  2  3  4  0
  2 18  4  0
  3 20  4  0
  3 22  4  0
  4 11  4  0
  4 21  4  0
  5  9  4  0
  5 16  4  0
  6 15  4  0
  6 16  4  0
  7 22  4  0
  7 26  4  0
  8 10  4  0
  8 25  4  0
  9 15  4  0
  9 17  1  0
 10 21  4  0
 11 25  4  0
 12 23  4  0
 13 20  4  0
 13 26  4  0
 14 19  4  0
 17 18  4  0
 17 24  4  0
 19 23  4  0
 20 24  4  0
 23 26  1  0
M  END
$$$$

 Created by Python create_sdf_string function

 26 30  0  0  0  0  0  0  0  0999 V2000
   10.0084   -1.8019   23.4945 C   0  0  0  0  0  0  0  0  0  0  0  0
   10.0005   -4.2520   16.5631 C   0  0  0  0  0  0  0  0  0  0  0  0
   10.2759   -4.0036   17.8845 C   0  0  0  0  0  0  0  0  0  0  0  0
    8.5652    1.5478   25.3778 N   0  0  0  0  0  0  0  0  0  0  0  0
    6.8048   -7.5457   17.8752 C   0  0  0  0  0  0  0  0  0  0  0  0
    6.1721   -8.2186   15.9886 N   0  0  0  0  0  0  0  0  0  0  0  0
   11.1764   -2.6600   19.5604 C   0  0  0  0  0  0  0  0  0  0  0  0
    9.5491   -0.6380   24.1912 C   0  0  0  0  0  0  0  0  0  0  0  0
    7.5337   -6.9256   16.9519 C   0  0  0  0  0  0  0  0  0  0  0  0
    9.6782    0.5671   23.5143 C   0  0  0  0  0  0  0  0  0  0  0  0
    8.4532    0.3482   26.0821 C   0  0  0  0  0  0  0  0  0  0  0  0
   10.4239   -1.7677   22.2230 N   0  0  0  0  0  0  0  0  0  0  0  0
    9.9468   -4.5953   20.1709 C   0  0  0  0  0  0  0  0  0  0  0  0
   10.0366   -3.0590   23.9864 N   0  0  0  0  0  0  0  0  0  0  0  0
    7.1191   -7.3636   15.7739 C   0  0  0  0  0  0  0  0  0  0  0  0
    5.9612   -8.3203   17.2732 N   0  0  0  0  0  0  0  0  0  0  0  0
    8.5296   -5.9814   17.1841 C   0  0  0  0  0  0  0  0  0  0  0  0
    9.1527   -5.2118   16.2116 C   0  0  0  0  0  0  0  0  0  0  0  0
   10.3364   -3.8368   22.9255 O   0  0  0  0  0  0  0  0  0  0  0  0
    9.6947   -4.8407   18.8534 C   0  0  0  0  0  0  0  0  0  0  0  0
    9.1596    1.7042   24.1381 C   0  0  0  0  0  0  0  0  0  0  0  0
   11.0456   -2.9774   18.2694 N   0  0  0  0  0  0  0  0  0  0  0  0
   10.4788   -3.0457   21.8593 C   0  0  0  0  0  0  0  0  0  0  0  0
    8.8693   -5.8099   18.4657 N   0  0  0  0  0  0  0  0  0  0  0  0
    8.9892   -0.7926   25.4573 C   0  0  0  0  0  0  0  0  0  0  0  0
   10.5677   -3.4462   20.5323 C   0  0  0  0  0  0  0  0  0  0  0  0
  1  8  1  0
  1 12  4  0
  1 14  4  0
  2  3  4  0
  2 18  4  0
  3 20  4  0
  3 22  4  0
  4 11  4  0
  4 21  4  0
  5  9  4  0
  5 16  4  0
  6 15  4  0
  6 16  4  0
  7 22  4  0
  7 26  4  0
  8 10  4  0
  8 25  4  0
  9 15  4  0
  9 17  1  0
 10 21  4  0
 11 25  4  0
 12 23  4  0
 13 20  4  0
 13 26  4  0
 14 19  4  0
 17 18  4  0
 17 24  4  0
 19 23  4  0
 20 24  4  0
 23 26  1  0
M  END
$$$$

 Created by Python create_sdf_string function

 26 30  0  0  0  0  0  0  0  0999 V2000
   10.0084   -1.8019   23.4945 C   0  0  0  0  0  0  0  0  0  0  0  0
   10.0005   -4.2520   16.5631 C   0  0  0  0  0  0  0  0  0  0  0  0
   10.2759   -4.0036   17.8845 C   0  0  0  0  0  0  0  0  0  0  0  0
    8.5652    1.5478   25.3778 N   0  0  0  0  0  0  0  0  0  0  0  0
    6.8048   -7.5457   17.8752 C   0  0  0  0  0  0  0  0  0  0  0  0
    6.1721   -8.2186   15.9886 N   0  0  0  0  0  0  0  0  0  0  0  0
   11.1764   -2.6600   19.5604 C   0  0  0  0  0  0  0  0  0  0  0  0
    9.5491   -0.6380   24.1912 C   0  0  0  0  0  0  0  0  0  0  0  0
    7.5337   -6.9256   16.9519 C   0  0  0  0  0  0  0  0  0  0  0  0
    9.6782    0.5671   23.5143 C   0  0  0  0  0  0  0  0  0  0  0  0
    8.4532    0.3482   26.0821 C   0  0  0  0  0  0  0  0  0  0  0  0
   10.4239   -1.7677   22.2230 N   0  0  0  0  0  0  0  0  0  0  0  0
    9.9468   -4.5953   20.1709 C   0  0  0  0  0  0  0  0  0  0  0  0
   10.0366   -3.0590   23.9864 N   0  0  0  0  0  0  0  0  0  0  0  0
    7.1191   -7.3636   15.7739 C   0  0  0  0  0  0  0  0  0  0  0  0
    5.9612   -8.3203   17.2732 N   0  0  0  0  0  0  0  0  0  0  0  0
    8.5296   -5.9814   17.1841 C   0  0  0  0  0  0  0  0  0  0  0  0
    9.1527   -5.2118   16.2116 C   0  0  0  0  0  0  0  0  0  0  0  0
   10.3364   -3.8368   22.9255 O   0  0  0  0  0  0  0  0  0  0  0  0
    9.6947   -4.8407   18.8534 C   0  0  0  0  0  0  0  0  0  0  0  0
    9.1596    1.7042   24.1381 C   0  0  0  0  0  0  0  0  0  0  0  0
   11.0456   -2.9774   18.2694 N   0  0  0  0  0  0  0  0  0  0  0  0
   10.4788   -3.0457   21.8593 C   0  0  0  0  0  0  0  0  0  0  0  0
    8.8693   -5.8099   18.4657 N   0  0  0  0  0  0  0  0  0  0  0  0
    8.9892   -0.7926   25.4573 C   0  0  0  0  0  0  0  0  0  0  0  0
   10.5677   -3.4462   20.5323 C   0  0  0  0  0  0  0  0  0  0  0  0
  1  8  1  0
  1 12  4  0
  1 14  4  0
  2  3  4  0
  2 18  4  0
  3 20  4  0
  3 22  4  0
  4 11  4  0
  4 21  4  0
  5  9  4  0
  5 16  4  0
  6 15  4  0
  6 16  4  0
  7 22  4  0
  7 26  4  0
  8 10  4  0
  8 25  4  0
  9 15  4  0
  9 17  1  0
 10 21  4  0
 11 25  4  0
 12 23  4  0
 13 20  4  0
 13 26  4  0
 14 19  4  0
 17 18  4  0
 17 24  4  0
 19 23  4  0
 20 24  4  0
 23 26  1  0
M  END
$$$$

 Created by Python create_sdf_string function

 26 30  0  0  0  0  0  0  0  0999 V2000
   10.0084   -1.8019   23.4945 C   0  0  0  0  0  0  0  0  0  0  0  0
   10.0005   -4.2520   16.5631 C   0  0  0  0  0  0  0  0  0  0  0  0
   10.2759   -4.0036   17.8845 C   0  0  0  0  0  0  0  0  0  0  0  0
    8.5652    1.5478   25.3778 N   0  0  0  0  0  0  0  0  0  0  0  0
    6.8048   -7.5457   17.8752 C   0  0  0  0  0  0  0  0  0  0  0  0
    6.1721   -8.2186   15.9886 N   0  0  0  0  0  0  0  0  0  0  0  0
   11.1764   -2.6600   19.5604 C   0  0  0  0  0  0  0  0  0  0  0  0
    9.5491   -0.6380   24.1912 C   0  0  0  0  0  0  0  0  0  0  0  0
    7.5337   -6.9256   16.9519 C   0  0  0  0  0  0  0  0  0  0  0  0
    9.6782    0.5671   23.5143 C   0  0  0  0  0  0  0  0  0  0  0  0
    8.4532    0.3482   26.0821 C   0  0  0  0  0  0  0  0  0  0  0  0
   10.4239   -1.7677   22.2230 N   0  0  0  0  0  0  0  0  0  0  0  0
    9.9468   -4.5953   20.1709 C   0  0  0  0  0  0  0  0  0  0  0  0
   10.0366   -3.0590   23.9864 N   0  0  0  0  0  0  0  0  0  0  0  0
    7.1191   -7.3636   15.7739 C   0  0  0  0  0  0  0  0  0  0  0  0
    5.9612   -8.3203   17.2732 N   0  0  0  0  0  0  0  0  0  0  0  0
    8.5296   -5.9814   17.1841 C   0  0  0  0  0  0  0  0  0  0  0  0
    9.1527   -5.2118   16.2116 C   0  0  0  0  0  0  0  0  0  0  0  0
   10.3364   -3.8368   22.9255 O   0  0  0  0  0  0  0  0  0  0  0  0
    9.6947   -4.8407   18.8534 C   0  0  0  0  0  0  0  0  0  0  0  0
    9.1596    1.7042   24.1381 C   0  0  0  0  0  0  0  0  0  0  0  0
   11.0456   -2.9774   18.2694 N   0  0  0  0  0  0  0  0  0  0  0  0
   10.4788   -3.0457   21.8593 C   0  0  0  0  0  0  0  0  0  0  0  0
    8.8693   -5.8099   18.4657 N   0  0  0  0  0  0  0  0  0  0  0  0
    8.9892   -0.7926   25.4573 C   0  0  0  0  0  0  0  0  0  0  0  0
   10.5677   -3.4462   20.5323 C   0  0  0  0  0  0  0  0  0  0  0  0
  1  8  1  0
  1 12  4  0
  1 14  4  0
  2  3  4  0
  2 18  4  0
  3 20  4  0
  3 22  4  0
  4 11  4  0
  4 21  4  0
  5  9  4  0
  5 16  4  0
  6 15  4  0
  6 16  4  0
  7 22  4  0
  7 26  4  0
  8 10  4  0
  8 25  4  0
  9 15  4  0
  9 17  1  0
 10 21  4  0
 11 25  4  0
 12 23  4  0
 13 20  4  0
 13 26  4  0
 14 19  4  0
 17 18  4  0
 17 24  4  0
 19 23  4  0
 20 24  4  0
 23 26  1  0
M  END
$$$$

 Created by Python create_sdf_string function

 26 30  0  0  0  0  0  0  0  0999 V2000
   10.0084   -1.8019   23.4945 C   0  0  0  0  0  0  0  0  0  0  0  0
   10.0005   -4.2520   16.5631 C   0  0  0  0  0  0  0  0  0  0  0  0
   10.2759   -4.0036   17.8845 C   0  0  0  0  0  0  0  0  0  0  0  0
    8.5652    1.5478   25.3778 N   0  0  0  0  0  0  0  0  0  0  0  0
    6.8048   -7.5457   17.8752 C   0  0  0  0  0  0  0  0  0  0  0  0
    6.1721   -8.2186   15.9886 N   0  0  0  0  0  0  0  0  0  0  0  0
   11.1764   -2.6600   19.5604 C   0  0  0  0  0  0  0  0  0  0  0  0
    9.5491   -0.6380   24.1912 C   0  0  0  0  0  0  0  0  0  0  0  0
    7.5337   -6.9256   16.9519 C   0  0  0  0  0  0  0  0  0  0  0  0
    9.6782    0.5671   23.5143 C   0  0  0  0  0  0  0  0  0  0  0  0
    8.4532    0.3482   26.0821 C   0  0  0  0  0  0  0  0  0  0  0  0
   10.4239   -1.7677   22.2230 N   0  0  0  0  0  0  0  0  0  0  0  0
    9.9468   -4.5953   20.1709 C   0  0  0  0  0  0  0  0  0  0  0  0
   10.0366   -3.0590   23.9864 N   0  0  0  0  0  0  0  0  0  0  0  0
    7.1191   -7.3636   15.7739 C   0  0  0  0  0  0  0  0  0  0  0  0
    5.9612   -8.3203   17.2732 N   0  0  0  0  0  0  0  0  0  0  0  0
    8.5296   -5.9814   17.1841 C   0  0  0  0  0  0  0  0  0  0  0  0
    9.1527   -5.2118   16.2116 C   0  0  0  0  0  0  0  0  0  0  0  0
   10.3364   -3.8368   22.9255 O   0  0  0  0  0  0  0  0  0  0  0  0
    9.6947   -4.8407   18.8534 C   0  0  0  0  0  0  0  0  0  0  0  0
    9.1596    1.7042   24.1381 C   0  0  0  0  0  0  0  0  0  0  0  0
   11.0456   -2.9774   18.2694 N   0  0  0  0  0  0  0  0  0  0  0  0
   10.4788   -3.0457   21.8593 C   0  0  0  0  0  0  0  0  0  0  0  0
    8.8693   -5.8099   18.4657 N   0  0  0  0  0  0  0  0  0  0  0  0
    8.9892   -0.7926   25.4573 C   0  0  0  0  0  0  0  0  0  0  0  0
   10.5677   -3.4462   20.5323 C   0  0  0  0  0  0  0  0  0  0  0  0
  1  8  1  0
  1 12  4  0
  1 14  4  0
  2  3  4  0
  2 18  4  0
  3 20  4  0
  3 22  4  0
  4 11  4  0
  4 21  4  0
  5  9  4  0
  5 16  4  0
  6 15  4  0
  6 16  4  0
  7 22  4  0
  7 26  4  0
  8 10  4  0
  8 25  4  0
  9 15  4  0
  9 17  1  0
 10 21  4  0
 11 25  4  0
 12 23  4  0
 13 20  4  0
 13 26  4  0
 14 19  4  0
 17 18  4  0
 17 24  4  0
 19 23  4  0
 20 24  4  0
 23 26  1  0
M  END
$$$$

 Created by Python create_sdf_string function

 26 30  0  0  0  0  0  0  0  0999 V2000
   10.0084   -1.8019   23.4945 C   0  0  0  0  0  0  0  0  0  0  0  0
   10.0005   -4.2520   16.5631 C   0  0  0  0  0  0  0  0  0  0  0  0
   10.2759   -4.0036   17.8845 C   0  0  0  0  0  0  0  0  0  0  0  0
    8.5652    1.5478   25.3778 N   0  0  0  0  0  0  0  0  0  0  0  0
    6.8048   -7.5457   17.8752 C   0  0  0  0  0  0  0  0  0  0  0  0
    6.1721   -8.2186   15.9886 N   0  0  0  0  0  0  0  0  0  0  0  0
   11.1764   -2.6600   19.5604 C   0  0  0  0  0  0  0  0  0  0  0  0
    9.5491   -0.6380   24.1912 C   0  0  0  0  0  0  0  0  0  0  0  0
    7.5337   -6.9256   16.9519 C   0  0  0  0  0  0  0  0  0  0  0  0
    9.6782    0.5671   23.5143 C   0  0  0  0  0  0  0  0  0  0  0  0
    8.4532    0.3482   26.0821 C   0  0  0  0  0  0  0  0  0  0  0  0
   10.4239   -1.7677   22.2230 N   0  0  0  0  0  0  0  0  0  0  0  0
    9.9468   -4.5953   20.1709 C   0  0  0  0  0  0  0  0  0  0  0  0
   10.0366   -3.0590   23.9864 N   0  0  0  0  0  0  0  0  0  0  0  0
    7.1191   -7.3636   15.7739 C   0  0  0  0  0  0  0  0  0  0  0  0
    5.9612   -8.3203   17.2732 N   0  0  0  0  0  0  0  0  0  0  0  0
    8.5296   -5.9814   17.1841 C   0  0  0  0  0  0  0  0  0  0  0  0
    9.1527   -5.2118   16.2116 C   0  0  0  0  0  0  0  0  0  0  0  0
   10.3364   -3.8368   22.9255 O   0  0  0  0  0  0  0  0  0  0  0  0
    9.6947   -4.8407   18.8534 C   0  0  0  0  0  0  0  0  0  0  0  0
    9.1596    1.7042   24.1381 C   0  0  0  0  0  0  0  0  0  0  0  0
   11.0456   -2.9774   18.2694 N   0  0  0  0  0  0  0  0  0  0  0  0
   10.4788   -3.0457   21.8593 C   0  0  0  0  0  0  0  0  0  0  0  0
    8.8693   -5.8099   18.4657 N   0  0  0  0  0  0  0  0  0  0  0  0
    8.9892   -0.7926   25.4573 C   0  0  0  0  0  0  0  0  0  0  0  0
   10.5677   -3.4462   20.5323 C   0  0  0  0  0  0  0  0  0  0  0  0
  1  8  1  0
  1 12  4  0
  1 14  4  0
  2  3  4  0
  2 18  4  0
  3 20  4  0
  3 22  4  0
  4 11  4  0
  4 21  4  0
  5  9  4  0
  5 16  4  0
  6 15  4  0
  6 16  4  0
  7 22  4  0
  7 26  4  0
  8 10  4  0
  8 25  4  0
  9 15  4  0
  9 17  1  0
 10 21  4  0
 11 25  4  0
 12 23  4  0
 13 20  4  0
 13 26  4  0
 14 19  4  0
 17 18  4  0
 17 24  4  0
 19 23  4  0
 20 24  4  0
 23 26  1  0
M  END
$$$$

 Created by Python create_sdf_string function

 26 30  0  0  0  0  0  0  0  0999 V2000
   10.0084   -1.8019   23.4945 C   0  0  0  0  0  0  0  0  0  0  0  0
   10.0005   -4.2520   16.5631 C   0  0  0  0  0  0  0  0  0  0  0  0
   10.2759   -4.0036   17.8845 C   0  0  0  0  0  0  0  0  0  0  0  0
    8.5652    1.5478   25.3778 N   0  0  0  0  0  0  0  0  0  0  0  0
    6.8048   -7.5457   17.8752 C   0  0  0  0  0  0  0  0  0  0  0  0
    6.1721   -8.2186   15.9886 N   0  0  0  0  0  0  0  0  0  0  0  0
   11.1764   -2.6600   19.5604 C   0  0  0  0  0  0  0  0  0  0  0  0
    9.5491   -0.6380   24.1912 C   0  0  0  0  0  0  0  0  0  0  0  0
    7.5337   -6.9256   16.9519 C   0  0  0  0  0  0  0  0  0  0  0  0
    9.6782    0.5671   23.5143 C   0  0  0  0  0  0  0  0  0  0  0  0
    8.4532    0.3482   26.0821 C   0  0  0  0  0  0  0  0  0  0  0  0
   10.4239   -1.7677   22.2230 N   0  0  0  0  0  0  0  0  0  0  0  0
    9.9468   -4.5953   20.1709 C   0  0  0  0  0  0  0  0  0  0  0  0
   10.0366   -3.0590   23.9864 N   0  0  0  0  0  0  0  0  0  0  0  0
    7.1191   -7.3636   15.7739 C   0  0  0  0  0  0  0  0  0  0  0  0
    5.9612   -8.3203   17.2732 N   0  0  0  0  0  0  0  0  0  0  0  0
    8.5296   -5.9814   17.1841 C   0  0  0  0  0  0  0  0  0  0  0  0
    9.1527   -5.2118   16.2116 C   0  0  0  0  0  0  0  0  0  0  0  0
   10.3364   -3.8368   22.9255 O   0  0  0  0  0  0  0  0  0  0  0  0
    9.6947   -4.8407   18.8534 C   0  0  0  0  0  0  0  0  0  0  0  0
    9.1596    1.7042   24.1381 C   0  0  0  0  0  0  0  0  0  0  0  0
   11.0456   -2.9774   18.2694 N   0  0  0  0  0  0  0  0  0  0  0  0
   10.4788   -3.0457   21.8593 C   0  0  0  0  0  0  0  0  0  0  0  0
    8.8693   -5.8099   18.4657 N   0  0  0  0  0  0  0  0  0  0  0  0
    8.9892   -0.7926   25.4573 C   0  0  0  0  0  0  0  0  0  0  0  0
   10.5677   -3.4462   20.5323 C   0  0  0  0  0  0  0  0  0  0  0  0
  1  8  1  0
  1 12  4  0
  1 14  4  0
  2  3  4  0
  2 18  4  0
  3 20  4  0
  3 22  4  0
  4 11  4  0
  4 21  4  0
  5  9  4  0
  5 16  4  0
  6 15  4  0
  6 16  4  0
  7 22  4  0
  7 26  4  0
  8 10  4  0
  8 25  4  0
  9 15  4  0
  9 17  1  0
 10 21  4  0
 11 25  4  0
 12 23  4  0
 13 20  4  0
 13 26  4  0
 14 19  4  0
 17 18  4  0
 17 24  4  0
 19 23  4  0
 20 24  4  0
 23 26  1  0
M  END
$$$$

 Created by Python create_sdf_string function

 26 30  0  0  0  0  0  0  0  0999 V2000
   10.0084   -1.8019   23.4945 C   0  0  0  0  0  0  0  0  0  0  0  0
   10.0005   -4.2520   16.5631 C   0  0  0  0  0  0  0  0  0  0  0  0
   10.2759   -4.0036   17.8845 C   0  0  0  0  0  0  0  0  0  0  0  0
    8.5652    1.5478   25.3778 N   0  0  0  0  0  0  0  0  0  0  0  0
    6.8048   -7.5457   17.8752 C   0  0  0  0  0  0  0  0  0  0  0  0
    6.1721   -8.2186   15.9886 N   0  0  0  0  0  0  0  0  0  0  0  0
   11.1764   -2.6600   19.5604 C   0  0  0  0  0  0  0  0  0  0  0  0
    9.5491   -0.6380   24.1912 C   0  0  0  0  0  0  0  0  0  0  0  0
    7.5337   -6.9256   16.9519 C   0  0  0  0  0  0  0  0  0  0  0  0
    9.6782    0.5671   23.5143 C   0  0  0  0  0  0  0  0  0  0  0  0
    8.4532    0.3482   26.0821 C   0  0  0  0  0  0  0  0  0  0  0  0
   10.4239   -1.7677   22.2230 N   0  0  0  0  0  0  0  0  0  0  0  0
    9.9468   -4.5953   20.1709 C   0  0  0  0  0  0  0  0  0  0  0  0
   10.0366   -3.0590   23.9864 N   0  0  0  0  0  0  0  0  0  0  0  0
    7.1191   -7.3636   15.7739 C   0  0  0  0  0  0  0  0  0  0  0  0
    5.9612   -8.3203   17.2732 N   0  0  0  0  0  0  0  0  0  0  0  0
    8.5296   -5.9814   17.1841 C   0  0  0  0  0  0  0  0  0  0  0  0
    9.1527   -5.2118   16.2116 C   0  0  0  0  0  0  0  0  0  0  0  0
   10.3364   -3.8368   22.9255 O   0  0  0  0  0  0  0  0  0  0  0  0
    9.6947   -4.8407   18.8534 C   0  0  0  0  0  0  0  0  0  0  0  0
    9.1596    1.7042   24.1381 C   0  0  0  0  0  0  0  0  0  0  0  0
   11.0456   -2.9774   18.2694 N   0  0  0  0  0  0  0  0  0  0  0  0
   10.4788   -3.0457   21.8593 C   0  0  0  0  0  0  0  0  0  0  0  0
    8.8693   -5.8099   18.4657 N   0  0  0  0  0  0  0  0  0  0  0  0
    8.9892   -0.7926   25.4573 C   0  0  0  0  0  0  0  0  0  0  0  0
   10.5677   -3.4462   20.5323 C   0  0  0  0  0  0  0  0  0  0  0  0
  1  8  1  0
  1 12  4  0
  1 14  4  0
  2  3  4  0
  2 18  4  0
  3 20  4  0
  3 22  4  0
  4 11  4  0
  4 21  4  0
  5  9  4  0
  5 16  4  0
  6 15  4  0
  6 16  4  0
  7 22  4  0
  7 26  4  0
  8 10  4  0
  8 25  4  0
  9 15  4  0
  9 17  1  0
 10 21  4  0
 11 25  4  0
 12 23  4  0
 13 20  4  0
 13 26  4  0
 14 19  4  0
 17 18  4  0
 17 24  4  0
 19 23  4  0
 20 24  4  0
 23 26  1  0
M  END
$$$$

 Created by Python create_sdf_string function

 26 30  0  0  0  0  0  0  0  0999 V2000
   10.0084   -1.8019   23.4945 C   0  0  0  0  0  0  0  0  0  0  0  0
   10.0005   -4.2520   16.5631 C   0  0  0  0  0  0  0  0  0  0  0  0
   10.2759   -4.0036   17.8845 C   0  0  0  0  0  0  0  0  0  0  0  0
    8.5652    1.5478   25.3778 N   0  0  0  0  0  0  0  0  0  0  0  0
    6.8048   -7.5457   17.8752 C   0  0  0  0  0  0  0  0  0  0  0  0
    6.1721   -8.2186   15.9886 N   0  0  0  0  0  0  0  0  0  0  0  0
   11.1764   -2.6600   19.5604 C   0  0  0  0  0  0  0  0  0  0  0  0
    9.5491   -0.6380   24.1912 C   0  0  0  0  0  0  0  0  0  0  0  0
    7.5337   -6.9256   16.9519 C   0  0  0  0  0  0  0  0  0  0  0  0
    9.6782    0.5671   23.5143 C   0  0  0  0  0  0  0  0  0  0  0  0
    8.4532    0.3482   26.0821 C   0  0  0  0  0  0  0  0  0  0  0  0
   10.4239   -1.7677   22.2230 N   0  0  0  0  0  0  0  0  0  0  0  0
    9.9468   -4.5953   20.1709 C   0  0  0  0  0  0  0  0  0  0  0  0
   10.0366   -3.0590   23.9864 N   0  0  0  0  0  0  0  0  0  0  0  0
    7.1191   -7.3636   15.7739 C   0  0  0  0  0  0  0  0  0  0  0  0
    5.9612   -8.3203   17.2732 N   0  0  0  0  0  0  0  0  0  0  0  0
    8.5296   -5.9814   17.1841 C   0  0  0  0  0  0  0  0  0  0  0  0
    9.1527   -5.2118   16.2116 C   0  0  0  0  0  0  0  0  0  0  0  0
   10.3364   -3.8368   22.9255 O   0  0  0  0  0  0  0  0  0  0  0  0
    9.6947   -4.8407   18.8534 C   0  0  0  0  0  0  0  0  0  0  0  0
    9.1596    1.7042   24.1381 C   0  0  0  0  0  0  0  0  0  0  0  0
   11.0456   -2.9774   18.2694 N   0  0  0  0  0  0  0  0  0  0  0  0
   10.4788   -3.0457   21.8593 C   0  0  0  0  0  0  0  0  0  0  0  0
    8.8693   -5.8099   18.4657 N   0  0  0  0  0  0  0  0  0  0  0  0
    8.9892   -0.7926   25.4573 C   0  0  0  0  0  0  0  0  0  0  0  0
   10.5677   -3.4462   20.5323 C   0  0  0  0  0  0  0  0  0  0  0  0
  1  8  1  0
  1 12  4  0
  1 14  4  0
  2  3  4  0
  2 18  4  0
  3 20  4  0
  3 22  4  0
  4 11  4  0
  4 21  4  0
  5  9  4  0
  5 16  4  0
  6 15  4  0
  6 16  4  0
  7 22  4  0
  7 26  4  0
  8 10  4  0
  8 25  4  0
  9 15  4  0
  9 17  1  0
 10 21  4  0
 11 25  4  0
 12 23  4  0
 13 20  4  0
 13 26  4  0
 14 19  4  0
 17 18  4  0
 17 24  4  0
 19 23  4  0
 20 24  4  0
 23 26  1  0
M  END
$$$$

 Created by Python create_sdf_string function

 26 30  0  0  0  0  0  0  0  0999 V2000
   10.0084   -1.8019   23.4945 C   0  0  0  0  0  0  0  0  0  0  0  0
   10.0005   -4.2520   16.5631 C   0  0  0  0  0  0  0  0  0  0  0  0
   10.2759   -4.0036   17.8845 C   0  0  0  0  0  0  0  0  0  0  0  0
    8.5652    1.5478   25.3778 N   0  0  0  0  0  0  0  0  0  0  0  0
    6.8048   -7.5457   17.8752 C   0  0  0  0  0  0  0  0  0  0  0  0
    6.1721   -8.2186   15.9886 N   0  0  0  0  0  0  0  0  0  0  0  0
   11.1764   -2.6600   19.5604 C   0  0  0  0  0  0  0  0  0  0  0  0
    9.5491   -0.6380   24.1912 C   0  0  0  0  0  0  0  0  0  0  0  0
    7.5337   -6.9256   16.9519 C   0  0  0  0  0  0  0  0  0  0  0  0
    9.6782    0.5671   23.5143 C   0  0  0  0  0  0  0  0  0  0  0  0
    8.4532    0.3482   26.0821 C   0  0  0  0  0  0  0  0  0  0  0  0
   10.4239   -1.7677   22.2230 N   0  0  0  0  0  0  0  0  0  0  0  0
    9.9468   -4.5953   20.1709 C   0  0  0  0  0  0  0  0  0  0  0  0
   10.0366   -3.0590   23.9864 N   0  0  0  0  0  0  0  0  0  0  0  0
    7.1191   -7.3636   15.7739 C   0  0  0  0  0  0  0  0  0  0  0  0
    5.9612   -8.3203   17.2732 N   0  0  0  0  0  0  0  0  0  0  0  0
    8.5296   -5.9814   17.1841 C   0  0  0  0  0  0  0  0  0  0  0  0
    9.1527   -5.2118   16.2116 C   0  0  0  0  0  0  0  0  0  0  0  0
   10.3364   -3.8368   22.9255 O   0  0  0  0  0  0  0  0  0  0  0  0
    9.6947   -4.8407   18.8534 C   0  0  0  0  0  0  0  0  0  0  0  0
    9.1596    1.7042   24.1381 C   0  0  0  0  0  0  0  0  0  0  0  0
   11.0456   -2.9774   18.2694 N   0  0  0  0  0  0  0  0  0  0  0  0
   10.4788   -3.0457   21.8593 C   0  0  0  0  0  0  0  0  0  0  0  0
    8.8693   -5.8099   18.4657 N   0  0  0  0  0  0  0  0  0  0  0  0
    8.9892   -0.7926   25.4573 C   0  0  0  0  0  0  0  0  0  0  0  0
   10.5677   -3.4462   20.5323 C   0  0  0  0  0  0  0  0  0  0  0  0
  1  8  1  0
  1 12  4  0
  1 14  4  0
  2  3  4  0
  2 18  4  0
  3 20  4  0
  3 22  4  0
  4 11  4  0
  4 21  4  0
  5  9  4  0
  5 16  4  0
  6 15  4  0
  6 16  4  0
  7 22  4  0
  7 26  4  0
  8 10  4  0
  8 25  4  0
  9 15  4  0
  9 17  1  0
 10 21  4  0
 11 25  4  0
 12 23  4  0
 13 20  4  0
 13 26  4  0
 14 19  4  0
 17 18  4  0
 17 24  4  0
 19 23  4  0
 20 24  4  0
 23 26  1  0
M  END
$$$$

 Created by Python create_sdf_string function

 26 30  0  0  0  0  0  0  0  0999 V2000
   10.0084   -1.8019   23.4945 C   0  0  0  0  0  0  0  0  0  0  0  0
   10.0005   -4.2520   16.5631 C   0  0  0  0  0  0  0  0  0  0  0  0
   10.2759   -4.0036   17.8845 C   0  0  0  0  0  0  0  0  0  0  0  0
    8.5652    1.5478   25.3778 N   0  0  0  0  0  0  0  0  0  0  0  0
    6.8048   -7.5457   17.8752 C   0  0  0  0  0  0  0  0  0  0  0  0
    6.1721   -8.2186   15.9886 N   0  0  0  0  0  0  0  0  0  0  0  0
   11.1764   -2.6600   19.5604 C   0  0  0  0  0  0  0  0  0  0  0  0
    9.5491   -0.6380   24.1912 C   0  0  0  0  0  0  0  0  0  0  0  0
    7.5337   -6.9256   16.9519 C   0  0  0  0  0  0  0  0  0  0  0  0
    9.6782    0.5671   23.5143 C   0  0  0  0  0  0  0  0  0  0  0  0
    8.4532    0.3482   26.0821 C   0  0  0  0  0  0  0  0  0  0  0  0
   10.4239   -1.7677   22.2230 N   0  0  0  0  0  0  0  0  0  0  0  0
    9.9468   -4.5953   20.1709 C   0  0  0  0  0  0  0  0  0  0  0  0
   10.0366   -3.0590   23.9864 N   0  0  0  0  0  0  0  0  0  0  0  0
    7.1191   -7.3636   15.7739 C   0  0  0  0  0  0  0  0  0  0  0  0
    5.9612   -8.3203   17.2732 N   0  0  0  0  0  0  0  0  0  0  0  0
    8.5296   -5.9814   17.1841 C   0  0  0  0  0  0  0  0  0  0  0  0
    9.1527   -5.2118   16.2116 C   0  0  0  0  0  0  0  0  0  0  0  0
   10.3364   -3.8368   22.9255 O   0  0  0  0  0  0  0  0  0  0  0  0
    9.6947   -4.8407   18.8534 C   0  0  0  0  0  0  0  0  0  0  0  0
    9.1596    1.7042   24.1381 C   0  0  0  0  0  0  0  0  0  0  0  0
   11.0456   -2.9774   18.2694 N   0  0  0  0  0  0  0  0  0  0  0  0
   10.4788   -3.0457   21.8593 C   0  0  0  0  0  0  0  0  0  0  0  0
    8.8693   -5.8099   18.4657 N   0  0  0  0  0  0  0  0  0  0  0  0
    8.9892   -0.7926   25.4573 C   0  0  0  0  0  0  0  0  0  0  0  0
   10.5677   -3.4462   20.5323 C   0  0  0  0  0  0  0  0  0  0  0  0
  1  8  1  0
  1 12  4  0
  1 14  4  0
  2  3  4  0
  2 18  4  0
  3 20  4  0
  3 22  4  0
  4 11  4  0
  4 21  4  0
  5  9  4  0
  5 16  4  0
  6 15  4  0
  6 16  4  0
  7 22  4  0
  7 26  4  0
  8 10  4  0
  8 25  4  0
  9 15  4  0
  9 17  1  0
 10 21  4  0
 11 25  4  0
 12 23  4  0
 13 20  4  0
 13 26  4  0
 14 19  4  0
 17 18  4  0
 17 24  4  0
 19 23  4  0
 20 24  4  0
 23 26  1  0
M  END
$$$$

 Created by Python create_sdf_string function

 26 30  0  0  0  0  0  0  0  0999 V2000
   10.0084   -1.8019   23.4945 C   0  0  0  0  0  0  0  0  0  0  0  0
   10.0005   -4.2520   16.5631 C   0  0  0  0  0  0  0  0  0  0  0  0
   10.2759   -4.0036   17.8845 C   0  0  0  0  0  0  0  0  0  0  0  0
    8.5652    1.5478   25.3778 N   0  0  0  0  0  0  0  0  0  0  0  0
    6.8048   -7.5457   17.8752 C   0  0  0  0  0  0  0  0  0  0  0  0
    6.1721   -8.2186   15.9886 N   0  0  0  0  0  0  0  0  0  0  0  0
   11.1764   -2.6600   19.5604 C   0  0  0  0  0  0  0  0  0  0  0  0
    9.5491   -0.6380   24.1912 C   0  0  0  0  0  0  0  0  0  0  0  0
    7.5337   -6.9256   16.9519 C   0  0  0  0  0  0  0  0  0  0  0  0
    9.6782    0.5671   23.5143 C   0  0  0  0  0  0  0  0  0  0  0  0
    8.4532    0.3482   26.0821 C   0  0  0  0  0  0  0  0  0  0  0  0
   10.4239   -1.7677   22.2230 N   0  0  0  0  0  0  0  0  0  0  0  0
    9.9468   -4.5953   20.1709 C   0  0  0  0  0  0  0  0  0  0  0  0
   10.0366   -3.0590   23.9864 N   0  0  0  0  0  0  0  0  0  0  0  0
    7.1191   -7.3636   15.7739 C   0  0  0  0  0  0  0  0  0  0  0  0
    5.9612   -8.3203   17.2732 N   0  0  0  0  0  0  0  0  0  0  0  0
    8.5296   -5.9814   17.1841 C   0  0  0  0  0  0  0  0  0  0  0  0
    9.1527   -5.2118   16.2116 C   0  0  0  0  0  0  0  0  0  0  0  0
   10.3364   -3.8368   22.9255 O   0  0  0  0  0  0  0  0  0  0  0  0
    9.6947   -4.8407   18.8534 C   0  0  0  0  0  0  0  0  0  0  0  0
    9.1596    1.7042   24.1381 C   0  0  0  0  0  0  0  0  0  0  0  0
   11.0456   -2.9774   18.2694 N   0  0  0  0  0  0  0  0  0  0  0  0
   10.4788   -3.0457   21.8593 C   0  0  0  0  0  0  0  0  0  0  0  0
    8.8693   -5.8099   18.4657 N   0  0  0  0  0  0  0  0  0  0  0  0
    8.9892   -0.7926   25.4573 C   0  0  0  0  0  0  0  0  0  0  0  0
   10.5677   -3.4462   20.5323 C   0  0  0  0  0  0  0  0  0  0  0  0
  1  8  1  0
  1 12  4  0
  1 14  4  0
  2  3  4  0
  2 18  4  0
  3 20  4  0
  3 22  4  0
  4 11  4  0
  4 21  4  0
  5  9  4  0
  5 16  4  0
  6 15  4  0
  6 16  4  0
  7 22  4  0
  7 26  4  0
  8 10  4  0
  8 25  4  0
  9 15  4  0
  9 17  1  0
 10 21  4  0
 11 25  4  0
 12 23  4  0
 13 20  4  0
 13 26  4  0
 14 19  4  0
 17 18  4  0
 17 24  4  0
 19 23  4  0
 20 24  4  0
 23 26  1  0
M  END
$$$$

 Created by Python create_sdf_string function

 26 30  0  0  0  0  0  0  0  0999 V2000
   10.0084   -1.8019   23.4945 C   0  0  0  0  0  0  0  0  0  0  0  0
   10.0005   -4.2520   16.5631 C   0  0  0  0  0  0  0  0  0  0  0  0
   10.2759   -4.0036   17.8845 C   0  0  0  0  0  0  0  0  0  0  0  0
    8.5652    1.5478   25.3778 N   0  0  0  0  0  0  0  0  0  0  0  0
    6.8048   -7.5457   17.8752 C   0  0  0  0  0  0  0  0  0  0  0  0
    6.1721   -8.2186   15.9886 N   0  0  0  0  0  0  0  0  0  0  0  0
   11.1764   -2.6600   19.5604 C   0  0  0  0  0  0  0  0  0  0  0  0
    9.5491   -0.6380   24.1912 C   0  0  0  0  0  0  0  0  0  0  0  0
    7.5337   -6.9256   16.9519 C   0  0  0  0  0  0  0  0  0  0  0  0
    9.6782    0.5671   23.5143 C   0  0  0  0  0  0  0  0  0  0  0  0
    8.4532    0.3482   26.0821 C   0  0  0  0  0  0  0  0  0  0  0  0
   10.4239   -1.7677   22.2230 N   0  0  0  0  0  0  0  0  0  0  0  0
    9.9468   -4.5953   20.1709 C   0  0  0  0  0  0  0  0  0  0  0  0
   10.0366   -3.0590   23.9864 N   0  0  0  0  0  0  0  0  0  0  0  0
    7.1191   -7.3636   15.7739 C   0  0  0  0  0  0  0  0  0  0  0  0
    5.9612   -8.3203   17.2732 N   0  0  0  0  0  0  0  0  0  0  0  0
    8.5296   -5.9814   17.1841 C   0  0  0  0  0  0  0  0  0  0  0  0
    9.1527   -5.2118   16.2116 C   0  0  0  0  0  0  0  0  0  0  0  0
   10.3364   -3.8368   22.9255 O   0  0  0  0  0  0  0  0  0  0  0  0
    9.6947   -4.8407   18.8534 C   0  0  0  0  0  0  0  0  0  0  0  0
    9.1596    1.7042   24.1381 C   0  0  0  0  0  0  0  0  0  0  0  0
   11.0456   -2.9774   18.2694 N   0  0  0  0  0  0  0  0  0  0  0  0
   10.4788   -3.0457   21.8593 C   0  0  0  0  0  0  0  0  0  0  0  0
    8.8693   -5.8099   18.4657 N   0  0  0  0  0  0  0  0  0  0  0  0
    8.9892   -0.7926   25.4573 C   0  0  0  0  0  0  0  0  0  0  0  0
   10.5677   -3.4462   20.5323 C   0  0  0  0  0  0  0  0  0  0  0  0
  1  8  1  0
  1 12  4  0
  1 14  4  0
  2  3  4  0
  2 18  4  0
  3 20  4  0
  3 22  4  0
  4 11  4  0
  4 21  4  0
  5  9  4  0
  5 16  4  0
  6 15  4  0
  6 16  4  0
  7 22  4  0
  7 26  4  0
  8 10  4  0
  8 25  4  0
  9 15  4  0
  9 17  1  0
 10 21  4  0
 11 25  4  0
 12 23  4  0
 13 20  4  0
 13 26  4  0
 14 19  4  0
 17 18  4  0
 17 24  4  0
 19 23  4  0
 20 24  4  0
 23 26  1  0
M  END
$$$$

 Created by Python create_sdf_string function

 26 30  0  0  0  0  0  0  0  0999 V2000
   10.0084   -1.8019   23.4945 C   0  0  0  0  0  0  0  0  0  0  0  0
   10.0005   -4.2520   16.5631 C   0  0  0  0  0  0  0  0  0  0  0  0
   10.2759   -4.0036   17.8845 C   0  0  0  0  0  0  0  0  0  0  0  0
    8.5652    1.5478   25.3778 N   0  0  0  0  0  0  0  0  0  0  0  0
    6.8048   -7.5457   17.8752 C   0  0  0  0  0  0  0  0  0  0  0  0
    6.1721   -8.2186   15.9886 N   0  0  0  0  0  0  0  0  0  0  0  0
   11.1764   -2.6600   19.5604 C   0  0  0  0  0  0  0  0  0  0  0  0
    9.5491   -0.6380   24.1912 C   0  0  0  0  0  0  0  0  0  0  0  0
    7.5337   -6.9256   16.9519 C   0  0  0  0  0  0  0  0  0  0  0  0
    9.6782    0.5671   23.5143 C   0  0  0  0  0  0  0  0  0  0  0  0
    8.4532    0.3482   26.0821 C   0  0  0  0  0  0  0  0  0  0  0  0
   10.4239   -1.7677   22.2230 N   0  0  0  0  0  0  0  0  0  0  0  0
    9.9468   -4.5953   20.1709 C   0  0  0  0  0  0  0  0  0  0  0  0
   10.0366   -3.0590   23.9864 N   0  0  0  0  0  0  0  0  0  0  0  0
    7.1191   -7.3636   15.7739 C   0  0  0  0  0  0  0  0  0  0  0  0
    5.9612   -8.3203   17.2732 N   0  0  0  0  0  0  0  0  0  0  0  0
    8.5296   -5.9814   17.1841 C   0  0  0  0  0  0  0  0  0  0  0  0
    9.1527   -5.2118   16.2116 C   0  0  0  0  0  0  0  0  0  0  0  0
   10.3364   -3.8368   22.9255 O   0  0  0  0  0  0  0  0  0  0  0  0
    9.6947   -4.8407   18.8534 C   0  0  0  0  0  0  0  0  0  0  0  0
    9.1596    1.7042   24.1381 C   0  0  0  0  0  0  0  0  0  0  0  0
   11.0456   -2.9774   18.2694 N   0  0  0  0  0  0  0  0  0  0  0  0
   10.4788   -3.0457   21.8593 C   0  0  0  0  0  0  0  0  0  0  0  0
    8.8693   -5.8099   18.4657 N   0  0  0  0  0  0  0  0  0  0  0  0
    8.9892   -0.7926   25.4573 C   0  0  0  0  0  0  0  0  0  0  0  0
   10.5677   -3.4462   20.5323 C   0  0  0  0  0  0  0  0  0  0  0  0
  1  8  1  0
  1 12  4  0
  1 14  4  0
  2  3  4  0
  2 18  4  0
  3 20  4  0
  3 22  4  0
  4 11  4  0
  4 21  4  0
  5  9  4  0
  5 16  4  0
  6 15  4  0
  6 16  4  0
  7 22  4  0
  7 26  4  0
  8 10  4  0
  8 25  4  0
  9 15  4  0
  9 17  1  0
 10 21  4  0
 11 25  4  0
 12 23  4  0
 13 20  4  0
 13 26  4  0
 14 19  4  0
 17 18  4  0
 17 24  4  0
 19 23  4  0
 20 24  4  0
 23 26  1  0
M  END
$$$$

 Created by Python create_sdf_string function

 26 30  0  0  0  0  0  0  0  0999 V2000
   10.0084   -1.8019   23.4945 C   0  0  0  0  0  0  0  0  0  0  0  0
   10.0005   -4.2520   16.5631 C   0  0  0  0  0  0  0  0  0  0  0  0
   10.2759   -4.0036   17.8845 C   0  0  0  0  0  0  0  0  0  0  0  0
    8.5652    1.5478   25.3778 N   0  0  0  0  0  0  0  0  0  0  0  0
    6.8048   -7.5457   17.8752 C   0  0  0  0  0  0  0  0  0  0  0  0
    6.1721   -8.2186   15.9886 N   0  0  0  0  0  0  0  0  0  0  0  0
   11.1764   -2.6600   19.5604 C   0  0  0  0  0  0  0  0  0  0  0  0
    9.5491   -0.6380   24.1912 C   0  0  0  0  0  0  0  0  0  0  0  0
    7.5337   -6.9256   16.9519 C   0  0  0  0  0  0  0  0  0  0  0  0
    9.6782    0.5671   23.5143 C   0  0  0  0  0  0  0  0  0  0  0  0
    8.4532    0.3482   26.0821 C   0  0  0  0  0  0  0  0  0  0  0  0
   10.4239   -1.7677   22.2230 N   0  0  0  0  0  0  0  0  0  0  0  0
    9.9468   -4.5953   20.1709 C   0  0  0  0  0  0  0  0  0  0  0  0
   10.0366   -3.0590   23.9864 N   0  0  0  0  0  0  0  0  0  0  0  0
    7.1191   -7.3636   15.7739 C   0  0  0  0  0  0  0  0  0  0  0  0
    5.9612   -8.3203   17.2732 N   0  0  0  0  0  0  0  0  0  0  0  0
    8.5296   -5.9814   17.1841 C   0  0  0  0  0  0  0  0  0  0  0  0
    9.1527   -5.2118   16.2116 C   0  0  0  0  0  0  0  0  0  0  0  0
   10.3364   -3.8368   22.9255 O   0  0  0  0  0  0  0  0  0  0  0  0
    9.6947   -4.8407   18.8534 C   0  0  0  0  0  0  0  0  0  0  0  0
    9.1596    1.7042   24.1381 C   0  0  0  0  0  0  0  0  0  0  0  0
   11.0456   -2.9774   18.2694 N   0  0  0  0  0  0  0  0  0  0  0  0
   10.4788   -3.0457   21.8593 C   0  0  0  0  0  0  0  0  0  0  0  0
    8.8693   -5.8099   18.4657 N   0  0  0  0  0  0  0  0  0  0  0  0
    8.9892   -0.7926   25.4573 C   0  0  0  0  0  0  0  0  0  0  0  0
   10.5677   -3.4462   20.5323 C   0  0  0  0  0  0  0  0  0  0  0  0
  1  8  1  0
  1 12  4  0
  1 14  4  0
  2  3  4  0
  2 18  4  0
  3 20  4  0
  3 22  4  0
  4 11  4  0
  4 21  4  0
  5  9  4  0
  5 16  4  0
  6 15  4  0
  6 16  4  0
  7 22  4  0
  7 26  4  0
  8 10  4  0
  8 25  4  0
  9 15  4  0
  9 17  1  0
 10 21  4  0
 11 25  4  0
 12 23  4  0
 13 20  4  0
 13 26  4  0
 14 19  4  0
 17 18  4  0
 17 24  4  0
 19 23  4  0
 20 24  4  0
 23 26  1  0
M  END
$$$$

 Created by Python create_sdf_string function

 26 30  0  0  0  0  0  0  0  0999 V2000
   10.0084   -1.8019   23.4945 C   0  0  0  0  0  0  0  0  0  0  0  0
   10.0005   -4.2520   16.5631 C   0  0  0  0  0  0  0  0  0  0  0  0
   10.2759   -4.0036   17.8845 C   0  0  0  0  0  0  0  0  0  0  0  0
    8.5652    1.5478   25.3778 N   0  0  0  0  0  0  0  0  0  0  0  0
    6.8048   -7.5457   17.8752 C   0  0  0  0  0  0  0  0  0  0  0  0
    6.1721   -8.2186   15.9886 N   0  0  0  0  0  0  0  0  0  0  0  0
   11.1764   -2.6600   19.5604 C   0  0  0  0  0  0  0  0  0  0  0  0
    9.5491   -0.6380   24.1912 C   0  0  0  0  0  0  0  0  0  0  0  0
    7.5337   -6.9256   16.9519 C   0  0  0  0  0  0  0  0  0  0  0  0
    9.6782    0.5671   23.5143 C   0  0  0  0  0  0  0  0  0  0  0  0
    8.4532    0.3482   26.0821 C   0  0  0  0  0  0  0  0  0  0  0  0
   10.4239   -1.7677   22.2230 N   0  0  0  0  0  0  0  0  0  0  0  0
    9.9468   -4.5953   20.1709 C   0  0  0  0  0  0  0  0  0  0  0  0
   10.0366   -3.0590   23.9864 N   0  0  0  0  0  0  0  0  0  0  0  0
    7.1191   -7.3636   15.7739 C   0  0  0  0  0  0  0  0  0  0  0  0
    5.9612   -8.3203   17.2732 N   0  0  0  0  0  0  0  0  0  0  0  0
    8.5296   -5.9814   17.1841 C   0  0  0  0  0  0  0  0  0  0  0  0
    9.1527   -5.2118   16.2116 C   0  0  0  0  0  0  0  0  0  0  0  0
   10.3364   -3.8368   22.9255 O   0  0  0  0  0  0  0  0  0  0  0  0
    9.6947   -4.8407   18.8534 C   0  0  0  0  0  0  0  0  0  0  0  0
    9.1596    1.7042   24.1381 C   0  0  0  0  0  0  0  0  0  0  0  0
   11.0456   -2.9774   18.2694 N   0  0  0  0  0  0  0  0  0  0  0  0
   10.4788   -3.0457   21.8593 C   0  0  0  0  0  0  0  0  0  0  0  0
    8.8693   -5.8099   18.4657 N   0  0  0  0  0  0  0  0  0  0  0  0
    8.9892   -0.7926   25.4573 C   0  0  0  0  0  0  0  0  0  0  0  0
   10.5677   -3.4462   20.5323 C   0  0  0  0  0  0  0  0  0  0  0  0
  1  8  1  0
  1 12  4  0
  1 14  4  0
  2  3  4  0
  2 18  4  0
  3 20  4  0
  3 22  4  0
  4 11  4  0
  4 21  4  0
  5  9  4  0
  5 16  4  0
  6 15  4  0
  6 16  4  0
  7 22  4  0
  7 26  4  0
  8 10  4  0
  8 25  4  0
  9 15  4  0
  9 17  1  0
 10 21  4  0
 11 25  4  0
 12 23  4  0
 13 20  4  0
 13 26  4  0
 14 19  4  0
 17 18  4  0
 17 24  4  0
 19 23  4  0
 20 24  4  0
 23 26  1  0
M  END
$$$$

 Created by Python create_sdf_string function

 26 30  0  0  0  0  0  0  0  0999 V2000
   10.0084   -1.8019   23.4945 C   0  0  0  0  0  0  0  0  0  0  0  0
   10.0005   -4.2520   16.5631 C   0  0  0  0  0  0  0  0  0  0  0  0
   10.2759   -4.0036   17.8845 C   0  0  0  0  0  0  0  0  0  0  0  0
    8.5652    1.5478   25.3778 N   0  0  0  0  0  0  0  0  0  0  0  0
    6.8048   -7.5457   17.8752 C   0  0  0  0  0  0  0  0  0  0  0  0
    6.1721   -8.2186   15.9886 N   0  0  0  0  0  0  0  0  0  0  0  0
   11.1764   -2.6600   19.5604 C   0  0  0  0  0  0  0  0  0  0  0  0
    9.5491   -0.6380   24.1912 C   0  0  0  0  0  0  0  0  0  0  0  0
    7.5337   -6.9256   16.9519 C   0  0  0  0  0  0  0  0  0  0  0  0
    9.6782    0.5671   23.5143 C   0  0  0  0  0  0  0  0  0  0  0  0
    8.4532    0.3482   26.0821 C   0  0  0  0  0  0  0  0  0  0  0  0
   10.4239   -1.7677   22.2230 N   0  0  0  0  0  0  0  0  0  0  0  0
    9.9468   -4.5953   20.1709 C   0  0  0  0  0  0  0  0  0  0  0  0
   10.0366   -3.0590   23.9864 N   0  0  0  0  0  0  0  0  0  0  0  0
    7.1191   -7.3636   15.7739 C   0  0  0  0  0  0  0  0  0  0  0  0
    5.9612   -8.3203   17.2732 N   0  0  0  0  0  0  0  0  0  0  0  0
    8.5296   -5.9814   17.1841 C   0  0  0  0  0  0  0  0  0  0  0  0
    9.1527   -5.2118   16.2116 C   0  0  0  0  0  0  0  0  0  0  0  0
   10.3364   -3.8368   22.9255 O   0  0  0  0  0  0  0  0  0  0  0  0
    9.6947   -4.8407   18.8534 C   0  0  0  0  0  0  0  0  0  0  0  0
    9.1596    1.7042   24.1381 C   0  0  0  0  0  0  0  0  0  0  0  0
   11.0456   -2.9774   18.2694 N   0  0  0  0  0  0  0  0  0  0  0  0
   10.4788   -3.0457   21.8593 C   0  0  0  0  0  0  0  0  0  0  0  0
    8.8693   -5.8099   18.4657 N   0  0  0  0  0  0  0  0  0  0  0  0
    8.9892   -0.7926   25.4573 C   0  0  0  0  0  0  0  0  0  0  0  0
   10.5677   -3.4462   20.5323 C   0  0  0  0  0  0  0  0  0  0  0  0
  1  8  1  0
  1 12  4  0
  1 14  4  0
  2  3  4  0
  2 18  4  0
  3 20  4  0
  3 22  4  0
  4 11  4  0
  4 21  4  0
  5  9  4  0
  5 16  4  0
  6 15  4  0
  6 16  4  0
  7 22  4  0
  7 26  4  0
  8 10  4  0
  8 25  4  0
  9 15  4  0
  9 17  1  0
 10 21  4  0
 11 25  4  0
 12 23  4  0
 13 20  4  0
 13 26  4  0
 14 19  4  0
 17 18  4  0
 17 24  4  0
 19 23  4  0
 20 24  4  0
 23 26  1  0
M  END
$$$$

 Created by Python create_sdf_string function

 26 30  0  0  0  0  0  0  0  0999 V2000
   10.0084   -1.8019   23.4945 C   0  0  0  0  0  0  0  0  0  0  0  0
   10.0005   -4.2520   16.5631 C   0  0  0  0  0  0  0  0  0  0  0  0
   10.2759   -4.0036   17.8845 C   0  0  0  0  0  0  0  0  0  0  0  0
    8.5652    1.5478   25.3778 N   0  0  0  0  0  0  0  0  0  0  0  0
    6.8048   -7.5457   17.8752 C   0  0  0  0  0  0  0  0  0  0  0  0
    6.1721   -8.2186   15.9886 N   0  0  0  0  0  0  0  0  0  0  0  0
   11.1764   -2.6600   19.5604 C   0  0  0  0  0  0  0  0  0  0  0  0
    9.5491   -0.6380   24.1912 C   0  0  0  0  0  0  0  0  0  0  0  0
    7.5337   -6.9256   16.9519 C   0  0  0  0  0  0  0  0  0  0  0  0
    9.6782    0.5671   23.5143 C   0  0  0  0  0  0  0  0  0  0  0  0
    8.4532    0.3482   26.0821 C   0  0  0  0  0  0  0  0  0  0  0  0
   10.4239   -1.7677   22.2230 N   0  0  0  0  0  0  0  0  0  0  0  0
    9.9468   -4.5953   20.1709 C   0  0  0  0  0  0  0  0  0  0  0  0
   10.0366   -3.0590   23.9864 N   0  0  0  0  0  0  0  0  0  0  0  0
    7.1191   -7.3636   15.7739 C   0  0  0  0  0  0  0  0  0  0  0  0
    5.9612   -8.3203   17.2732 N   0  0  0  0  0  0  0  0  0  0  0  0
    8.5296   -5.9814   17.1841 C   0  0  0  0  0  0  0  0  0  0  0  0
    9.1527   -5.2118   16.2116 C   0  0  0  0  0  0  0  0  0  0  0  0
   10.3364   -3.8368   22.9255 O   0  0  0  0  0  0  0  0  0  0  0  0
    9.6947   -4.8407   18.8534 C   0  0  0  0  0  0  0  0  0  0  0  0
    9.1596    1.7042   24.1381 C   0  0  0  0  0  0  0  0  0  0  0  0
   11.0456   -2.9774   18.2694 N   0  0  0  0  0  0  0  0  0  0  0  0
   10.4788   -3.0457   21.8593 C   0  0  0  0  0  0  0  0  0  0  0  0
    8.8693   -5.8099   18.4657 N   0  0  0  0  0  0  0  0  0  0  0  0
    8.9892   -0.7926   25.4573 C   0  0  0  0  0  0  0  0  0  0  0  0
   10.5677   -3.4462   20.5323 C   0  0  0  0  0  0  0  0  0  0  0  0
  1  8  1  0
  1 12  4  0
  1 14  4  0
  2  3  4  0
  2 18  4  0
  3 20  4  0
  3 22  4  0
  4 11  4  0
  4 21  4  0
  5  9  4  0
  5 16  4  0
  6 15  4  0
  6 16  4  0
  7 22  4  0
  7 26  4  0
  8 10  4  0
  8 25  4  0
  9 15  4  0
  9 17  1  0
 10 21  4  0
 11 25  4  0
 12 23  4  0
 13 20  4  0
 13 26  4  0
 14 19  4  0
 17 18  4  0
 17 24  4  0
 19 23  4  0
 20 24  4  0
 23 26  1  0
M  END
$$$$

 Created by Python create_sdf_string function

 26 30  0  0  0  0  0  0  0  0999 V2000
   10.0084   -1.8019   23.4945 C   0  0  0  0  0  0  0  0  0  0  0  0
   10.0005   -4.2520   16.5631 C   0  0  0  0  0  0  0  0  0  0  0  0
   10.2759   -4.0036   17.8845 C   0  0  0  0  0  0  0  0  0  0  0  0
    8.5652    1.5478   25.3778 N   0  0  0  0  0  0  0  0  0  0  0  0
    6.8048   -7.5457   17.8752 C   0  0  0  0  0  0  0  0  0  0  0  0
    6.1721   -8.2186   15.9886 N   0  0  0  0  0  0  0  0  0  0  0  0
   11.1764   -2.6600   19.5604 C   0  0  0  0  0  0  0  0  0  0  0  0
    9.5491   -0.6380   24.1912 C   0  0  0  0  0  0  0  0  0  0  0  0
    7.5337   -6.9256   16.9519 C   0  0  0  0  0  0  0  0  0  0  0  0
    9.6782    0.5671   23.5143 C   0  0  0  0  0  0  0  0  0  0  0  0
    8.4532    0.3482   26.0821 C   0  0  0  0  0  0  0  0  0  0  0  0
   10.4239   -1.7677   22.2230 N   0  0  0  0  0  0  0  0  0  0  0  0
    9.9468   -4.5953   20.1709 C   0  0  0  0  0  0  0  0  0  0  0  0
   10.0366   -3.0590   23.9864 N   0  0  0  0  0  0  0  0  0  0  0  0
    7.1191   -7.3636   15.7739 C   0  0  0  0  0  0  0  0  0  0  0  0
    5.9612   -8.3203   17.2732 N   0  0  0  0  0  0  0  0  0  0  0  0
    8.5296   -5.9814   17.1841 C   0  0  0  0  0  0  0  0  0  0  0  0
    9.1527   -5.2118   16.2116 C   0  0  0  0  0  0  0  0  0  0  0  0
   10.3364   -3.8368   22.9255 O   0  0  0  0  0  0  0  0  0  0  0  0
    9.6947   -4.8407   18.8534 C   0  0  0  0  0  0  0  0  0  0  0  0
    9.1596    1.7042   24.1381 C   0  0  0  0  0  0  0  0  0  0  0  0
   11.0456   -2.9774   18.2694 N   0  0  0  0  0  0  0  0  0  0  0  0
   10.4788   -3.0457   21.8593 C   0  0  0  0  0  0  0  0  0  0  0  0
    8.8693   -5.8099   18.4657 N   0  0  0  0  0  0  0  0  0  0  0  0
    8.9892   -0.7926   25.4573 C   0  0  0  0  0  0  0  0  0  0  0  0
   10.5677   -3.4462   20.5323 C   0  0  0  0  0  0  0  0  0  0  0  0
  1  8  1  0
  1 12  4  0
  1 14  4  0
  2  3  4  0
  2 18  4  0
  3 20  4  0
  3 22  4  0
  4 11  4  0
  4 21  4  0
  5  9  4  0
  5 16  4  0
  6 15  4  0
  6 16  4  0
  7 22  4  0
  7 26  4  0
  8 10  4  0
  8 25  4  0
  9 15  4  0
  9 17  1  0
 10 21  4  0
 11 25  4  0
 12 23  4  0
 13 20  4  0
 13 26  4  0
 14 19  4  0
 17 18  4  0
 17 24  4  0
 19 23  4  0
 20 24  4  0
 23 26  1  0
M  END
$$$$

 Created by Python create_sdf_string function

 26 30  0  0  0  0  0  0  0  0999 V2000
   10.0084   -1.8019   23.4945 C   0  0  0  0  0  0  0  0  0  0  0  0
   10.0005   -4.2520   16.5631 C   0  0  0  0  0  0  0  0  0  0  0  0
   10.2759   -4.0036   17.8845 C   0  0  0  0  0  0  0  0  0  0  0  0
    8.5652    1.5478   25.3778 N   0  0  0  0  0  0  0  0  0  0  0  0
    6.8048   -7.5457   17.8752 C   0  0  0  0  0  0  0  0  0  0  0  0
    6.1721   -8.2186   15.9886 N   0  0  0  0  0  0  0  0  0  0  0  0
   11.1764   -2.6600   19.5604 C   0  0  0  0  0  0  0  0  0  0  0  0
    9.5491   -0.6380   24.1912 C   0  0  0  0  0  0  0  0  0  0  0  0
    7.5337   -6.9256   16.9519 C   0  0  0  0  0  0  0  0  0  0  0  0
    9.6782    0.5671   23.5143 C   0  0  0  0  0  0  0  0  0  0  0  0
    8.4532    0.3482   26.0821 C   0  0  0  0  0  0  0  0  0  0  0  0
   10.4239   -1.7677   22.2230 N   0  0  0  0  0  0  0  0  0  0  0  0
    9.9468   -4.5953   20.1709 C   0  0  0  0  0  0  0  0  0  0  0  0
   10.0366   -3.0590   23.9864 N   0  0  0  0  0  0  0  0  0  0  0  0
    7.1191   -7.3636   15.7739 C   0  0  0  0  0  0  0  0  0  0  0  0
    5.9612   -8.3203   17.2732 N   0  0  0  0  0  0  0  0  0  0  0  0
    8.5296   -5.9814   17.1841 C   0  0  0  0  0  0  0  0  0  0  0  0
    9.1527   -5.2118   16.2116 C   0  0  0  0  0  0  0  0  0  0  0  0
   10.3364   -3.8368   22.9255 O   0  0  0  0  0  0  0  0  0  0  0  0
    9.6947   -4.8407   18.8534 C   0  0  0  0  0  0  0  0  0  0  0  0
    9.1596    1.7042   24.1381 C   0  0  0  0  0  0  0  0  0  0  0  0
   11.0456   -2.9774   18.2694 N   0  0  0  0  0  0  0  0  0  0  0  0
   10.4788   -3.0457   21.8593 C   0  0  0  0  0  0  0  0  0  0  0  0
    8.8693   -5.8099   18.4657 N   0  0  0  0  0  0  0  0  0  0  0  0
    8.9892   -0.7926   25.4573 C   0  0  0  0  0  0  0  0  0  0  0  0
   10.5677   -3.4462   20.5323 C   0  0  0  0  0  0  0  0  0  0  0  0
  1  8  1  0
  1 12  4  0
  1 14  4  0
  2  3  4  0
  2 18  4  0
  3 20  4  0
  3 22  4  0
  4 11  4  0
  4 21  4  0
  5  9  4  0
  5 16  4  0
  6 15  4  0
  6 16  4  0
  7 22  4  0
  7 26  4  0
  8 10  4  0
  8 25  4  0
  9 15  4  0
  9 17  1  0
 10 21  4  0
 11 25  4  0
 12 23  4  0
 13 20  4  0
 13 26  4  0
 14 19  4  0
 17 18  4  0
 17 24  4  0
 19 23  4  0
 20 24  4  0
 23 26  1  0
M  END
$$$$

 Created by Python create_sdf_string function

 26 30  0  0  0  0  0  0  0  0999 V2000
   10.0084   -1.8019   23.4945 C   0  0  0  0  0  0  0  0  0  0  0  0
   10.0005   -4.2520   16.5631 C   0  0  0  0  0  0  0  0  0  0  0  0
   10.2759   -4.0036   17.8845 C   0  0  0  0  0  0  0  0  0  0  0  0
    8.5652    1.5478   25.3778 N   0  0  0  0  0  0  0  0  0  0  0  0
    6.8048   -7.5457   17.8752 C   0  0  0  0  0  0  0  0  0  0  0  0
    6.1721   -8.2186   15.9886 N   0  0  0  0  0  0  0  0  0  0  0  0
   11.1764   -2.6600   19.5604 C   0  0  0  0  0  0  0  0  0  0  0  0
    9.5491   -0.6380   24.1912 C   0  0  0  0  0  0  0  0  0  0  0  0
    7.5337   -6.9256   16.9519 C   0  0  0  0  0  0  0  0  0  0  0  0
    9.6782    0.5671   23.5143 C   0  0  0  0  0  0  0  0  0  0  0  0
    8.4532    0.3482   26.0821 C   0  0  0  0  0  0  0  0  0  0  0  0
   10.4239   -1.7677   22.2230 N   0  0  0  0  0  0  0  0  0  0  0  0
    9.9468   -4.5953   20.1709 C   0  0  0  0  0  0  0  0  0  0  0  0
   10.0366   -3.0590   23.9864 N   0  0  0  0  0  0  0  0  0  0  0  0
    7.1191   -7.3636   15.7739 C   0  0  0  0  0  0  0  0  0  0  0  0
    5.9612   -8.3203   17.2732 N   0  0  0  0  0  0  0  0  0  0  0  0
    8.5296   -5.9814   17.1841 C   0  0  0  0  0  0  0  0  0  0  0  0
    9.1527   -5.2118   16.2116 C   0  0  0  0  0  0  0  0  0  0  0  0
   10.3364   -3.8368   22.9255 O   0  0  0  0  0  0  0  0  0  0  0  0
    9.6947   -4.8407   18.8534 C   0  0  0  0  0  0  0  0  0  0  0  0
    9.1596    1.7042   24.1381 C   0  0  0  0  0  0  0  0  0  0  0  0
   11.0456   -2.9774   18.2694 N   0  0  0  0  0  0  0  0  0  0  0  0
   10.4788   -3.0457   21.8593 C   0  0  0  0  0  0  0  0  0  0  0  0
    8.8693   -5.8099   18.4657 N   0  0  0  0  0  0  0  0  0  0  0  0
    8.9892   -0.7926   25.4573 C   0  0  0  0  0  0  0  0  0  0  0  0
   10.5677   -3.4462   20.5323 C   0  0  0  0  0  0  0  0  0  0  0  0
  1  8  1  0
  1 12  4  0
  1 14  4  0
  2  3  4  0
  2 18  4  0
  3 20  4  0
  3 22  4  0
  4 11  4  0
  4 21  4  0
  5  9  4  0
  5 16  4  0
  6 15  4  0
  6 16  4  0
  7 22  4  0
  7 26  4  0
  8 10  4  0
  8 25  4  0
  9 15  4  0
  9 17  1  0
 10 21  4  0
 11 25  4  0
 12 23  4  0
 13 20  4  0
 13 26  4  0
 14 19  4  0
 17 18  4  0
 17 24  4  0
 19 23  4  0
 20 24  4  0
 23 26  1  0
M  END
$$$$

 Created by Python create_sdf_string function

 26 30  0  0  0  0  0  0  0  0999 V2000
   10.0084   -1.8019   23.4945 C   0  0  0  0  0  0  0  0  0  0  0  0
   10.0005   -4.2520   16.5631 C   0  0  0  0  0  0  0  0  0  0  0  0
   10.2759   -4.0036   17.8845 C   0  0  0  0  0  0  0  0  0  0  0  0
    8.5652    1.5478   25.3778 N   0  0  0  0  0  0  0  0  0  0  0  0
    6.8048   -7.5457   17.8752 C   0  0  0  0  0  0  0  0  0  0  0  0
    6.1721   -8.2186   15.9886 N   0  0  0  0  0  0  0  0  0  0  0  0
   11.1764   -2.6600   19.5604 C   0  0  0  0  0  0  0  0  0  0  0  0
    9.5491   -0.6380   24.1912 C   0  0  0  0  0  0  0  0  0  0  0  0
    7.5337   -6.9256   16.9519 C   0  0  0  0  0  0  0  0  0  0  0  0
    9.6782    0.5671   23.5143 C   0  0  0  0  0  0  0  0  0  0  0  0
    8.4532    0.3482   26.0821 C   0  0  0  0  0  0  0  0  0  0  0  0
   10.4239   -1.7677   22.2230 N   0  0  0  0  0  0  0  0  0  0  0  0
    9.9468   -4.5953   20.1709 C   0  0  0  0  0  0  0  0  0  0  0  0
   10.0366   -3.0590   23.9864 N   0  0  0  0  0  0  0  0  0  0  0  0
    7.1191   -7.3636   15.7739 C   0  0  0  0  0  0  0  0  0  0  0  0
    5.9612   -8.3203   17.2732 N   0  0  0  0  0  0  0  0  0  0  0  0
    8.5296   -5.9814   17.1841 C   0  0  0  0  0  0  0  0  0  0  0  0
    9.1527   -5.2118   16.2116 C   0  0  0  0  0  0  0  0  0  0  0  0
   10.3364   -3.8368   22.9255 O   0  0  0  0  0  0  0  0  0  0  0  0
    9.6947   -4.8407   18.8534 C   0  0  0  0  0  0  0  0  0  0  0  0
    9.1596    1.7042   24.1381 C   0  0  0  0  0  0  0  0  0  0  0  0
   11.0456   -2.9774   18.2694 N   0  0  0  0  0  0  0  0  0  0  0  0
   10.4788   -3.0457   21.8593 C   0  0  0  0  0  0  0  0  0  0  0  0
    8.8693   -5.8099   18.4657 N   0  0  0  0  0  0  0  0  0  0  0  0
    8.9892   -0.7926   25.4573 C   0  0  0  0  0  0  0  0  0  0  0  0
   10.5677   -3.4462   20.5323 C   0  0  0  0  0  0  0  0  0  0  0  0
  1  8  1  0
  1 12  4  0
  1 14  4  0
  2  3  4  0
  2 18  4  0
  3 20  4  0
  3 22  4  0
  4 11  4  0
  4 21  4  0
  5  9  4  0
  5 16  4  0
  6 15  4  0
  6 16  4  0
  7 22  4  0
  7 26  4  0
  8 10  4  0
  8 25  4  0
  9 15  4  0
  9 17  1  0
 10 21  4  0
 11 25  4  0
 12 23  4  0
 13 20  4  0
 13 26  4  0
 14 19  4  0
 17 18  4  0
 17 24  4  0
 19 23  4  0
 20 24  4  0
 23 26  1  0
M  END
$$$$

 Created by Python create_sdf_string function

 26 30  0  0  0  0  0  0  0  0999 V2000
   10.0084   -1.8019   23.4945 C   0  0  0  0  0  0  0  0  0  0  0  0
   10.0005   -4.2520   16.5631 C   0  0  0  0  0  0  0  0  0  0  0  0
   10.2759   -4.0036   17.8845 C   0  0  0  0  0  0  0  0  0  0  0  0
    8.5652    1.5478   25.3778 N   0  0  0  0  0  0  0  0  0  0  0  0
    6.8048   -7.5457   17.8752 C   0  0  0  0  0  0  0  0  0  0  0  0
    6.1721   -8.2186   15.9886 N   0  0  0  0  0  0  0  0  0  0  0  0
   11.1764   -2.6600   19.5604 C   0  0  0  0  0  0  0  0  0  0  0  0
    9.5491   -0.6380   24.1912 C   0  0  0  0  0  0  0  0  0  0  0  0
    7.5337   -6.9256   16.9519 C   0  0  0  0  0  0  0  0  0  0  0  0
    9.6782    0.5671   23.5143 C   0  0  0  0  0  0  0  0  0  0  0  0
    8.4532    0.3482   26.0821 C   0  0  0  0  0  0  0  0  0  0  0  0
   10.4239   -1.7677   22.2230 N   0  0  0  0  0  0  0  0  0  0  0  0
    9.9468   -4.5953   20.1709 C   0  0  0  0  0  0  0  0  0  0  0  0
   10.0366   -3.0590   23.9864 N   0  0  0  0  0  0  0  0  0  0  0  0
    7.1191   -7.3636   15.7739 C   0  0  0  0  0  0  0  0  0  0  0  0
    5.9612   -8.3203   17.2732 N   0  0  0  0  0  0  0  0  0  0  0  0
    8.5296   -5.9814   17.1841 C   0  0  0  0  0  0  0  0  0  0  0  0
    9.1527   -5.2118   16.2116 C   0  0  0  0  0  0  0  0  0  0  0  0
   10.3364   -3.8368   22.9255 O   0  0  0  0  0  0  0  0  0  0  0  0
    9.6947   -4.8407   18.8534 C   0  0  0  0  0  0  0  0  0  0  0  0
    9.1596    1.7042   24.1381 C   0  0  0  0  0  0  0  0  0  0  0  0
   11.0456   -2.9774   18.2694 N   0  0  0  0  0  0  0  0  0  0  0  0
   10.4788   -3.0457   21.8593 C   0  0  0  0  0  0  0  0  0  0  0  0
    8.8693   -5.8099   18.4657 N   0  0  0  0  0  0  0  0  0  0  0  0
    8.9892   -0.7926   25.4573 C   0  0  0  0  0  0  0  0  0  0  0  0
   10.5677   -3.4462   20.5323 C   0  0  0  0  0  0  0  0  0  0  0  0
  1  8  1  0
  1 12  4  0
  1 14  4  0
  2  3  4  0
  2 18  4  0
  3 20  4  0
  3 22  4  0
  4 11  4  0
  4 21  4  0
  5  9  4  0
  5 16  4  0
  6 15  4  0
  6 16  4  0
  7 22  4  0
  7 26  4  0
  8 10  4  0
  8 25  4  0
  9 15  4  0
  9 17  1  0
 10 21  4  0
 11 25  4  0
 12 23  4  0
 13 20  4  0
 13 26  4  0
 14 19  4  0
 17 18  4  0
 17 24  4  0
 19 23  4  0
 20 24  4  0
 23 26  1  0
M  END
$$$$

 Created by Python create_sdf_string function

 26 30  0  0  0  0  0  0  0  0999 V2000
   10.0084   -1.8019   23.4945 C   0  0  0  0  0  0  0  0  0  0  0  0
   10.0005   -4.2520   16.5631 C   0  0  0  0  0  0  0  0  0  0  0  0
   10.2759   -4.0036   17.8845 C   0  0  0  0  0  0  0  0  0  0  0  0
    8.5652    1.5478   25.3778 N   0  0  0  0  0  0  0  0  0  0  0  0
    6.8048   -7.5457   17.8752 C   0  0  0  0  0  0  0  0  0  0  0  0
    6.1721   -8.2186   15.9886 N   0  0  0  0  0  0  0  0  0  0  0  0
   11.1764   -2.6600   19.5604 C   0  0  0  0  0  0  0  0  0  0  0  0
    9.5491   -0.6380   24.1912 C   0  0  0  0  0  0  0  0  0  0  0  0
    7.5337   -6.9256   16.9519 C   0  0  0  0  0  0  0  0  0  0  0  0
    9.6782    0.5671   23.5143 C   0  0  0  0  0  0  0  0  0  0  0  0
    8.4532    0.3482   26.0821 C   0  0  0  0  0  0  0  0  0  0  0  0
   10.4239   -1.7677   22.2230 N   0  0  0  0  0  0  0  0  0  0  0  0
    9.9468   -4.5953   20.1709 C   0  0  0  0  0  0  0  0  0  0  0  0
   10.0366   -3.0590   23.9864 N   0  0  0  0  0  0  0  0  0  0  0  0
    7.1191   -7.3636   15.7739 C   0  0  0  0  0  0  0  0  0  0  0  0
    5.9612   -8.3203   17.2732 N   0  0  0  0  0  0  0  0  0  0  0  0
    8.5296   -5.9814   17.1841 C   0  0  0  0  0  0  0  0  0  0  0  0
    9.1527   -5.2118   16.2116 C   0  0  0  0  0  0  0  0  0  0  0  0
   10.3364   -3.8368   22.9255 O   0  0  0  0  0  0  0  0  0  0  0  0
    9.6947   -4.8407   18.8534 C   0  0  0  0  0  0  0  0  0  0  0  0
    9.1596    1.7042   24.1381 C   0  0  0  0  0  0  0  0  0  0  0  0
   11.0456   -2.9774   18.2694 N   0  0  0  0  0  0  0  0  0  0  0  0
   10.4788   -3.0457   21.8593 C   0  0  0  0  0  0  0  0  0  0  0  0
    8.8693   -5.8099   18.4657 N   0  0  0  0  0  0  0  0  0  0  0  0
    8.9892   -0.7926   25.4573 C   0  0  0  0  0  0  0  0  0  0  0  0
   10.5677   -3.4462   20.5323 C   0  0  0  0  0  0  0  0  0  0  0  0
  1  8  1  0
  1 12  4  0
  1 14  4  0
  2  3  4  0
  2 18  4  0
  3 20  4  0
  3 22  4  0
  4 11  4  0
  4 21  4  0
  5  9  4  0
  5 16  4  0
  6 15  4  0
  6 16  4  0
  7 22  4  0
  7 26  4  0
  8 10  4  0
  8 25  4  0
  9 15  4  0
  9 17  1  0
 10 21  4  0
 11 25  4  0
 12 23  4  0
 13 20  4  0
 13 26  4  0
 14 19  4  0
 17 18  4  0
 17 24  4  0
 19 23  4  0
 20 24  4  0
 23 26  1  0
M  END
$$$$

 Created by Python create_sdf_string function

 26 30  0  0  0  0  0  0  0  0999 V2000
   10.0084   -1.8019   23.4945 C   0  0  0  0  0  0  0  0  0  0  0  0
   10.0005   -4.2520   16.5631 C   0  0  0  0  0  0  0  0  0  0  0  0
   10.2759   -4.0036   17.8845 C   0  0  0  0  0  0  0  0  0  0  0  0
    8.5652    1.5478   25.3778 N   0  0  0  0  0  0  0  0  0  0  0  0
    6.8048   -7.5457   17.8752 C   0  0  0  0  0  0  0  0  0  0  0  0
    6.1721   -8.2186   15.9886 N   0  0  0  0  0  0  0  0  0  0  0  0
   11.1764   -2.6600   19.5604 C   0  0  0  0  0  0  0  0  0  0  0  0
    9.5491   -0.6380   24.1912 C   0  0  0  0  0  0  0  0  0  0  0  0
    7.5337   -6.9256   16.9519 C   0  0  0  0  0  0  0  0  0  0  0  0
    9.6782    0.5671   23.5143 C   0  0  0  0  0  0  0  0  0  0  0  0
    8.4532    0.3482   26.0821 C   0  0  0  0  0  0  0  0  0  0  0  0
   10.4239   -1.7677   22.2230 N   0  0  0  0  0  0  0  0  0  0  0  0
    9.9468   -4.5953   20.1709 C   0  0  0  0  0  0  0  0  0  0  0  0
   10.0366   -3.0590   23.9864 N   0  0  0  0  0  0  0  0  0  0  0  0
    7.1191   -7.3636   15.7739 C   0  0  0  0  0  0  0  0  0  0  0  0
    5.9612   -8.3203   17.2732 N   0  0  0  0  0  0  0  0  0  0  0  0
    8.5296   -5.9814   17.1841 C   0  0  0  0  0  0  0  0  0  0  0  0
    9.1527   -5.2118   16.2116 C   0  0  0  0  0  0  0  0  0  0  0  0
   10.3364   -3.8368   22.9255 O   0  0  0  0  0  0  0  0  0  0  0  0
    9.6947   -4.8407   18.8534 C   0  0  0  0  0  0  0  0  0  0  0  0
    9.1596    1.7042   24.1381 C   0  0  0  0  0  0  0  0  0  0  0  0
   11.0456   -2.9774   18.2694 N   0  0  0  0  0  0  0  0  0  0  0  0
   10.4788   -3.0457   21.8593 C   0  0  0  0  0  0  0  0  0  0  0  0
    8.8693   -5.8099   18.4657 N   0  0  0  0  0  0  0  0  0  0  0  0
    8.9892   -0.7926   25.4573 C   0  0  0  0  0  0  0  0  0  0  0  0
   10.5677   -3.4462   20.5323 C   0  0  0  0  0  0  0  0  0  0  0  0
  1  8  1  0
  1 12  4  0
  1 14  4  0
  2  3  4  0
  2 18  4  0
  3 20  4  0
  3 22  4  0
  4 11  4  0
  4 21  4  0
  5  9  4  0
  5 16  4  0
  6 15  4  0
  6 16  4  0
  7 22  4  0
  7 26  4  0
  8 10  4  0
  8 25  4  0
  9 15  4  0
  9 17  1  0
 10 21  4  0
 11 25  4  0
 12 23  4  0
 13 20  4  0
 13 26  4  0
 14 19  4  0
 17 18  4  0
 17 24  4  0
 19 23  4  0
 20 24  4  0
 23 26  1  0
M  END
$$$$

 Created by Python create_sdf_string function

 26 30  0  0  0  0  0  0  0  0999 V2000
   10.0084   -1.8019   23.4945 C   0  0  0  0  0  0  0  0  0  0  0  0
   10.0005   -4.2520   16.5631 C   0  0  0  0  0  0  0  0  0  0  0  0
   10.2759   -4.0036   17.8845 C   0  0  0  0  0  0  0  0  0  0  0  0
    8.5652    1.5478   25.3778 N   0  0  0  0  0  0  0  0  0  0  0  0
    6.8048   -7.5457   17.8752 C   0  0  0  0  0  0  0  0  0  0  0  0
    6.1721   -8.2186   15.9886 N   0  0  0  0  0  0  0  0  0  0  0  0
   11.1764   -2.6600   19.5604 C   0  0  0  0  0  0  0  0  0  0  0  0
    9.5491   -0.6380   24.1912 C   0  0  0  0  0  0  0  0  0  0  0  0
    7.5337   -6.9256   16.9519 C   0  0  0  0  0  0  0  0  0  0  0  0
    9.6782    0.5671   23.5143 C   0  0  0  0  0  0  0  0  0  0  0  0
    8.4532    0.3482   26.0821 C   0  0  0  0  0  0  0  0  0  0  0  0
   10.4239   -1.7677   22.2230 N   0  0  0  0  0  0  0  0  0  0  0  0
    9.9468   -4.5953   20.1709 C   0  0  0  0  0  0  0  0  0  0  0  0
   10.0366   -3.0590   23.9864 N   0  0  0  0  0  0  0  0  0  0  0  0
    7.1191   -7.3636   15.7739 C   0  0  0  0  0  0  0  0  0  0  0  0
    5.9612   -8.3203   17.2732 N   0  0  0  0  0  0  0  0  0  0  0  0
    8.5296   -5.9814   17.1841 C   0  0  0  0  0  0  0  0  0  0  0  0
    9.1527   -5.2118   16.2116 C   0  0  0  0  0  0  0  0  0  0  0  0
   10.3364   -3.8368   22.9255 O   0  0  0  0  0  0  0  0  0  0  0  0
    9.6947   -4.8407   18.8534 C   0  0  0  0  0  0  0  0  0  0  0  0
    9.1596    1.7042   24.1381 C   0  0  0  0  0  0  0  0  0  0  0  0
   11.0456   -2.9774   18.2694 N   0  0  0  0  0  0  0  0  0  0  0  0
   10.4788   -3.0457   21.8593 C   0  0  0  0  0  0  0  0  0  0  0  0
    8.8693   -5.8099   18.4657 N   0  0  0  0  0  0  0  0  0  0  0  0
    8.9892   -0.7926   25.4573 C   0  0  0  0  0  0  0  0  0  0  0  0
   10.5677   -3.4462   20.5323 C   0  0  0  0  0  0  0  0  0  0  0  0
  1  8  1  0
  1 12  4  0
  1 14  4  0
  2  3  4  0
  2 18  4  0
  3 20  4  0
  3 22  4  0
  4 11  4  0
  4 21  4  0
  5  9  4  0
  5 16  4  0
  6 15  4  0
  6 16  4  0
  7 22  4  0
  7 26  4  0
  8 10  4  0
  8 25  4  0
  9 15  4  0
  9 17  1  0
 10 21  4  0
 11 25  4  0
 12 23  4  0
 13 20  4  0
 13 26  4  0
 14 19  4  0
 17 18  4  0
 17 24  4  0
 19 23  4  0
 20 24  4  0
 23 26  1  0
M  END
$$$$

 Created by Python create_sdf_string function

 26 30  0  0  0  0  0  0  0  0999 V2000
   10.0084   -1.8019   23.4945 C   0  0  0  0  0  0  0  0  0  0  0  0
   10.0005   -4.2520   16.5631 C   0  0  0  0  0  0  0  0  0  0  0  0
   10.2759   -4.0036   17.8845 C   0  0  0  0  0  0  0  0  0  0  0  0
    8.5652    1.5478   25.3778 N   0  0  0  0  0  0  0  0  0  0  0  0
    6.8048   -7.5457   17.8752 C   0  0  0  0  0  0  0  0  0  0  0  0
    6.1721   -8.2186   15.9886 N   0  0  0  0  0  0  0  0  0  0  0  0
   11.1764   -2.6600   19.5604 C   0  0  0  0  0  0  0  0  0  0  0  0
    9.5491   -0.6380   24.1912 C   0  0  0  0  0  0  0  0  0  0  0  0
    7.5337   -6.9256   16.9519 C   0  0  0  0  0  0  0  0  0  0  0  0
    9.6782    0.5671   23.5143 C   0  0  0  0  0  0  0  0  0  0  0  0
    8.4532    0.3482   26.0821 C   0  0  0  0  0  0  0  0  0  0  0  0
   10.4239   -1.7677   22.2230 N   0  0  0  0  0  0  0  0  0  0  0  0
    9.9468   -4.5953   20.1709 C   0  0  0  0  0  0  0  0  0  0  0  0
   10.0366   -3.0590   23.9864 N   0  0  0  0  0  0  0  0  0  0  0  0
    7.1191   -7.3636   15.7739 C   0  0  0  0  0  0  0  0  0  0  0  0
    5.9612   -8.3203   17.2732 N   0  0  0  0  0  0  0  0  0  0  0  0
    8.5296   -5.9814   17.1841 C   0  0  0  0  0  0  0  0  0  0  0  0
    9.1527   -5.2118   16.2116 C   0  0  0  0  0  0  0  0  0  0  0  0
   10.3364   -3.8368   22.9255 O   0  0  0  0  0  0  0  0  0  0  0  0
    9.6947   -4.8407   18.8534 C   0  0  0  0  0  0  0  0  0  0  0  0
    9.1596    1.7042   24.1381 C   0  0  0  0  0  0  0  0  0  0  0  0
   11.0456   -2.9774   18.2694 N   0  0  0  0  0  0  0  0  0  0  0  0
   10.4788   -3.0457   21.8593 C   0  0  0  0  0  0  0  0  0  0  0  0
    8.8693   -5.8099   18.4657 N   0  0  0  0  0  0  0  0  0  0  0  0
    8.9892   -0.7926   25.4573 C   0  0  0  0  0  0  0  0  0  0  0  0
   10.5677   -3.4462   20.5323 C   0  0  0  0  0  0  0  0  0  0  0  0
  1  8  1  0
  1 12  4  0
  1 14  4  0
  2  3  4  0
  2 18  4  0
  3 20  4  0
  3 22  4  0
  4 11  4  0
  4 21  4  0
  5  9  4  0
  5 16  4  0
  6 15  4  0
  6 16  4  0
  7 22  4  0
  7 26  4  0
  8 10  4  0
  8 25  4  0
  9 15  4  0
  9 17  1  0
 10 21  4  0
 11 25  4  0
 12 23  4  0
 13 20  4  0
 13 26  4  0
 14 19  4  0
 17 18  4  0
 17 24  4  0
 19 23  4  0
 20 24  4  0
 23 26  1  0
M  END
$$$$

 Created by Python create_sdf_string function

 26 30  0  0  0  0  0  0  0  0999 V2000
   10.0084   -1.8019   23.4945 C   0  0  0  0  0  0  0  0  0  0  0  0
   10.0005   -4.2520   16.5631 C   0  0  0  0  0  0  0  0  0  0  0  0
   10.2759   -4.0036   17.8845 C   0  0  0  0  0  0  0  0  0  0  0  0
    8.5652    1.5478   25.3778 N   0  0  0  0  0  0  0  0  0  0  0  0
    6.8048   -7.5457   17.8752 C   0  0  0  0  0  0  0  0  0  0  0  0
    6.1721   -8.2186   15.9886 N   0  0  0  0  0  0  0  0  0  0  0  0
   11.1764   -2.6600   19.5604 C   0  0  0  0  0  0  0  0  0  0  0  0
    9.5491   -0.6380   24.1912 C   0  0  0  0  0  0  0  0  0  0  0  0
    7.5337   -6.9256   16.9519 C   0  0  0  0  0  0  0  0  0  0  0  0
    9.6782    0.5671   23.5143 C   0  0  0  0  0  0  0  0  0  0  0  0
    8.4532    0.3482   26.0821 C   0  0  0  0  0  0  0  0  0  0  0  0
   10.4239   -1.7677   22.2230 N   0  0  0  0  0  0  0  0  0  0  0  0
    9.9468   -4.5953   20.1709 C   0  0  0  0  0  0  0  0  0  0  0  0
   10.0366   -3.0590   23.9864 N   0  0  0  0  0  0  0  0  0  0  0  0
    7.1191   -7.3636   15.7739 C   0  0  0  0  0  0  0  0  0  0  0  0
    5.9612   -8.3203   17.2732 N   0  0  0  0  0  0  0  0  0  0  0  0
    8.5296   -5.9814   17.1841 C   0  0  0  0  0  0  0  0  0  0  0  0
    9.1527   -5.2118   16.2116 C   0  0  0  0  0  0  0  0  0  0  0  0
   10.3364   -3.8368   22.9255 O   0  0  0  0  0  0  0  0  0  0  0  0
    9.6947   -4.8407   18.8534 C   0  0  0  0  0  0  0  0  0  0  0  0
    9.1596    1.7042   24.1381 C   0  0  0  0  0  0  0  0  0  0  0  0
   11.0456   -2.9774   18.2694 N   0  0  0  0  0  0  0  0  0  0  0  0
   10.4788   -3.0457   21.8593 C   0  0  0  0  0  0  0  0  0  0  0  0
    8.8693   -5.8099   18.4657 N   0  0  0  0  0  0  0  0  0  0  0  0
    8.9892   -0.7926   25.4573 C   0  0  0  0  0  0  0  0  0  0  0  0
   10.5677   -3.4462   20.5323 C   0  0  0  0  0  0  0  0  0  0  0  0
  1  8  1  0
  1 12  4  0
  1 14  4  0
  2  3  4  0
  2 18  4  0
  3 20  4  0
  3 22  4  0
  4 11  4  0
  4 21  4  0
  5  9  4  0
  5 16  4  0
  6 15  4  0
  6 16  4  0
  7 22  4  0
  7 26  4  0
  8 10  4  0
  8 25  4  0
  9 15  4  0
  9 17  1  0
 10 21  4  0
 11 25  4  0
 12 23  4  0
 13 20  4  0
 13 26  4  0
 14 19  4  0
 17 18  4  0
 17 24  4  0
 19 23  4  0
 20 24  4  0
 23 26  1  0
M  END
$$$$

 Created by Python create_sdf_string function

 26 30  0  0  0  0  0  0  0  0999 V2000
   10.0084   -1.8019   23.4945 C   0  0  0  0  0  0  0  0  0  0  0  0
   10.0005   -4.2520   16.5631 C   0  0  0  0  0  0  0  0  0  0  0  0
   10.2759   -4.0036   17.8845 C   0  0  0  0  0  0  0  0  0  0  0  0
    8.5652    1.5478   25.3778 N   0  0  0  0  0  0  0  0  0  0  0  0
    6.8048   -7.5457   17.8752 C   0  0  0  0  0  0  0  0  0  0  0  0
    6.1721   -8.2186   15.9886 N   0  0  0  0  0  0  0  0  0  0  0  0
   11.1764   -2.6600   19.5604 C   0  0  0  0  0  0  0  0  0  0  0  0
    9.5491   -0.6380   24.1912 C   0  0  0  0  0  0  0  0  0  0  0  0
    7.5337   -6.9256   16.9519 C   0  0  0  0  0  0  0  0  0  0  0  0
    9.6782    0.5671   23.5143 C   0  0  0  0  0  0  0  0  0  0  0  0
    8.4532    0.3482   26.0821 C   0  0  0  0  0  0  0  0  0  0  0  0
   10.4239   -1.7677   22.2230 N   0  0  0  0  0  0  0  0  0  0  0  0
    9.9468   -4.5953   20.1709 C   0  0  0  0  0  0  0  0  0  0  0  0
   10.0366   -3.0590   23.9864 N   0  0  0  0  0  0  0  0  0  0  0  0
    7.1191   -7.3636   15.7739 C   0  0  0  0  0  0  0  0  0  0  0  0
    5.9612   -8.3203   17.2732 N   0  0  0  0  0  0  0  0  0  0  0  0
    8.5296   -5.9814   17.1841 C   0  0  0  0  0  0  0  0  0  0  0  0
    9.1527   -5.2118   16.2116 C   0  0  0  0  0  0  0  0  0  0  0  0
   10.3364   -3.8368   22.9255 O   0  0  0  0  0  0  0  0  0  0  0  0
    9.6947   -4.8407   18.8534 C   0  0  0  0  0  0  0  0  0  0  0  0
    9.1596    1.7042   24.1381 C   0  0  0  0  0  0  0  0  0  0  0  0
   11.0456   -2.9774   18.2694 N   0  0  0  0  0  0  0  0  0  0  0  0
   10.4788   -3.0457   21.8593 C   0  0  0  0  0  0  0  0  0  0  0  0
    8.8693   -5.8099   18.4657 N   0  0  0  0  0  0  0  0  0  0  0  0
    8.9892   -0.7926   25.4573 C   0  0  0  0  0  0  0  0  0  0  0  0
   10.5677   -3.4462   20.5323 C   0  0  0  0  0  0  0  0  0  0  0  0
  1  8  1  0
  1 12  4  0
  1 14  4  0
  2  3  4  0
  2 18  4  0
  3 20  4  0
  3 22  4  0
  4 11  4  0
  4 21  4  0
  5  9  4  0
  5 16  4  0
  6 15  4  0
  6 16  4  0
  7 22  4  0
  7 26  4  0
  8 10  4  0
  8 25  4  0
  9 15  4  0
  9 17  1  0
 10 21  4  0
 11 25  4  0
 12 23  4  0
 13 20  4  0
 13 26  4  0
 14 19  4  0
 17 18  4  0
 17 24  4  0
 19 23  4  0
 20 24  4  0
 23 26  1  0
M  END
$$$$

 Created by Python create_sdf_string function

 26 30  0  0  0  0  0  0  0  0999 V2000
   10.0084   -1.8019   23.4945 C   0  0  0  0  0  0  0  0  0  0  0  0
   10.0005   -4.2520   16.5631 C   0  0  0  0  0  0  0  0  0  0  0  0
   10.2759   -4.0036   17.8845 C   0  0  0  0  0  0  0  0  0  0  0  0
    8.5652    1.5478   25.3778 N   0  0  0  0  0  0  0  0  0  0  0  0
    6.8048   -7.5457   17.8752 C   0  0  0  0  0  0  0  0  0  0  0  0
    6.1721   -8.2186   15.9886 N   0  0  0  0  0  0  0  0  0  0  0  0
   11.1764   -2.6600   19.5604 C   0  0  0  0  0  0  0  0  0  0  0  0
    9.5491   -0.6380   24.1912 C   0  0  0  0  0  0  0  0  0  0  0  0
    7.5337   -6.9256   16.9519 C   0  0  0  0  0  0  0  0  0  0  0  0
    9.6782    0.5671   23.5143 C   0  0  0  0  0  0  0  0  0  0  0  0
    8.4532    0.3482   26.0821 C   0  0  0  0  0  0  0  0  0  0  0  0
   10.4239   -1.7677   22.2230 N   0  0  0  0  0  0  0  0  0  0  0  0
    9.9468   -4.5953   20.1709 C   0  0  0  0  0  0  0  0  0  0  0  0
   10.0366   -3.0590   23.9864 N   0  0  0  0  0  0  0  0  0  0  0  0
    7.1191   -7.3636   15.7739 C   0  0  0  0  0  0  0  0  0  0  0  0
    5.9612   -8.3203   17.2732 N   0  0  0  0  0  0  0  0  0  0  0  0
    8.5296   -5.9814   17.1841 C   0  0  0  0  0  0  0  0  0  0  0  0
    9.1527   -5.2118   16.2116 C   0  0  0  0  0  0  0  0  0  0  0  0
   10.3364   -3.8368   22.9255 O   0  0  0  0  0  0  0  0  0  0  0  0
    9.6947   -4.8407   18.8534 C   0  0  0  0  0  0  0  0  0  0  0  0
    9.1596    1.7042   24.1381 C   0  0  0  0  0  0  0  0  0  0  0  0
   11.0456   -2.9774   18.2694 N   0  0  0  0  0  0  0  0  0  0  0  0
   10.4788   -3.0457   21.8593 C   0  0  0  0  0  0  0  0  0  0  0  0
    8.8693   -5.8099   18.4657 N   0  0  0  0  0  0  0  0  0  0  0  0
    8.9892   -0.7926   25.4573 C   0  0  0  0  0  0  0  0  0  0  0  0
   10.5677   -3.4462   20.5323 C   0  0  0  0  0  0  0  0  0  0  0  0
  1  8  1  0
  1 12  4  0
  1 14  4  0
  2  3  4  0
  2 18  4  0
  3 20  4  0
  3 22  4  0
  4 11  4  0
  4 21  4  0
  5  9  4  0
  5 16  4  0
  6 15  4  0
  6 16  4  0
  7 22  4  0
  7 26  4  0
  8 10  4  0
  8 25  4  0
  9 15  4  0
  9 17  1  0
 10 21  4  0
 11 25  4  0
 12 23  4  0
 13 20  4  0
 13 26  4  0
 14 19  4  0
 17 18  4  0
 17 24  4  0
 19 23  4  0
 20 24  4  0
 23 26  1  0
M  END
$$$$

 Created by Python create_sdf_string function

 26 30  0  0  0  0  0  0  0  0999 V2000
   10.0084   -1.8019   23.4945 C   0  0  0  0  0  0  0  0  0  0  0  0
   10.0005   -4.2520   16.5631 C   0  0  0  0  0  0  0  0  0  0  0  0
   10.2759   -4.0036   17.8845 C   0  0  0  0  0  0  0  0  0  0  0  0
    8.5652    1.5478   25.3778 N   0  0  0  0  0  0  0  0  0  0  0  0
    6.8048   -7.5457   17.8752 C   0  0  0  0  0  0  0  0  0  0  0  0
    6.1721   -8.2186   15.9886 N   0  0  0  0  0  0  0  0  0  0  0  0
   11.1764   -2.6600   19.5604 C   0  0  0  0  0  0  0  0  0  0  0  0
    9.5491   -0.6380   24.1912 C   0  0  0  0  0  0  0  0  0  0  0  0
    7.5337   -6.9256   16.9519 C   0  0  0  0  0  0  0  0  0  0  0  0
    9.6782    0.5671   23.5143 C   0  0  0  0  0  0  0  0  0  0  0  0
    8.4532    0.3482   26.0821 C   0  0  0  0  0  0  0  0  0  0  0  0
   10.4239   -1.7677   22.2230 N   0  0  0  0  0  0  0  0  0  0  0  0
    9.9468   -4.5953   20.1709 C   0  0  0  0  0  0  0  0  0  0  0  0
   10.0366   -3.0590   23.9864 N   0  0  0  0  0  0  0  0  0  0  0  0
    7.1191   -7.3636   15.7739 C   0  0  0  0  0  0  0  0  0  0  0  0
    5.9612   -8.3203   17.2732 N   0  0  0  0  0  0  0  0  0  0  0  0
    8.5296   -5.9814   17.1841 C   0  0  0  0  0  0  0  0  0  0  0  0
    9.1527   -5.2118   16.2116 C   0  0  0  0  0  0  0  0  0  0  0  0
   10.3364   -3.8368   22.9255 O   0  0  0  0  0  0  0  0  0  0  0  0
    9.6947   -4.8407   18.8534 C   0  0  0  0  0  0  0  0  0  0  0  0
    9.1596    1.7042   24.1381 C   0  0  0  0  0  0  0  0  0  0  0  0
   11.0456   -2.9774   18.2694 N   0  0  0  0  0  0  0  0  0  0  0  0
   10.4788   -3.0457   21.8593 C   0  0  0  0  0  0  0  0  0  0  0  0
    8.8693   -5.8099   18.4657 N   0  0  0  0  0  0  0  0  0  0  0  0
    8.9892   -0.7926   25.4573 C   0  0  0  0  0  0  0  0  0  0  0  0
   10.5677   -3.4462   20.5323 C   0  0  0  0  0  0  0  0  0  0  0  0
  1  8  1  0
  1 12  4  0
  1 14  4  0
  2  3  4  0
  2 18  4  0
  3 20  4  0
  3 22  4  0
  4 11  4  0
  4 21  4  0
  5  9  4  0
  5 16  4  0
  6 15  4  0
  6 16  4  0
  7 22  4  0
  7 26  4  0
  8 10  4  0
  8 25  4  0
  9 15  4  0
  9 17  1  0
 10 21  4  0
 11 25  4  0
 12 23  4  0
 13 20  4  0
 13 26  4  0
 14 19  4  0
 17 18  4  0
 17 24  4  0
 19 23  4  0
 20 24  4  0
 23 26  1  0
M  END
$$$$

 Created by Python create_sdf_string function

 26 30  0  0  0  0  0  0  0  0999 V2000
   10.0084   -1.8019   23.4945 C   0  0  0  0  0  0  0  0  0  0  0  0
   10.0005   -4.2520   16.5631 C   0  0  0  0  0  0  0  0  0  0  0  0
   10.2759   -4.0036   17.8845 C   0  0  0  0  0  0  0  0  0  0  0  0
    8.5652    1.5478   25.3778 N   0  0  0  0  0  0  0  0  0  0  0  0
    6.8048   -7.5457   17.8752 C   0  0  0  0  0  0  0  0  0  0  0  0
    6.1721   -8.2186   15.9886 N   0  0  0  0  0  0  0  0  0  0  0  0
   11.1764   -2.6600   19.5604 C   0  0  0  0  0  0  0  0  0  0  0  0
    9.5491   -0.6380   24.1912 C   0  0  0  0  0  0  0  0  0  0  0  0
    7.5337   -6.9256   16.9519 C   0  0  0  0  0  0  0  0  0  0  0  0
    9.6782    0.5671   23.5143 C   0  0  0  0  0  0  0  0  0  0  0  0
    8.4532    0.3482   26.0821 C   0  0  0  0  0  0  0  0  0  0  0  0
   10.4239   -1.7677   22.2230 N   0  0  0  0  0  0  0  0  0  0  0  0
    9.9468   -4.5953   20.1709 C   0  0  0  0  0  0  0  0  0  0  0  0
   10.0366   -3.0590   23.9864 N   0  0  0  0  0  0  0  0  0  0  0  0
    7.1191   -7.3636   15.7739 C   0  0  0  0  0  0  0  0  0  0  0  0
    5.9612   -8.3203   17.2732 N   0  0  0  0  0  0  0  0  0  0  0  0
    8.5296   -5.9814   17.1841 C   0  0  0  0  0  0  0  0  0  0  0  0
    9.1527   -5.2118   16.2116 C   0  0  0  0  0  0  0  0  0  0  0  0
   10.3364   -3.8368   22.9255 O   0  0  0  0  0  0  0  0  0  0  0  0
    9.6947   -4.8407   18.8534 C   0  0  0  0  0  0  0  0  0  0  0  0
    9.1596    1.7042   24.1381 C   0  0  0  0  0  0  0  0  0  0  0  0
   11.0456   -2.9774   18.2694 N   0  0  0  0  0  0  0  0  0  0  0  0
   10.4788   -3.0457   21.8593 C   0  0  0  0  0  0  0  0  0  0  0  0
    8.8693   -5.8099   18.4657 N   0  0  0  0  0  0  0  0  0  0  0  0
    8.9892   -0.7926   25.4573 C   0  0  0  0  0  0  0  0  0  0  0  0
   10.5677   -3.4462   20.5323 C   0  0  0  0  0  0  0  0  0  0  0  0
  1  8  1  0
  1 12  4  0
  1 14  4  0
  2  3  4  0
  2 18  4  0
  3 20  4  0
  3 22  4  0
  4 11  4  0
  4 21  4  0
  5  9  4  0
  5 16  4  0
  6 15  4  0
  6 16  4  0
  7 22  4  0
  7 26  4  0
  8 10  4  0
  8 25  4  0
  9 15  4  0
  9 17  1  0
 10 21  4  0
 11 25  4  0
 12 23  4  0
 13 20  4  0
 13 26  4  0
 14 19  4  0
 17 18  4  0
 17 24  4  0
 19 23  4  0
 20 24  4  0
 23 26  1  0
M  END
$$$$

 Created by Python create_sdf_string function

 26 30  0  0  0  0  0  0  0  0999 V2000
   10.0084   -1.8019   23.4945 C   0  0  0  0  0  0  0  0  0  0  0  0
   10.0005   -4.2520   16.5631 C   0  0  0  0  0  0  0  0  0  0  0  0
   10.2759   -4.0036   17.8845 C   0  0  0  0  0  0  0  0  0  0  0  0
    8.5652    1.5478   25.3778 N   0  0  0  0  0  0  0  0  0  0  0  0
    6.8048   -7.5457   17.8752 C   0  0  0  0  0  0  0  0  0  0  0  0
    6.1721   -8.2186   15.9886 N   0  0  0  0  0  0  0  0  0  0  0  0
   11.1764   -2.6600   19.5604 C   0  0  0  0  0  0  0  0  0  0  0  0
    9.5491   -0.6380   24.1912 C   0  0  0  0  0  0  0  0  0  0  0  0
    7.5337   -6.9256   16.9519 C   0  0  0  0  0  0  0  0  0  0  0  0
    9.6782    0.5671   23.5143 C   0  0  0  0  0  0  0  0  0  0  0  0
    8.4532    0.3482   26.0821 C   0  0  0  0  0  0  0  0  0  0  0  0
   10.4239   -1.7677   22.2230 N   0  0  0  0  0  0  0  0  0  0  0  0
    9.9468   -4.5953   20.1709 C   0  0  0  0  0  0  0  0  0  0  0  0
   10.0366   -3.0590   23.9864 N   0  0  0  0  0  0  0  0  0  0  0  0
    7.1191   -7.3636   15.7739 C   0  0  0  0  0  0  0  0  0  0  0  0
    5.9612   -8.3203   17.2732 N   0  0  0  0  0  0  0  0  0  0  0  0
    8.5296   -5.9814   17.1841 C   0  0  0  0  0  0  0  0  0  0  0  0
    9.1527   -5.2118   16.2116 C   0  0  0  0  0  0  0  0  0  0  0  0
   10.3364   -3.8368   22.9255 O   0  0  0  0  0  0  0  0  0  0  0  0
    9.6947   -4.8407   18.8534 C   0  0  0  0  0  0  0  0  0  0  0  0
    9.1596    1.7042   24.1381 C   0  0  0  0  0  0  0  0  0  0  0  0
   11.0456   -2.9774   18.2694 N   0  0  0  0  0  0  0  0  0  0  0  0
   10.4788   -3.0457   21.8593 C   0  0  0  0  0  0  0  0  0  0  0  0
    8.8693   -5.8099   18.4657 N   0  0  0  0  0  0  0  0  0  0  0  0
    8.9892   -0.7926   25.4573 C   0  0  0  0  0  0  0  0  0  0  0  0
   10.5677   -3.4462   20.5323 C   0  0  0  0  0  0  0  0  0  0  0  0
  1  8  1  0
  1 12  4  0
  1 14  4  0
  2  3  4  0
  2 18  4  0
  3 20  4  0
  3 22  4  0
  4 11  4  0
  4 21  4  0
  5  9  4  0
  5 16  4  0
  6 15  4  0
  6 16  4  0
  7 22  4  0
  7 26  4  0
  8 10  4  0
  8 25  4  0
  9 15  4  0
  9 17  1  0
 10 21  4  0
 11 25  4  0
 12 23  4  0
 13 20  4  0
 13 26  4  0
 14 19  4  0
 17 18  4  0
 17 24  4  0
 19 23  4  0
 20 24  4  0
 23 26  1  0
M  END
$$$$

 Created by Python create_sdf_string function

 26 30  0  0  0  0  0  0  0  0999 V2000
   10.0084   -1.8019   23.4945 C   0  0  0  0  0  0  0  0  0  0  0  0
   10.0005   -4.2520   16.5631 C   0  0  0  0  0  0  0  0  0  0  0  0
   10.2759   -4.0036   17.8845 C   0  0  0  0  0  0  0  0  0  0  0  0
    8.5652    1.5478   25.3778 N   0  0  0  0  0  0  0  0  0  0  0  0
    6.8048   -7.5457   17.8752 C   0  0  0  0  0  0  0  0  0  0  0  0
    6.1721   -8.2186   15.9886 N   0  0  0  0  0  0  0  0  0  0  0  0
   11.1764   -2.6600   19.5604 C   0  0  0  0  0  0  0  0  0  0  0  0
    9.5491   -0.6380   24.1912 C   0  0  0  0  0  0  0  0  0  0  0  0
    7.5337   -6.9256   16.9519 C   0  0  0  0  0  0  0  0  0  0  0  0
    9.6782    0.5671   23.5143 C   0  0  0  0  0  0  0  0  0  0  0  0
    8.4532    0.3482   26.0821 C   0  0  0  0  0  0  0  0  0  0  0  0
   10.4239   -1.7677   22.2230 N   0  0  0  0  0  0  0  0  0  0  0  0
    9.9468   -4.5953   20.1709 C   0  0  0  0  0  0  0  0  0  0  0  0
   10.0366   -3.0590   23.9864 N   0  0  0  0  0  0  0  0  0  0  0  0
    7.1191   -7.3636   15.7739 C   0  0  0  0  0  0  0  0  0  0  0  0
    5.9612   -8.3203   17.2732 N   0  0  0  0  0  0  0  0  0  0  0  0
    8.5296   -5.9814   17.1841 C   0  0  0  0  0  0  0  0  0  0  0  0
    9.1527   -5.2118   16.2116 C   0  0  0  0  0  0  0  0  0  0  0  0
   10.3364   -3.8368   22.9255 O   0  0  0  0  0  0  0  0  0  0  0  0
    9.6947   -4.8407   18.8534 C   0  0  0  0  0  0  0  0  0  0  0  0
    9.1596    1.7042   24.1381 C   0  0  0  0  0  0  0  0  0  0  0  0
   11.0456   -2.9774   18.2694 N   0  0  0  0  0  0  0  0  0  0  0  0
   10.4788   -3.0457   21.8593 C   0  0  0  0  0  0  0  0  0  0  0  0
    8.8693   -5.8099   18.4657 N   0  0  0  0  0  0  0  0  0  0  0  0
    8.9892   -0.7926   25.4573 C   0  0  0  0  0  0  0  0  0  0  0  0
   10.5677   -3.4462   20.5323 C   0  0  0  0  0  0  0  0  0  0  0  0
  1  8  1  0
  1 12  4  0
  1 14  4  0
  2  3  4  0
  2 18  4  0
  3 20  4  0
  3 22  4  0
  4 11  4  0
  4 21  4  0
  5  9  4  0
  5 16  4  0
  6 15  4  0
  6 16  4  0
  7 22  4  0
  7 26  4  0
  8 10  4  0
  8 25  4  0
  9 15  4  0
  9 17  1  0
 10 21  4  0
 11 25  4  0
 12 23  4  0
 13 20  4  0
 13 26  4  0
 14 19  4  0
 17 18  4  0
 17 24  4  0
 19 23  4  0
 20 24  4  0
 23 26  1  0
M  END
$$$$

 Created by Python create_sdf_string function

 26 30  0  0  0  0  0  0  0  0999 V2000
   10.0084   -1.8019   23.4945 C   0  0  0  0  0  0  0  0  0  0  0  0
   10.0005   -4.2520   16.5631 C   0  0  0  0  0  0  0  0  0  0  0  0
   10.2759   -4.0036   17.8845 C   0  0  0  0  0  0  0  0  0  0  0  0
    8.5652    1.5478   25.3778 N   0  0  0  0  0  0  0  0  0  0  0  0
    6.8048   -7.5457   17.8752 C   0  0  0  0  0  0  0  0  0  0  0  0
    6.1721   -8.2186   15.9886 N   0  0  0  0  0  0  0  0  0  0  0  0
   11.1764   -2.6600   19.5604 C   0  0  0  0  0  0  0  0  0  0  0  0
    9.5491   -0.6380   24.1912 C   0  0  0  0  0  0  0  0  0  0  0  0
    7.5337   -6.9256   16.9519 C   0  0  0  0  0  0  0  0  0  0  0  0
    9.6782    0.5671   23.5143 C   0  0  0  0  0  0  0  0  0  0  0  0
    8.4532    0.3482   26.0821 C   0  0  0  0  0  0  0  0  0  0  0  0
   10.4239   -1.7677   22.2230 N   0  0  0  0  0  0  0  0  0  0  0  0
    9.9468   -4.5953   20.1709 C   0  0  0  0  0  0  0  0  0  0  0  0
   10.0366   -3.0590   23.9864 N   0  0  0  0  0  0  0  0  0  0  0  0
    7.1191   -7.3636   15.7739 C   0  0  0  0  0  0  0  0  0  0  0  0
    5.9612   -8.3203   17.2732 N   0  0  0  0  0  0  0  0  0  0  0  0
    8.5296   -5.9814   17.1841 C   0  0  0  0  0  0  0  0  0  0  0  0
    9.1527   -5.2118   16.2116 C   0  0  0  0  0  0  0  0  0  0  0  0
   10.3364   -3.8368   22.9255 O   0  0  0  0  0  0  0  0  0  0  0  0
    9.6947   -4.8407   18.8534 C   0  0  0  0  0  0  0  0  0  0  0  0
    9.1596    1.7042   24.1381 C   0  0  0  0  0  0  0  0  0  0  0  0
   11.0456   -2.9774   18.2694 N   0  0  0  0  0  0  0  0  0  0  0  0
   10.4788   -3.0457   21.8593 C   0  0  0  0  0  0  0  0  0  0  0  0
    8.8693   -5.8099   18.4657 N   0  0  0  0  0  0  0  0  0  0  0  0
    8.9892   -0.7926   25.4573 C   0  0  0  0  0  0  0  0  0  0  0  0
   10.5677   -3.4462   20.5323 C   0  0  0  0  0  0  0  0  0  0  0  0
  1  8  1  0
  1 12  4  0
  1 14  4  0
  2  3  4  0
  2 18  4  0
  3 20  4  0
  3 22  4  0
  4 11  4  0
  4 21  4  0
  5  9  4  0
  5 16  4  0
  6 15  4  0
  6 16  4  0
  7 22  4  0
  7 26  4  0
  8 10  4  0
  8 25  4  0
  9 15  4  0
  9 17  1  0
 10 21  4  0
 11 25  4  0
 12 23  4  0
 13 20  4  0
 13 26  4  0
 14 19  4  0
 17 18  4  0
 17 24  4  0
 19 23  4  0
 20 24  4  0
 23 26  1  0
M  END
$$$$

 Created by Python create_sdf_string function

 26 30  0  0  0  0  0  0  0  0999 V2000
   10.0084   -1.8019   23.4945 C   0  0  0  0  0  0  0  0  0  0  0  0
   10.0005   -4.2520   16.5631 C   0  0  0  0  0  0  0  0  0  0  0  0
   10.2759   -4.0036   17.8845 C   0  0  0  0  0  0  0  0  0  0  0  0
    8.5652    1.5478   25.3778 N   0  0  0  0  0  0  0  0  0  0  0  0
    6.8048   -7.5457   17.8752 C   0  0  0  0  0  0  0  0  0  0  0  0
    6.1721   -8.2186   15.9886 N   0  0  0  0  0  0  0  0  0  0  0  0
   11.1764   -2.6600   19.5604 C   0  0  0  0  0  0  0  0  0  0  0  0
    9.5491   -0.6380   24.1912 C   0  0  0  0  0  0  0  0  0  0  0  0
    7.5337   -6.9256   16.9519 C   0  0  0  0  0  0  0  0  0  0  0  0
    9.6782    0.5671   23.5143 C   0  0  0  0  0  0  0  0  0  0  0  0
    8.4532    0.3482   26.0821 C   0  0  0  0  0  0  0  0  0  0  0  0
   10.4239   -1.7677   22.2230 N   0  0  0  0  0  0  0  0  0  0  0  0
    9.9468   -4.5953   20.1709 C   0  0  0  0  0  0  0  0  0  0  0  0
   10.0366   -3.0590   23.9864 N   0  0  0  0  0  0  0  0  0  0  0  0
    7.1191   -7.3636   15.7739 C   0  0  0  0  0  0  0  0  0  0  0  0
    5.9612   -8.3203   17.2732 N   0  0  0  0  0  0  0  0  0  0  0  0
    8.5296   -5.9814   17.1841 C   0  0  0  0  0  0  0  0  0  0  0  0
    9.1527   -5.2118   16.2116 C   0  0  0  0  0  0  0  0  0  0  0  0
   10.3364   -3.8368   22.9255 O   0  0  0  0  0  0  0  0  0  0  0  0
    9.6947   -4.8407   18.8534 C   0  0  0  0  0  0  0  0  0  0  0  0
    9.1596    1.7042   24.1381 C   0  0  0  0  0  0  0  0  0  0  0  0
   11.0456   -2.9774   18.2694 N   0  0  0  0  0  0  0  0  0  0  0  0
   10.4788   -3.0457   21.8593 C   0  0  0  0  0  0  0  0  0  0  0  0
    8.8693   -5.8099   18.4657 N   0  0  0  0  0  0  0  0  0  0  0  0
    8.9892   -0.7926   25.4573 C   0  0  0  0  0  0  0  0  0  0  0  0
   10.5677   -3.4462   20.5323 C   0  0  0  0  0  0  0  0  0  0  0  0
  1  8  1  0
  1 12  4  0
  1 14  4  0
  2  3  4  0
  2 18  4  0
  3 20  4  0
  3 22  4  0
  4 11  4  0
  4 21  4  0
  5  9  4  0
  5 16  4  0
  6 15  4  0
  6 16  4  0
  7 22  4  0
  7 26  4  0
  8 10  4  0
  8 25  4  0
  9 15  4  0
  9 17  1  0
 10 21  4  0
 11 25  4  0
 12 23  4  0
 13 20  4  0
 13 26  4  0
 14 19  4  0
 17 18  4  0
 17 24  4  0
 19 23  4  0
 20 24  4  0
 23 26  1  0
M  END
$$$$

 Created by Python create_sdf_string function

 26 30  0  0  0  0  0  0  0  0999 V2000
   10.0084   -1.8019   23.4945 C   0  0  0  0  0  0  0  0  0  0  0  0
   10.0005   -4.2520   16.5631 C   0  0  0  0  0  0  0  0  0  0  0  0
   10.2759   -4.0036   17.8845 C   0  0  0  0  0  0  0  0  0  0  0  0
    8.5652    1.5478   25.3778 N   0  0  0  0  0  0  0  0  0  0  0  0
    6.8048   -7.5457   17.8752 C   0  0  0  0  0  0  0  0  0  0  0  0
    6.1721   -8.2186   15.9886 N   0  0  0  0  0  0  0  0  0  0  0  0
   11.1764   -2.6600   19.5604 C   0  0  0  0  0  0  0  0  0  0  0  0
    9.5491   -0.6380   24.1912 C   0  0  0  0  0  0  0  0  0  0  0  0
    7.5337   -6.9256   16.9519 C   0  0  0  0  0  0  0  0  0  0  0  0
    9.6782    0.5671   23.5143 C   0  0  0  0  0  0  0  0  0  0  0  0
    8.4532    0.3482   26.0821 C   0  0  0  0  0  0  0  0  0  0  0  0
   10.4239   -1.7677   22.2230 N   0  0  0  0  0  0  0  0  0  0  0  0
    9.9468   -4.5953   20.1709 C   0  0  0  0  0  0  0  0  0  0  0  0
   10.0366   -3.0590   23.9864 N   0  0  0  0  0  0  0  0  0  0  0  0
    7.1191   -7.3636   15.7739 C   0  0  0  0  0  0  0  0  0  0  0  0
    5.9612   -8.3203   17.2732 N   0  0  0  0  0  0  0  0  0  0  0  0
    8.5296   -5.9814   17.1841 C   0  0  0  0  0  0  0  0  0  0  0  0
    9.1527   -5.2118   16.2116 C   0  0  0  0  0  0  0  0  0  0  0  0
   10.3364   -3.8368   22.9255 O   0  0  0  0  0  0  0  0  0  0  0  0
    9.6947   -4.8407   18.8534 C   0  0  0  0  0  0  0  0  0  0  0  0
    9.1596    1.7042   24.1381 C   0  0  0  0  0  0  0  0  0  0  0  0
   11.0456   -2.9774   18.2694 N   0  0  0  0  0  0  0  0  0  0  0  0
   10.4788   -3.0457   21.8593 C   0  0  0  0  0  0  0  0  0  0  0  0
    8.8693   -5.8099   18.4657 N   0  0  0  0  0  0  0  0  0  0  0  0
    8.9892   -0.7926   25.4573 C   0  0  0  0  0  0  0  0  0  0  0  0
   10.5677   -3.4462   20.5323 C   0  0  0  0  0  0  0  0  0  0  0  0
  1  8  1  0
  1 12  4  0
  1 14  4  0
  2  3  4  0
  2 18  4  0
  3 20  4  0
  3 22  4  0
  4 11  4  0
  4 21  4  0
  5  9  4  0
  5 16  4  0
  6 15  4  0
  6 16  4  0
  7 22  4  0
  7 26  4  0
  8 10  4  0
  8 25  4  0
  9 15  4  0
  9 17  1  0
 10 21  4  0
 11 25  4  0
 12 23  4  0
 13 20  4  0
 13 26  4  0
 14 19  4  0
 17 18  4  0
 17 24  4  0
 19 23  4  0
 20 24  4  0
 23 26  1  0
M  END
$$$$

 Created by Python create_sdf_string function

 26 30  0  0  0  0  0  0  0  0999 V2000
   10.0084   -1.8019   23.4945 C   0  0  0  0  0  0  0  0  0  0  0  0
   10.0005   -4.2520   16.5631 C   0  0  0  0  0  0  0  0  0  0  0  0
   10.2759   -4.0036   17.8845 C   0  0  0  0  0  0  0  0  0  0  0  0
    8.5652    1.5478   25.3778 N   0  0  0  0  0  0  0  0  0  0  0  0
    6.8048   -7.5457   17.8752 C   0  0  0  0  0  0  0  0  0  0  0  0
    6.1721   -8.2186   15.9886 N   0  0  0  0  0  0  0  0  0  0  0  0
   11.1764   -2.6600   19.5604 C   0  0  0  0  0  0  0  0  0  0  0  0
    9.5491   -0.6380   24.1912 C   0  0  0  0  0  0  0  0  0  0  0  0
    7.5337   -6.9256   16.9519 C   0  0  0  0  0  0  0  0  0  0  0  0
    9.6782    0.5671   23.5143 C   0  0  0  0  0  0  0  0  0  0  0  0
    8.4532    0.3482   26.0821 C   0  0  0  0  0  0  0  0  0  0  0  0
   10.4239   -1.7677   22.2230 N   0  0  0  0  0  0  0  0  0  0  0  0
    9.9468   -4.5953   20.1709 C   0  0  0  0  0  0  0  0  0  0  0  0
   10.0366   -3.0590   23.9864 N   0  0  0  0  0  0  0  0  0  0  0  0
    7.1191   -7.3636   15.7739 C   0  0  0  0  0  0  0  0  0  0  0  0
    5.9612   -8.3203   17.2732 N   0  0  0  0  0  0  0  0  0  0  0  0
    8.5296   -5.9814   17.1841 C   0  0  0  0  0  0  0  0  0  0  0  0
    9.1527   -5.2118   16.2116 C   0  0  0  0  0  0  0  0  0  0  0  0
   10.3364   -3.8368   22.9255 O   0  0  0  0  0  0  0  0  0  0  0  0
    9.6947   -4.8407   18.8534 C   0  0  0  0  0  0  0  0  0  0  0  0
    9.1596    1.7042   24.1381 C   0  0  0  0  0  0  0  0  0  0  0  0
   11.0456   -2.9774   18.2694 N   0  0  0  0  0  0  0  0  0  0  0  0
   10.4788   -3.0457   21.8593 C   0  0  0  0  0  0  0  0  0  0  0  0
    8.8693   -5.8099   18.4657 N   0  0  0  0  0  0  0  0  0  0  0  0
    8.9892   -0.7926   25.4573 C   0  0  0  0  0  0  0  0  0  0  0  0
   10.5677   -3.4462   20.5323 C   0  0  0  0  0  0  0  0  0  0  0  0
  1  8  1  0
  1 12  4  0
  1 14  4  0
  2  3  4  0
  2 18  4  0
  3 20  4  0
  3 22  4  0
  4 11  4  0
  4 21  4  0
  5  9  4  0
  5 16  4  0
  6 15  4  0
  6 16  4  0
  7 22  4  0
  7 26  4  0
  8 10  4  0
  8 25  4  0
  9 15  4  0
  9 17  1  0
 10 21  4  0
 11 25  4  0
 12 23  4  0
 13 20  4  0
 13 26  4  0
 14 19  4  0
 17 18  4  0
 17 24  4  0
 19 23  4  0
 20 24  4  0
 23 26  1  0
M  END
$$$$

 Created by Python create_sdf_string function

 26 30  0  0  0  0  0  0  0  0999 V2000
   10.0084   -1.8019   23.4945 C   0  0  0  0  0  0  0  0  0  0  0  0
   10.0005   -4.2520   16.5631 C   0  0  0  0  0  0  0  0  0  0  0  0
   10.2759   -4.0036   17.8845 C   0  0  0  0  0  0  0  0  0  0  0  0
    8.5652    1.5478   25.3778 N   0  0  0  0  0  0  0  0  0  0  0  0
    6.8048   -7.5457   17.8752 C   0  0  0  0  0  0  0  0  0  0  0  0
    6.1721   -8.2186   15.9886 N   0  0  0  0  0  0  0  0  0  0  0  0
   11.1764   -2.6600   19.5604 C   0  0  0  0  0  0  0  0  0  0  0  0
    9.5491   -0.6380   24.1912 C   0  0  0  0  0  0  0  0  0  0  0  0
    7.5337   -6.9256   16.9519 C   0  0  0  0  0  0  0  0  0  0  0  0
    9.6782    0.5671   23.5143 C   0  0  0  0  0  0  0  0  0  0  0  0
    8.4532    0.3482   26.0821 C   0  0  0  0  0  0  0  0  0  0  0  0
   10.4239   -1.7677   22.2230 N   0  0  0  0  0  0  0  0  0  0  0  0
    9.9468   -4.5953   20.1709 C   0  0  0  0  0  0  0  0  0  0  0  0
   10.0366   -3.0590   23.9864 N   0  0  0  0  0  0  0  0  0  0  0  0
    7.1191   -7.3636   15.7739 C   0  0  0  0  0  0  0  0  0  0  0  0
    5.9612   -8.3203   17.2732 N   0  0  0  0  0  0  0  0  0  0  0  0
    8.5296   -5.9814   17.1841 C   0  0  0  0  0  0  0  0  0  0  0  0
    9.1527   -5.2118   16.2116 C   0  0  0  0  0  0  0  0  0  0  0  0
   10.3364   -3.8368   22.9255 O   0  0  0  0  0  0  0  0  0  0  0  0
    9.6947   -4.8407   18.8534 C   0  0  0  0  0  0  0  0  0  0  0  0
    9.1596    1.7042   24.1381 C   0  0  0  0  0  0  0  0  0  0  0  0
   11.0456   -2.9774   18.2694 N   0  0  0  0  0  0  0  0  0  0  0  0
   10.4788   -3.0457   21.8593 C   0  0  0  0  0  0  0  0  0  0  0  0
    8.8693   -5.8099   18.4657 N   0  0  0  0  0  0  0  0  0  0  0  0
    8.9892   -0.7926   25.4573 C   0  0  0  0  0  0  0  0  0  0  0  0
   10.5677   -3.4462   20.5323 C   0  0  0  0  0  0  0  0  0  0  0  0
  1  8  1  0
  1 12  4  0
  1 14  4  0
  2  3  4  0
  2 18  4  0
  3 20  4  0
  3 22  4  0
  4 11  4  0
  4 21  4  0
  5  9  4  0
  5 16  4  0
  6 15  4  0
  6 16  4  0
  7 22  4  0
  7 26  4  0
  8 10  4  0
  8 25  4  0
  9 15  4  0
  9 17  1  0
 10 21  4  0
 11 25  4  0
 12 23  4  0
 13 20  4  0
 13 26  4  0
 14 19  4  0
 17 18  4  0
 17 24  4  0
 19 23  4  0
 20 24  4  0
 23 26  1  0
M  END
$$$$

 Created by Python create_sdf_string function

 26 30  0  0  0  0  0  0  0  0999 V2000
   10.0084   -1.8019   23.4945 C   0  0  0  0  0  0  0  0  0  0  0  0
   10.0005   -4.2520   16.5631 C   0  0  0  0  0  0  0  0  0  0  0  0
   10.2759   -4.0036   17.8845 C   0  0  0  0  0  0  0  0  0  0  0  0
    8.5652    1.5478   25.3778 N   0  0  0  0  0  0  0  0  0  0  0  0
    6.8048   -7.5457   17.8752 C   0  0  0  0  0  0  0  0  0  0  0  0
    6.1721   -8.2186   15.9886 N   0  0  0  0  0  0  0  0  0  0  0  0
   11.1764   -2.6600   19.5604 C   0  0  0  0  0  0  0  0  0  0  0  0
    9.5491   -0.6380   24.1912 C   0  0  0  0  0  0  0  0  0  0  0  0
    7.5337   -6.9256   16.9519 C   0  0  0  0  0  0  0  0  0  0  0  0
    9.6782    0.5671   23.5143 C   0  0  0  0  0  0  0  0  0  0  0  0
    8.4532    0.3482   26.0821 C   0  0  0  0  0  0  0  0  0  0  0  0
   10.4239   -1.7677   22.2230 N   0  0  0  0  0  0  0  0  0  0  0  0
    9.9468   -4.5953   20.1709 C   0  0  0  0  0  0  0  0  0  0  0  0
   10.0366   -3.0590   23.9864 N   0  0  0  0  0  0  0  0  0  0  0  0
    7.1191   -7.3636   15.7739 C   0  0  0  0  0  0  0  0  0  0  0  0
    5.9612   -8.3203   17.2732 N   0  0  0  0  0  0  0  0  0  0  0  0
    8.5296   -5.9814   17.1841 C   0  0  0  0  0  0  0  0  0  0  0  0
    9.1527   -5.2118   16.2116 C   0  0  0  0  0  0  0  0  0  0  0  0
   10.3364   -3.8368   22.9255 O   0  0  0  0  0  0  0  0  0  0  0  0
    9.6947   -4.8407   18.8534 C   0  0  0  0  0  0  0  0  0  0  0  0
    9.1596    1.7042   24.1381 C   0  0  0  0  0  0  0  0  0  0  0  0
   11.0456   -2.9774   18.2694 N   0  0  0  0  0  0  0  0  0  0  0  0
   10.4788   -3.0457   21.8593 C   0  0  0  0  0  0  0  0  0  0  0  0
    8.8693   -5.8099   18.4657 N   0  0  0  0  0  0  0  0  0  0  0  0
    8.9892   -0.7926   25.4573 C   0  0  0  0  0  0  0  0  0  0  0  0
   10.5677   -3.4462   20.5323 C   0  0  0  0  0  0  0  0  0  0  0  0
  1  8  1  0
  1 12  4  0
  1 14  4  0
  2  3  4  0
  2 18  4  0
  3 20  4  0
  3 22  4  0
  4 11  4  0
  4 21  4  0
  5  9  4  0
  5 16  4  0
  6 15  4  0
  6 16  4  0
  7 22  4  0
  7 26  4  0
  8 10  4  0
  8 25  4  0
  9 15  4  0
  9 17  1  0
 10 21  4  0
 11 25  4  0
 12 23  4  0
 13 20  4  0
 13 26  4  0
 14 19  4  0
 17 18  4  0
 17 24  4  0
 19 23  4  0
 20 24  4  0
 23 26  1  0
M  END
$$$$

 Created by Python create_sdf_string function

 26 30  0  0  0  0  0  0  0  0999 V2000
   10.0084   -1.8019   23.4945 C   0  0  0  0  0  0  0  0  0  0  0  0
   10.0005   -4.2520   16.5631 C   0  0  0  0  0  0  0  0  0  0  0  0
   10.2759   -4.0036   17.8845 C   0  0  0  0  0  0  0  0  0  0  0  0
    8.5652    1.5478   25.3778 N   0  0  0  0  0  0  0  0  0  0  0  0
    6.8048   -7.5457   17.8752 C   0  0  0  0  0  0  0  0  0  0  0  0
    6.1721   -8.2186   15.9886 N   0  0  0  0  0  0  0  0  0  0  0  0
   11.1764   -2.6600   19.5604 C   0  0  0  0  0  0  0  0  0  0  0  0
    9.5491   -0.6380   24.1912 C   0  0  0  0  0  0  0  0  0  0  0  0
    7.5337   -6.9256   16.9519 C   0  0  0  0  0  0  0  0  0  0  0  0
    9.6782    0.5671   23.5143 C   0  0  0  0  0  0  0  0  0  0  0  0
    8.4532    0.3482   26.0821 C   0  0  0  0  0  0  0  0  0  0  0  0
   10.4239   -1.7677   22.2230 N   0  0  0  0  0  0  0  0  0  0  0  0
    9.9468   -4.5953   20.1709 C   0  0  0  0  0  0  0  0  0  0  0  0
   10.0366   -3.0590   23.9864 N   0  0  0  0  0  0  0  0  0  0  0  0
    7.1191   -7.3636   15.7739 C   0  0  0  0  0  0  0  0  0  0  0  0
    5.9612   -8.3203   17.2732 N   0  0  0  0  0  0  0  0  0  0  0  0
    8.5296   -5.9814   17.1841 C   0  0  0  0  0  0  0  0  0  0  0  0
    9.1527   -5.2118   16.2116 C   0  0  0  0  0  0  0  0  0  0  0  0
   10.3364   -3.8368   22.9255 O   0  0  0  0  0  0  0  0  0  0  0  0
    9.6947   -4.8407   18.8534 C   0  0  0  0  0  0  0  0  0  0  0  0
    9.1596    1.7042   24.1381 C   0  0  0  0  0  0  0  0  0  0  0  0
   11.0456   -2.9774   18.2694 N   0  0  0  0  0  0  0  0  0  0  0  0
   10.4788   -3.0457   21.8593 C   0  0  0  0  0  0  0  0  0  0  0  0
    8.8693   -5.8099   18.4657 N   0  0  0  0  0  0  0  0  0  0  0  0
    8.9892   -0.7926   25.4573 C   0  0  0  0  0  0  0  0  0  0  0  0
   10.5677   -3.4462   20.5323 C   0  0  0  0  0  0  0  0  0  0  0  0
  1  8  1  0
  1 12  4  0
  1 14  4  0
  2  3  4  0
  2 18  4  0
  3 20  4  0
  3 22  4  0
  4 11  4  0
  4 21  4  0
  5  9  4  0
  5 16  4  0
  6 15  4  0
  6 16  4  0
  7 22  4  0
  7 26  4  0
  8 10  4  0
  8 25  4  0
  9 15  4  0
  9 17  1  0
 10 21  4  0
 11 25  4  0
 12 23  4  0
 13 20  4  0
 13 26  4  0
 14 19  4  0
 17 18  4  0
 17 24  4  0
 19 23  4  0
 20 24  4  0
 23 26  1  0
M  END
$$$$

 Created by Python create_sdf_string function

 26 30  0  0  0  0  0  0  0  0999 V2000
   10.0084   -1.8019   23.4945 C   0  0  0  0  0  0  0  0  0  0  0  0
   10.0005   -4.2520   16.5631 C   0  0  0  0  0  0  0  0  0  0  0  0
   10.2759   -4.0036   17.8845 C   0  0  0  0  0  0  0  0  0  0  0  0
    8.5652    1.5478   25.3778 N   0  0  0  0  0  0  0  0  0  0  0  0
    6.8048   -7.5457   17.8752 C   0  0  0  0  0  0  0  0  0  0  0  0
    6.1721   -8.2186   15.9886 N   0  0  0  0  0  0  0  0  0  0  0  0
   11.1764   -2.6600   19.5604 C   0  0  0  0  0  0  0  0  0  0  0  0
    9.5491   -0.6380   24.1912 C   0  0  0  0  0  0  0  0  0  0  0  0
    7.5337   -6.9256   16.9519 C   0  0  0  0  0  0  0  0  0  0  0  0
    9.6782    0.5671   23.5143 C   0  0  0  0  0  0  0  0  0  0  0  0
    8.4532    0.3482   26.0821 C   0  0  0  0  0  0  0  0  0  0  0  0
   10.4239   -1.7677   22.2230 N   0  0  0  0  0  0  0  0  0  0  0  0
    9.9468   -4.5953   20.1709 C   0  0  0  0  0  0  0  0  0  0  0  0
   10.0366   -3.0590   23.9864 N   0  0  0  0  0  0  0  0  0  0  0  0
    7.1191   -7.3636   15.7739 C   0  0  0  0  0  0  0  0  0  0  0  0
    5.9612   -8.3203   17.2732 N   0  0  0  0  0  0  0  0  0  0  0  0
    8.5296   -5.9814   17.1841 C   0  0  0  0  0  0  0  0  0  0  0  0
    9.1527   -5.2118   16.2116 C   0  0  0  0  0  0  0  0  0  0  0  0
   10.3364   -3.8368   22.9255 O   0  0  0  0  0  0  0  0  0  0  0  0
    9.6947   -4.8407   18.8534 C   0  0  0  0  0  0  0  0  0  0  0  0
    9.1596    1.7042   24.1381 C   0  0  0  0  0  0  0  0  0  0  0  0
   11.0456   -2.9774   18.2694 N   0  0  0  0  0  0  0  0  0  0  0  0
   10.4788   -3.0457   21.8593 C   0  0  0  0  0  0  0  0  0  0  0  0
    8.8693   -5.8099   18.4657 N   0  0  0  0  0  0  0  0  0  0  0  0
    8.9892   -0.7926   25.4573 C   0  0  0  0  0  0  0  0  0  0  0  0
   10.5677   -3.4462   20.5323 C   0  0  0  0  0  0  0  0  0  0  0  0
  1  8  1  0
  1 12  4  0
  1 14  4  0
  2  3  4  0
  2 18  4  0
  3 20  4  0
  3 22  4  0
  4 11  4  0
  4 21  4  0
  5  9  4  0
  5 16  4  0
  6 15  4  0
  6 16  4  0
  7 22  4  0
  7 26  4  0
  8 10  4  0
  8 25  4  0
  9 15  4  0
  9 17  1  0
 10 21  4  0
 11 25  4  0
 12 23  4  0
 13 20  4  0
 13 26  4  0
 14 19  4  0
 17 18  4  0
 17 24  4  0
 19 23  4  0
 20 24  4  0
 23 26  1  0
M  END
$$$$

 Created by Python create_sdf_string function

 26 30  0  0  0  0  0  0  0  0999 V2000
   10.0084   -1.8019   23.4945 C   0  0  0  0  0  0  0  0  0  0  0  0
   10.0005   -4.2520   16.5631 C   0  0  0  0  0  0  0  0  0  0  0  0
   10.2759   -4.0036   17.8845 C   0  0  0  0  0  0  0  0  0  0  0  0
    8.5652    1.5478   25.3778 N   0  0  0  0  0  0  0  0  0  0  0  0
    6.8048   -7.5457   17.8752 C   0  0  0  0  0  0  0  0  0  0  0  0
    6.1721   -8.2186   15.9886 N   0  0  0  0  0  0  0  0  0  0  0  0
   11.1764   -2.6600   19.5604 C   0  0  0  0  0  0  0  0  0  0  0  0
    9.5491   -0.6380   24.1912 C   0  0  0  0  0  0  0  0  0  0  0  0
    7.5337   -6.9256   16.9519 C   0  0  0  0  0  0  0  0  0  0  0  0
    9.6782    0.5671   23.5143 C   0  0  0  0  0  0  0  0  0  0  0  0
    8.4532    0.3482   26.0821 C   0  0  0  0  0  0  0  0  0  0  0  0
   10.4239   -1.7677   22.2230 N   0  0  0  0  0  0  0  0  0  0  0  0
    9.9468   -4.5953   20.1709 C   0  0  0  0  0  0  0  0  0  0  0  0
   10.0366   -3.0590   23.9864 N   0  0  0  0  0  0  0  0  0  0  0  0
    7.1191   -7.3636   15.7739 C   0  0  0  0  0  0  0  0  0  0  0  0
    5.9612   -8.3203   17.2732 N   0  0  0  0  0  0  0  0  0  0  0  0
    8.5296   -5.9814   17.1841 C   0  0  0  0  0  0  0  0  0  0  0  0
    9.1527   -5.2118   16.2116 C   0  0  0  0  0  0  0  0  0  0  0  0
   10.3364   -3.8368   22.9255 O   0  0  0  0  0  0  0  0  0  0  0  0
    9.6947   -4.8407   18.8534 C   0  0  0  0  0  0  0  0  0  0  0  0
    9.1596    1.7042   24.1381 C   0  0  0  0  0  0  0  0  0  0  0  0
   11.0456   -2.9774   18.2694 N   0  0  0  0  0  0  0  0  0  0  0  0
   10.4788   -3.0457   21.8593 C   0  0  0  0  0  0  0  0  0  0  0  0
    8.8693   -5.8099   18.4657 N   0  0  0  0  0  0  0  0  0  0  0  0
    8.9892   -0.7926   25.4573 C   0  0  0  0  0  0  0  0  0  0  0  0
   10.5677   -3.4462   20.5323 C   0  0  0  0  0  0  0  0  0  0  0  0
  1  8  1  0
  1 12  4  0
  1 14  4  0
  2  3  4  0
  2 18  4  0
  3 20  4  0
  3 22  4  0
  4 11  4  0
  4 21  4  0
  5  9  4  0
  5 16  4  0
  6 15  4  0
  6 16  4  0
  7 22  4  0
  7 26  4  0
  8 10  4  0
  8 25  4  0
  9 15  4  0
  9 17  1  0
 10 21  4  0
 11 25  4  0
 12 23  4  0
 13 20  4  0
 13 26  4  0
 14 19  4  0
 17 18  4  0
 17 24  4  0
 19 23  4  0
 20 24  4  0
 23 26  1  0
M  END
$$$$

 Created by Python create_sdf_string function

 26 30  0  0  0  0  0  0  0  0999 V2000
   10.0084   -1.8019   23.4945 C   0  0  0  0  0  0  0  0  0  0  0  0
   10.0005   -4.2520   16.5631 C   0  0  0  0  0  0  0  0  0  0  0  0
   10.2759   -4.0036   17.8845 C   0  0  0  0  0  0  0  0  0  0  0  0
    8.5652    1.5478   25.3778 N   0  0  0  0  0  0  0  0  0  0  0  0
    6.8048   -7.5457   17.8752 C   0  0  0  0  0  0  0  0  0  0  0  0
    6.1721   -8.2186   15.9886 N   0  0  0  0  0  0  0  0  0  0  0  0
   11.1764   -2.6600   19.5604 C   0  0  0  0  0  0  0  0  0  0  0  0
    9.5491   -0.6380   24.1912 C   0  0  0  0  0  0  0  0  0  0  0  0
    7.5337   -6.9256   16.9519 C   0  0  0  0  0  0  0  0  0  0  0  0
    9.6782    0.5671   23.5143 C   0  0  0  0  0  0  0  0  0  0  0  0
    8.4532    0.3482   26.0821 C   0  0  0  0  0  0  0  0  0  0  0  0
   10.4239   -1.7677   22.2230 N   0  0  0  0  0  0  0  0  0  0  0  0
    9.9468   -4.5953   20.1709 C   0  0  0  0  0  0  0  0  0  0  0  0
   10.0366   -3.0590   23.9864 N   0  0  0  0  0  0  0  0  0  0  0  0
    7.1191   -7.3636   15.7739 C   0  0  0  0  0  0  0  0  0  0  0  0
    5.9612   -8.3203   17.2732 N   0  0  0  0  0  0  0  0  0  0  0  0
    8.5296   -5.9814   17.1841 C   0  0  0  0  0  0  0  0  0  0  0  0
    9.1527   -5.2118   16.2116 C   0  0  0  0  0  0  0  0  0  0  0  0
   10.3364   -3.8368   22.9255 O   0  0  0  0  0  0  0  0  0  0  0  0
    9.6947   -4.8407   18.8534 C   0  0  0  0  0  0  0  0  0  0  0  0
    9.1596    1.7042   24.1381 C   0  0  0  0  0  0  0  0  0  0  0  0
   11.0456   -2.9774   18.2694 N   0  0  0  0  0  0  0  0  0  0  0  0
   10.4788   -3.0457   21.8593 C   0  0  0  0  0  0  0  0  0  0  0  0
    8.8693   -5.8099   18.4657 N   0  0  0  0  0  0  0  0  0  0  0  0
    8.9892   -0.7926   25.4573 C   0  0  0  0  0  0  0  0  0  0  0  0
   10.5677   -3.4462   20.5323 C   0  0  0  0  0  0  0  0  0  0  0  0
  1  8  1  0
  1 12  4  0
  1 14  4  0
  2  3  4  0
  2 18  4  0
  3 20  4  0
  3 22  4  0
  4 11  4  0
  4 21  4  0
  5  9  4  0
  5 16  4  0
  6 15  4  0
  6 16  4  0
  7 22  4  0
  7 26  4  0
  8 10  4  0
  8 25  4  0
  9 15  4  0
  9 17  1  0
 10 21  4  0
 11 25  4  0
 12 23  4  0
 13 20  4  0
 13 26  4  0
 14 19  4  0
 17 18  4  0
 17 24  4  0
 19 23  4  0
 20 24  4  0
 23 26  1  0
M  END
$$$$

 Created by Python create_sdf_string function

 26 30  0  0  0  0  0  0  0  0999 V2000
   10.0084   -1.8019   23.4945 C   0  0  0  0  0  0  0  0  0  0  0  0
   10.0005   -4.2520   16.5631 C   0  0  0  0  0  0  0  0  0  0  0  0
   10.2759   -4.0036   17.8845 C   0  0  0  0  0  0  0  0  0  0  0  0
    8.5652    1.5478   25.3778 N   0  0  0  0  0  0  0  0  0  0  0  0
    6.8048   -7.5457   17.8752 C   0  0  0  0  0  0  0  0  0  0  0  0
    6.1721   -8.2186   15.9886 N   0  0  0  0  0  0  0  0  0  0  0  0
   11.1764   -2.6600   19.5604 C   0  0  0  0  0  0  0  0  0  0  0  0
    9.5491   -0.6380   24.1912 C   0  0  0  0  0  0  0  0  0  0  0  0
    7.5337   -6.9256   16.9519 C   0  0  0  0  0  0  0  0  0  0  0  0
    9.6782    0.5671   23.5143 C   0  0  0  0  0  0  0  0  0  0  0  0
    8.4532    0.3482   26.0821 C   0  0  0  0  0  0  0  0  0  0  0  0
   10.4239   -1.7677   22.2230 N   0  0  0  0  0  0  0  0  0  0  0  0
    9.9468   -4.5953   20.1709 C   0  0  0  0  0  0  0  0  0  0  0  0
   10.0366   -3.0590   23.9864 N   0  0  0  0  0  0  0  0  0  0  0  0
    7.1191   -7.3636   15.7739 C   0  0  0  0  0  0  0  0  0  0  0  0
    5.9612   -8.3203   17.2732 N   0  0  0  0  0  0  0  0  0  0  0  0
    8.5296   -5.9814   17.1841 C   0  0  0  0  0  0  0  0  0  0  0  0
    9.1527   -5.2118   16.2116 C   0  0  0  0  0  0  0  0  0  0  0  0
   10.3364   -3.8368   22.9255 O   0  0  0  0  0  0  0  0  0  0  0  0
    9.6947   -4.8407   18.8534 C   0  0  0  0  0  0  0  0  0  0  0  0
    9.1596    1.7042   24.1381 C   0  0  0  0  0  0  0  0  0  0  0  0
   11.0456   -2.9774   18.2694 N   0  0  0  0  0  0  0  0  0  0  0  0
   10.4788   -3.0457   21.8593 C   0  0  0  0  0  0  0  0  0  0  0  0
    8.8693   -5.8099   18.4657 N   0  0  0  0  0  0  0  0  0  0  0  0
    8.9892   -0.7926   25.4573 C   0  0  0  0  0  0  0  0  0  0  0  0
   10.5677   -3.4462   20.5323 C   0  0  0  0  0  0  0  0  0  0  0  0
  1  8  1  0
  1 12  4  0
  1 14  4  0
  2  3  4  0
  2 18  4  0
  3 20  4  0
  3 22  4  0
  4 11  4  0
  4 21  4  0
  5  9  4  0
  5 16  4  0
  6 15  4  0
  6 16  4  0
  7 22  4  0
  7 26  4  0
  8 10  4  0
  8 25  4  0
  9 15  4  0
  9 17  1  0
 10 21  4  0
 11 25  4  0
 12 23  4  0
 13 20  4  0
 13 26  4  0
 14 19  4  0
 17 18  4  0
 17 24  4  0
 19 23  4  0
 20 24  4  0
 23 26  1  0
M  END
$$$$

 Created by Python create_sdf_string function

 26 30  0  0  0  0  0  0  0  0999 V2000
   10.0084   -1.8019   23.4945 C   0  0  0  0  0  0  0  0  0  0  0  0
   10.0005   -4.2520   16.5631 C   0  0  0  0  0  0  0  0  0  0  0  0
   10.2759   -4.0036   17.8845 C   0  0  0  0  0  0  0  0  0  0  0  0
    8.5652    1.5478   25.3778 N   0  0  0  0  0  0  0  0  0  0  0  0
    6.8048   -7.5457   17.8752 C   0  0  0  0  0  0  0  0  0  0  0  0
    6.1721   -8.2186   15.9886 N   0  0  0  0  0  0  0  0  0  0  0  0
   11.1764   -2.6600   19.5604 C   0  0  0  0  0  0  0  0  0  0  0  0
    9.5491   -0.6380   24.1912 C   0  0  0  0  0  0  0  0  0  0  0  0
    7.5337   -6.9256   16.9519 C   0  0  0  0  0  0  0  0  0  0  0  0
    9.6782    0.5671   23.5143 C   0  0  0  0  0  0  0  0  0  0  0  0
    8.4532    0.3482   26.0821 C   0  0  0  0  0  0  0  0  0  0  0  0
   10.4239   -1.7677   22.2230 N   0  0  0  0  0  0  0  0  0  0  0  0
    9.9468   -4.5953   20.1709 C   0  0  0  0  0  0  0  0  0  0  0  0
   10.0366   -3.0590   23.9864 N   0  0  0  0  0  0  0  0  0  0  0  0
    7.1191   -7.3636   15.7739 C   0  0  0  0  0  0  0  0  0  0  0  0
    5.9612   -8.3203   17.2732 N   0  0  0  0  0  0  0  0  0  0  0  0
    8.5296   -5.9814   17.1841 C   0  0  0  0  0  0  0  0  0  0  0  0
    9.1527   -5.2118   16.2116 C   0  0  0  0  0  0  0  0  0  0  0  0
   10.3364   -3.8368   22.9255 O   0  0  0  0  0  0  0  0  0  0  0  0
    9.6947   -4.8407   18.8534 C   0  0  0  0  0  0  0  0  0  0  0  0
    9.1596    1.7042   24.1381 C   0  0  0  0  0  0  0  0  0  0  0  0
   11.0456   -2.9774   18.2694 N   0  0  0  0  0  0  0  0  0  0  0  0
   10.4788   -3.0457   21.8593 C   0  0  0  0  0  0  0  0  0  0  0  0
    8.8693   -5.8099   18.4657 N   0  0  0  0  0  0  0  0  0  0  0  0
    8.9892   -0.7926   25.4573 C   0  0  0  0  0  0  0  0  0  0  0  0
   10.5677   -3.4462   20.5323 C   0  0  0  0  0  0  0  0  0  0  0  0
  1  8  1  0
  1 12  4  0
  1 14  4  0
  2  3  4  0
  2 18  4  0
  3 20  4  0
  3 22  4  0
  4 11  4  0
  4 21  4  0
  5  9  4  0
  5 16  4  0
  6 15  4  0
  6 16  4  0
  7 22  4  0
  7 26  4  0
  8 10  4  0
  8 25  4  0
  9 15  4  0
  9 17  1  0
 10 21  4  0
 11 25  4  0
 12 23  4  0
 13 20  4  0
 13 26  4  0
 14 19  4  0
 17 18  4  0
 17 24  4  0
 19 23  4  0
 20 24  4  0
 23 26  1  0
M  END
$$$$

 Created by Python create_sdf_string function

 26 30  0  0  0  0  0  0  0  0999 V2000
   10.0084   -1.8019   23.4945 C   0  0  0  0  0  0  0  0  0  0  0  0
   10.0005   -4.2520   16.5631 C   0  0  0  0  0  0  0  0  0  0  0  0
   10.2759   -4.0036   17.8845 C   0  0  0  0  0  0  0  0  0  0  0  0
    8.5652    1.5478   25.3778 N   0  0  0  0  0  0  0  0  0  0  0  0
    6.8048   -7.5457   17.8752 C   0  0  0  0  0  0  0  0  0  0  0  0
    6.1721   -8.2186   15.9886 N   0  0  0  0  0  0  0  0  0  0  0  0
   11.1764   -2.6600   19.5604 C   0  0  0  0  0  0  0  0  0  0  0  0
    9.5491   -0.6380   24.1912 C   0  0  0  0  0  0  0  0  0  0  0  0
    7.5337   -6.9256   16.9519 C   0  0  0  0  0  0  0  0  0  0  0  0
    9.6782    0.5671   23.5143 C   0  0  0  0  0  0  0  0  0  0  0  0
    8.4532    0.3482   26.0821 C   0  0  0  0  0  0  0  0  0  0  0  0
   10.4239   -1.7677   22.2230 N   0  0  0  0  0  0  0  0  0  0  0  0
    9.9468   -4.5953   20.1709 C   0  0  0  0  0  0  0  0  0  0  0  0
   10.0366   -3.0590   23.9864 N   0  0  0  0  0  0  0  0  0  0  0  0
    7.1191   -7.3636   15.7739 C   0  0  0  0  0  0  0  0  0  0  0  0
    5.9612   -8.3203   17.2732 N   0  0  0  0  0  0  0  0  0  0  0  0
    8.5296   -5.9814   17.1841 C   0  0  0  0  0  0  0  0  0  0  0  0
    9.1527   -5.2118   16.2116 C   0  0  0  0  0  0  0  0  0  0  0  0
   10.3364   -3.8368   22.9255 O   0  0  0  0  0  0  0  0  0  0  0  0
    9.6947   -4.8407   18.8534 C   0  0  0  0  0  0  0  0  0  0  0  0
    9.1596    1.7042   24.1381 C   0  0  0  0  0  0  0  0  0  0  0  0
   11.0456   -2.9774   18.2694 N   0  0  0  0  0  0  0  0  0  0  0  0
   10.4788   -3.0457   21.8593 C   0  0  0  0  0  0  0  0  0  0  0  0
    8.8693   -5.8099   18.4657 N   0  0  0  0  0  0  0  0  0  0  0  0
    8.9892   -0.7926   25.4573 C   0  0  0  0  0  0  0  0  0  0  0  0
   10.5677   -3.4462   20.5323 C   0  0  0  0  0  0  0  0  0  0  0  0
  1  8  1  0
  1 12  4  0
  1 14  4  0
  2  3  4  0
  2 18  4  0
  3 20  4  0
  3 22  4  0
  4 11  4  0
  4 21  4  0
  5  9  4  0
  5 16  4  0
  6 15  4  0
  6 16  4  0
  7 22  4  0
  7 26  4  0
  8 10  4  0
  8 25  4  0
  9 15  4  0
  9 17  1  0
 10 21  4  0
 11 25  4  0
 12 23  4  0
 13 20  4  0
 13 26  4  0
 14 19  4  0
 17 18  4  0
 17 24  4  0
 19 23  4  0
 20 24  4  0
 23 26  1  0
M  END
$$$$

 Created by Python create_sdf_string function

 26 30  0  0  0  0  0  0  0  0999 V2000
   10.0084   -1.8019   23.4945 C   0  0  0  0  0  0  0  0  0  0  0  0
   10.0005   -4.2520   16.5631 C   0  0  0  0  0  0  0  0  0  0  0  0
   10.2759   -4.0036   17.8845 C   0  0  0  0  0  0  0  0  0  0  0  0
    8.5652    1.5478   25.3778 N   0  0  0  0  0  0  0  0  0  0  0  0
    6.8048   -7.5457   17.8752 C   0  0  0  0  0  0  0  0  0  0  0  0
    6.1721   -8.2186   15.9886 N   0  0  0  0  0  0  0  0  0  0  0  0
   11.1764   -2.6600   19.5604 C   0  0  0  0  0  0  0  0  0  0  0  0
    9.5491   -0.6380   24.1912 C   0  0  0  0  0  0  0  0  0  0  0  0
    7.5337   -6.9256   16.9519 C   0  0  0  0  0  0  0  0  0  0  0  0
    9.6782    0.5671   23.5143 C   0  0  0  0  0  0  0  0  0  0  0  0
    8.4532    0.3482   26.0821 C   0  0  0  0  0  0  0  0  0  0  0  0
   10.4239   -1.7677   22.2230 N   0  0  0  0  0  0  0  0  0  0  0  0
    9.9468   -4.5953   20.1709 C   0  0  0  0  0  0  0  0  0  0  0  0
   10.0366   -3.0590   23.9864 N   0  0  0  0  0  0  0  0  0  0  0  0
    7.1191   -7.3636   15.7739 C   0  0  0  0  0  0  0  0  0  0  0  0
    5.9612   -8.3203   17.2732 N   0  0  0  0  0  0  0  0  0  0  0  0
    8.5296   -5.9814   17.1841 C   0  0  0  0  0  0  0  0  0  0  0  0
    9.1527   -5.2118   16.2116 C   0  0  0  0  0  0  0  0  0  0  0  0
   10.3364   -3.8368   22.9255 O   0  0  0  0  0  0  0  0  0  0  0  0
    9.6947   -4.8407   18.8534 C   0  0  0  0  0  0  0  0  0  0  0  0
    9.1596    1.7042   24.1381 C   0  0  0  0  0  0  0  0  0  0  0  0
   11.0456   -2.9774   18.2694 N   0  0  0  0  0  0  0  0  0  0  0  0
   10.4788   -3.0457   21.8593 C   0  0  0  0  0  0  0  0  0  0  0  0
    8.8693   -5.8099   18.4657 N   0  0  0  0  0  0  0  0  0  0  0  0
    8.9892   -0.7926   25.4573 C   0  0  0  0  0  0  0  0  0  0  0  0
   10.5677   -3.4462   20.5323 C   0  0  0  0  0  0  0  0  0  0  0  0
  1  8  1  0
  1 12  4  0
  1 14  4  0
  2  3  4  0
  2 18  4  0
  3 20  4  0
  3 22  4  0
  4 11  4  0
  4 21  4  0
  5  9  4  0
  5 16  4  0
  6 15  4  0
  6 16  4  0
  7 22  4  0
  7 26  4  0
  8 10  4  0
  8 25  4  0
  9 15  4  0
  9 17  1  0
 10 21  4  0
 11 25  4  0
 12 23  4  0
 13 20  4  0
 13 26  4  0
 14 19  4  0
 17 18  4  0
 17 24  4  0
 19 23  4  0
 20 24  4  0
 23 26  1  0
M  END
$$$$

 Created by Python create_sdf_string function

 26 30  0  0  0  0  0  0  0  0999 V2000
   10.0084   -1.8019   23.4945 C   0  0  0  0  0  0  0  0  0  0  0  0
   10.0005   -4.2520   16.5631 C   0  0  0  0  0  0  0  0  0  0  0  0
   10.2759   -4.0036   17.8845 C   0  0  0  0  0  0  0  0  0  0  0  0
    8.5652    1.5478   25.3778 N   0  0  0  0  0  0  0  0  0  0  0  0
    6.8048   -7.5457   17.8752 C   0  0  0  0  0  0  0  0  0  0  0  0
    6.1721   -8.2186   15.9886 N   0  0  0  0  0  0  0  0  0  0  0  0
   11.1764   -2.6600   19.5604 C   0  0  0  0  0  0  0  0  0  0  0  0
    9.5491   -0.6380   24.1912 C   0  0  0  0  0  0  0  0  0  0  0  0
    7.5337   -6.9256   16.9519 C   0  0  0  0  0  0  0  0  0  0  0  0
    9.6782    0.5671   23.5143 C   0  0  0  0  0  0  0  0  0  0  0  0
    8.4532    0.3482   26.0821 C   0  0  0  0  0  0  0  0  0  0  0  0
   10.4239   -1.7677   22.2230 N   0  0  0  0  0  0  0  0  0  0  0  0
    9.9468   -4.5953   20.1709 C   0  0  0  0  0  0  0  0  0  0  0  0
   10.0366   -3.0590   23.9864 N   0  0  0  0  0  0  0  0  0  0  0  0
    7.1191   -7.3636   15.7739 C   0  0  0  0  0  0  0  0  0  0  0  0
    5.9612   -8.3203   17.2732 N   0  0  0  0  0  0  0  0  0  0  0  0
    8.5296   -5.9814   17.1841 C   0  0  0  0  0  0  0  0  0  0  0  0
    9.1527   -5.2118   16.2116 C   0  0  0  0  0  0  0  0  0  0  0  0
   10.3364   -3.8368   22.9255 O   0  0  0  0  0  0  0  0  0  0  0  0
    9.6947   -4.8407   18.8534 C   0  0  0  0  0  0  0  0  0  0  0  0
    9.1596    1.7042   24.1381 C   0  0  0  0  0  0  0  0  0  0  0  0
   11.0456   -2.9774   18.2694 N   0  0  0  0  0  0  0  0  0  0  0  0
   10.4788   -3.0457   21.8593 C   0  0  0  0  0  0  0  0  0  0  0  0
    8.8693   -5.8099   18.4657 N   0  0  0  0  0  0  0  0  0  0  0  0
    8.9892   -0.7926   25.4573 C   0  0  0  0  0  0  0  0  0  0  0  0
   10.5677   -3.4462   20.5323 C   0  0  0  0  0  0  0  0  0  0  0  0
  1  8  1  0
  1 12  4  0
  1 14  4  0
  2  3  4  0
  2 18  4  0
  3 20  4  0
  3 22  4  0
  4 11  4  0
  4 21  4  0
  5  9  4  0
  5 16  4  0
  6 15  4  0
  6 16  4  0
  7 22  4  0
  7 26  4  0
  8 10  4  0
  8 25  4  0
  9 15  4  0
  9 17  1  0
 10 21  4  0
 11 25  4  0
 12 23  4  0
 13 20  4  0
 13 26  4  0
 14 19  4  0
 17 18  4  0
 17 24  4  0
 19 23  4  0
 20 24  4  0
 23 26  1  0
M  END
$$$$

 Created by Python create_sdf_string function

 26 30  0  0  0  0  0  0  0  0999 V2000
   10.0084   -1.8019   23.4945 C   0  0  0  0  0  0  0  0  0  0  0  0
   10.0005   -4.2520   16.5631 C   0  0  0  0  0  0  0  0  0  0  0  0
   10.2759   -4.0036   17.8845 C   0  0  0  0  0  0  0  0  0  0  0  0
    8.5652    1.5478   25.3778 N   0  0  0  0  0  0  0  0  0  0  0  0
    6.8048   -7.5457   17.8752 C   0  0  0  0  0  0  0  0  0  0  0  0
    6.1721   -8.2186   15.9886 N   0  0  0  0  0  0  0  0  0  0  0  0
   11.1764   -2.6600   19.5604 C   0  0  0  0  0  0  0  0  0  0  0  0
    9.5491   -0.6380   24.1912 C   0  0  0  0  0  0  0  0  0  0  0  0
    7.5337   -6.9256   16.9519 C   0  0  0  0  0  0  0  0  0  0  0  0
    9.6782    0.5671   23.5143 C   0  0  0  0  0  0  0  0  0  0  0  0
    8.4532    0.3482   26.0821 C   0  0  0  0  0  0  0  0  0  0  0  0
   10.4239   -1.7677   22.2230 N   0  0  0  0  0  0  0  0  0  0  0  0
    9.9468   -4.5953   20.1709 C   0  0  0  0  0  0  0  0  0  0  0  0
   10.0366   -3.0590   23.9864 N   0  0  0  0  0  0  0  0  0  0  0  0
    7.1191   -7.3636   15.7739 C   0  0  0  0  0  0  0  0  0  0  0  0
    5.9612   -8.3203   17.2732 N   0  0  0  0  0  0  0  0  0  0  0  0
    8.5296   -5.9814   17.1841 C   0  0  0  0  0  0  0  0  0  0  0  0
    9.1527   -5.2118   16.2116 C   0  0  0  0  0  0  0  0  0  0  0  0
   10.3364   -3.8368   22.9255 O   0  0  0  0  0  0  0  0  0  0  0  0
    9.6947   -4.8407   18.8534 C   0  0  0  0  0  0  0  0  0  0  0  0
    9.1596    1.7042   24.1381 C   0  0  0  0  0  0  0  0  0  0  0  0
   11.0456   -2.9774   18.2694 N   0  0  0  0  0  0  0  0  0  0  0  0
   10.4788   -3.0457   21.8593 C   0  0  0  0  0  0  0  0  0  0  0  0
    8.8693   -5.8099   18.4657 N   0  0  0  0  0  0  0  0  0  0  0  0
    8.9892   -0.7926   25.4573 C   0  0  0  0  0  0  0  0  0  0  0  0
   10.5677   -3.4462   20.5323 C   0  0  0  0  0  0  0  0  0  0  0  0
  1  8  1  0
  1 12  4  0
  1 14  4  0
  2  3  4  0
  2 18  4  0
  3 20  4  0
  3 22  4  0
  4 11  4  0
  4 21  4  0
  5  9  4  0
  5 16  4  0
  6 15  4  0
  6 16  4  0
  7 22  4  0
  7 26  4  0
  8 10  4  0
  8 25  4  0
  9 15  4  0
  9 17  1  0
 10 21  4  0
 11 25  4  0
 12 23  4  0
 13 20  4  0
 13 26  4  0
 14 19  4  0
 17 18  4  0
 17 24  4  0
 19 23  4  0
 20 24  4  0
 23 26  1  0
M  END
$$$$

 Created by Python create_sdf_string function

 26 30  0  0  0  0  0  0  0  0999 V2000
   10.0084   -1.8019   23.4945 C   0  0  0  0  0  0  0  0  0  0  0  0
   10.0005   -4.2520   16.5631 C   0  0  0  0  0  0  0  0  0  0  0  0
   10.2759   -4.0036   17.8845 C   0  0  0  0  0  0  0  0  0  0  0  0
    8.5652    1.5478   25.3778 N   0  0  0  0  0  0  0  0  0  0  0  0
    6.8048   -7.5457   17.8752 C   0  0  0  0  0  0  0  0  0  0  0  0
    6.1721   -8.2186   15.9886 N   0  0  0  0  0  0  0  0  0  0  0  0
   11.1764   -2.6600   19.5604 C   0  0  0  0  0  0  0  0  0  0  0  0
    9.5491   -0.6380   24.1912 C   0  0  0  0  0  0  0  0  0  0  0  0
    7.5337   -6.9256   16.9519 C   0  0  0  0  0  0  0  0  0  0  0  0
    9.6782    0.5671   23.5143 C   0  0  0  0  0  0  0  0  0  0  0  0
    8.4532    0.3482   26.0821 C   0  0  0  0  0  0  0  0  0  0  0  0
   10.4239   -1.7677   22.2230 N   0  0  0  0  0  0  0  0  0  0  0  0
    9.9468   -4.5953   20.1709 C   0  0  0  0  0  0  0  0  0  0  0  0
   10.0366   -3.0590   23.9864 N   0  0  0  0  0  0  0  0  0  0  0  0
    7.1191   -7.3636   15.7739 C   0  0  0  0  0  0  0  0  0  0  0  0
    5.9612   -8.3203   17.2732 N   0  0  0  0  0  0  0  0  0  0  0  0
    8.5296   -5.9814   17.1841 C   0  0  0  0  0  0  0  0  0  0  0  0
    9.1527   -5.2118   16.2116 C   0  0  0  0  0  0  0  0  0  0  0  0
   10.3364   -3.8368   22.9255 O   0  0  0  0  0  0  0  0  0  0  0  0
    9.6947   -4.8407   18.8534 C   0  0  0  0  0  0  0  0  0  0  0  0
    9.1596    1.7042   24.1381 C   0  0  0  0  0  0  0  0  0  0  0  0
   11.0456   -2.9774   18.2694 N   0  0  0  0  0  0  0  0  0  0  0  0
   10.4788   -3.0457   21.8593 C   0  0  0  0  0  0  0  0  0  0  0  0
    8.8693   -5.8099   18.4657 N   0  0  0  0  0  0  0  0  0  0  0  0
    8.9892   -0.7926   25.4573 C   0  0  0  0  0  0  0  0  0  0  0  0
   10.5677   -3.4462   20.5323 C   0  0  0  0  0  0  0  0  0  0  0  0
  1  8  1  0
  1 12  4  0
  1 14  4  0
  2  3  4  0
  2 18  4  0
  3 20  4  0
  3 22  4  0
  4 11  4  0
  4 21  4  0
  5  9  4  0
  5 16  4  0
  6 15  4  0
  6 16  4  0
  7 22  4  0
  7 26  4  0
  8 10  4  0
  8 25  4  0
  9 15  4  0
  9 17  1  0
 10 21  4  0
 11 25  4  0
 12 23  4  0
 13 20  4  0
 13 26  4  0
 14 19  4  0
 17 18  4  0
 17 24  4  0
 19 23  4  0
 20 24  4  0
 23 26  1  0
M  END
$$$$

 Created by Python create_sdf_string function

 26 30  0  0  0  0  0  0  0  0999 V2000
   10.0084   -1.8019   23.4945 C   0  0  0  0  0  0  0  0  0  0  0  0
   10.0005   -4.2520   16.5631 C   0  0  0  0  0  0  0  0  0  0  0  0
   10.2759   -4.0036   17.8845 C   0  0  0  0  0  0  0  0  0  0  0  0
    8.5652    1.5478   25.3778 N   0  0  0  0  0  0  0  0  0  0  0  0
    6.8048   -7.5457   17.8752 C   0  0  0  0  0  0  0  0  0  0  0  0
    6.1721   -8.2186   15.9886 N   0  0  0  0  0  0  0  0  0  0  0  0
   11.1764   -2.6600   19.5604 C   0  0  0  0  0  0  0  0  0  0  0  0
    9.5491   -0.6380   24.1912 C   0  0  0  0  0  0  0  0  0  0  0  0
    7.5337   -6.9256   16.9519 C   0  0  0  0  0  0  0  0  0  0  0  0
    9.6782    0.5671   23.5143 C   0  0  0  0  0  0  0  0  0  0  0  0
    8.4532    0.3482   26.0821 C   0  0  0  0  0  0  0  0  0  0  0  0
   10.4239   -1.7677   22.2230 N   0  0  0  0  0  0  0  0  0  0  0  0
    9.9468   -4.5953   20.1709 C   0  0  0  0  0  0  0  0  0  0  0  0
   10.0366   -3.0590   23.9864 N   0  0  0  0  0  0  0  0  0  0  0  0
    7.1191   -7.3636   15.7739 C   0  0  0  0  0  0  0  0  0  0  0  0
    5.9612   -8.3203   17.2732 N   0  0  0  0  0  0  0  0  0  0  0  0
    8.5296   -5.9814   17.1841 C   0  0  0  0  0  0  0  0  0  0  0  0
    9.1527   -5.2118   16.2116 C   0  0  0  0  0  0  0  0  0  0  0  0
   10.3364   -3.8368   22.9255 O   0  0  0  0  0  0  0  0  0  0  0  0
    9.6947   -4.8407   18.8534 C   0  0  0  0  0  0  0  0  0  0  0  0
    9.1596    1.7042   24.1381 C   0  0  0  0  0  0  0  0  0  0  0  0
   11.0456   -2.9774   18.2694 N   0  0  0  0  0  0  0  0  0  0  0  0
   10.4788   -3.0457   21.8593 C   0  0  0  0  0  0  0  0  0  0  0  0
    8.8693   -5.8099   18.4657 N   0  0  0  0  0  0  0  0  0  0  0  0
    8.9892   -0.7926   25.4573 C   0  0  0  0  0  0  0  0  0  0  0  0
   10.5677   -3.4462   20.5323 C   0  0  0  0  0  0  0  0  0  0  0  0
  1  8  1  0
  1 12  4  0
  1 14  4  0
  2  3  4  0
  2 18  4  0
  3 20  4  0
  3 22  4  0
  4 11  4  0
  4 21  4  0
  5  9  4  0
  5 16  4  0
  6 15  4  0
  6 16  4  0
  7 22  4  0
  7 26  4  0
  8 10  4  0
  8 25  4  0
  9 15  4  0
  9 17  1  0
 10 21  4  0
 11 25  4  0
 12 23  4  0
 13 20  4  0
 13 26  4  0
 14 19  4  0
 17 18  4  0
 17 24  4  0
 19 23  4  0
 20 24  4  0
 23 26  1  0
M  END
$$$$

 Created by Python create_sdf_string function

 26 30  0  0  0  0  0  0  0  0999 V2000
   10.0084   -1.8019   23.4945 C   0  0  0  0  0  0  0  0  0  0  0  0
   10.0005   -4.2520   16.5631 C   0  0  0  0  0  0  0  0  0  0  0  0
   10.2759   -4.0036   17.8845 C   0  0  0  0  0  0  0  0  0  0  0  0
    8.5652    1.5478   25.3778 N   0  0  0  0  0  0  0  0  0  0  0  0
    6.8048   -7.5457   17.8752 C   0  0  0  0  0  0  0  0  0  0  0  0
    6.1721   -8.2186   15.9886 N   0  0  0  0  0  0  0  0  0  0  0  0
   11.1764   -2.6600   19.5604 C   0  0  0  0  0  0  0  0  0  0  0  0
    9.5491   -0.6380   24.1912 C   0  0  0  0  0  0  0  0  0  0  0  0
    7.5337   -6.9256   16.9519 C   0  0  0  0  0  0  0  0  0  0  0  0
    9.6782    0.5671   23.5143 C   0  0  0  0  0  0  0  0  0  0  0  0
    8.4532    0.3482   26.0821 C   0  0  0  0  0  0  0  0  0  0  0  0
   10.4239   -1.7677   22.2230 N   0  0  0  0  0  0  0  0  0  0  0  0
    9.9468   -4.5953   20.1709 C   0  0  0  0  0  0  0  0  0  0  0  0
   10.0366   -3.0590   23.9864 N   0  0  0  0  0  0  0  0  0  0  0  0
    7.1191   -7.3636   15.7739 C   0  0  0  0  0  0  0  0  0  0  0  0
    5.9612   -8.3203   17.2732 N   0  0  0  0  0  0  0  0  0  0  0  0
    8.5296   -5.9814   17.1841 C   0  0  0  0  0  0  0  0  0  0  0  0
    9.1527   -5.2118   16.2116 C   0  0  0  0  0  0  0  0  0  0  0  0
   10.3364   -3.8368   22.9255 O   0  0  0  0  0  0  0  0  0  0  0  0
    9.6947   -4.8407   18.8534 C   0  0  0  0  0  0  0  0  0  0  0  0
    9.1596    1.7042   24.1381 C   0  0  0  0  0  0  0  0  0  0  0  0
   11.0456   -2.9774   18.2694 N   0  0  0  0  0  0  0  0  0  0  0  0
   10.4788   -3.0457   21.8593 C   0  0  0  0  0  0  0  0  0  0  0  0
    8.8693   -5.8099   18.4657 N   0  0  0  0  0  0  0  0  0  0  0  0
    8.9892   -0.7926   25.4573 C   0  0  0  0  0  0  0  0  0  0  0  0
   10.5677   -3.4462   20.5323 C   0  0  0  0  0  0  0  0  0  0  0  0
  1  8  1  0
  1 12  4  0
  1 14  4  0
  2  3  4  0
  2 18  4  0
  3 20  4  0
  3 22  4  0
  4 11  4  0
  4 21  4  0
  5  9  4  0
  5 16  4  0
  6 15  4  0
  6 16  4  0
  7 22  4  0
  7 26  4  0
  8 10  4  0
  8 25  4  0
  9 15  4  0
  9 17  1  0
 10 21  4  0
 11 25  4  0
 12 23  4  0
 13 20  4  0
 13 26  4  0
 14 19  4  0
 17 18  4  0
 17 24  4  0
 19 23  4  0
 20 24  4  0
 23 26  1  0
M  END
$$$$

 Created by Python create_sdf_string function

 26 30  0  0  0  0  0  0  0  0999 V2000
   10.0084   -1.8019   23.4945 C   0  0  0  0  0  0  0  0  0  0  0  0
   10.0005   -4.2520   16.5631 C   0  0  0  0  0  0  0  0  0  0  0  0
   10.2759   -4.0036   17.8845 C   0  0  0  0  0  0  0  0  0  0  0  0
    8.5652    1.5478   25.3778 N   0  0  0  0  0  0  0  0  0  0  0  0
    6.8048   -7.5457   17.8752 C   0  0  0  0  0  0  0  0  0  0  0  0
    6.1721   -8.2186   15.9886 N   0  0  0  0  0  0  0  0  0  0  0  0
   11.1764   -2.6600   19.5604 C   0  0  0  0  0  0  0  0  0  0  0  0
    9.5491   -0.6380   24.1912 C   0  0  0  0  0  0  0  0  0  0  0  0
    7.5337   -6.9256   16.9519 C   0  0  0  0  0  0  0  0  0  0  0  0
    9.6782    0.5671   23.5143 C   0  0  0  0  0  0  0  0  0  0  0  0
    8.4532    0.3482   26.0821 C   0  0  0  0  0  0  0  0  0  0  0  0
   10.4239   -1.7677   22.2230 N   0  0  0  0  0  0  0  0  0  0  0  0
    9.9468   -4.5953   20.1709 C   0  0  0  0  0  0  0  0  0  0  0  0
   10.0366   -3.0590   23.9864 N   0  0  0  0  0  0  0  0  0  0  0  0
    7.1191   -7.3636   15.7739 C   0  0  0  0  0  0  0  0  0  0  0  0
    5.9612   -8.3203   17.2732 N   0  0  0  0  0  0  0  0  0  0  0  0
    8.5296   -5.9814   17.1841 C   0  0  0  0  0  0  0  0  0  0  0  0
    9.1527   -5.2118   16.2116 C   0  0  0  0  0  0  0  0  0  0  0  0
   10.3364   -3.8368   22.9255 O   0  0  0  0  0  0  0  0  0  0  0  0
    9.6947   -4.8407   18.8534 C   0  0  0  0  0  0  0  0  0  0  0  0
    9.1596    1.7042   24.1381 C   0  0  0  0  0  0  0  0  0  0  0  0
   11.0456   -2.9774   18.2694 N   0  0  0  0  0  0  0  0  0  0  0  0
   10.4788   -3.0457   21.8593 C   0  0  0  0  0  0  0  0  0  0  0  0
    8.8693   -5.8099   18.4657 N   0  0  0  0  0  0  0  0  0  0  0  0
    8.9892   -0.7926   25.4573 C   0  0  0  0  0  0  0  0  0  0  0  0
   10.5677   -3.4462   20.5323 C   0  0  0  0  0  0  0  0  0  0  0  0
  1  8  1  0
  1 12  4  0
  1 14  4  0
  2  3  4  0
  2 18  4  0
  3 20  4  0
  3 22  4  0
  4 11  4  0
  4 21  4  0
  5  9  4  0
  5 16  4  0
  6 15  4  0
  6 16  4  0
  7 22  4  0
  7 26  4  0
  8 10  4  0
  8 25  4  0
  9 15  4  0
  9 17  1  0
 10 21  4  0
 11 25  4  0
 12 23  4  0
 13 20  4  0
 13 26  4  0
 14 19  4  0
 17 18  4  0
 17 24  4  0
 19 23  4  0
 20 24  4  0
 23 26  1  0
M  END
$$$$

 Created by Python create_sdf_string function

 26 30  0  0  0  0  0  0  0  0999 V2000
   10.0084   -1.8019   23.4945 C   0  0  0  0  0  0  0  0  0  0  0  0
   10.0005   -4.2520   16.5631 C   0  0  0  0  0  0  0  0  0  0  0  0
   10.2759   -4.0036   17.8845 C   0  0  0  0  0  0  0  0  0  0  0  0
    8.5652    1.5478   25.3778 N   0  0  0  0  0  0  0  0  0  0  0  0
    6.8048   -7.5457   17.8752 C   0  0  0  0  0  0  0  0  0  0  0  0
    6.1721   -8.2186   15.9886 N   0  0  0  0  0  0  0  0  0  0  0  0
   11.1764   -2.6600   19.5604 C   0  0  0  0  0  0  0  0  0  0  0  0
    9.5491   -0.6380   24.1912 C   0  0  0  0  0  0  0  0  0  0  0  0
    7.5337   -6.9256   16.9519 C   0  0  0  0  0  0  0  0  0  0  0  0
    9.6782    0.5671   23.5143 C   0  0  0  0  0  0  0  0  0  0  0  0
    8.4532    0.3482   26.0821 C   0  0  0  0  0  0  0  0  0  0  0  0
   10.4239   -1.7677   22.2230 N   0  0  0  0  0  0  0  0  0  0  0  0
    9.9468   -4.5953   20.1709 C   0  0  0  0  0  0  0  0  0  0  0  0
   10.0366   -3.0590   23.9864 N   0  0  0  0  0  0  0  0  0  0  0  0
    7.1191   -7.3636   15.7739 C   0  0  0  0  0  0  0  0  0  0  0  0
    5.9612   -8.3203   17.2732 N   0  0  0  0  0  0  0  0  0  0  0  0
    8.5296   -5.9814   17.1841 C   0  0  0  0  0  0  0  0  0  0  0  0
    9.1527   -5.2118   16.2116 C   0  0  0  0  0  0  0  0  0  0  0  0
   10.3364   -3.8368   22.9255 O   0  0  0  0  0  0  0  0  0  0  0  0
    9.6947   -4.8407   18.8534 C   0  0  0  0  0  0  0  0  0  0  0  0
    9.1596    1.7042   24.1381 C   0  0  0  0  0  0  0  0  0  0  0  0
   11.0456   -2.9774   18.2694 N   0  0  0  0  0  0  0  0  0  0  0  0
   10.4788   -3.0457   21.8593 C   0  0  0  0  0  0  0  0  0  0  0  0
    8.8693   -5.8099   18.4657 N   0  0  0  0  0  0  0  0  0  0  0  0
    8.9892   -0.7926   25.4573 C   0  0  0  0  0  0  0  0  0  0  0  0
   10.5677   -3.4462   20.5323 C   0  0  0  0  0  0  0  0  0  0  0  0
  1  8  1  0
  1 12  4  0
  1 14  4  0
  2  3  4  0
  2 18  4  0
  3 20  4  0
  3 22  4  0
  4 11  4  0
  4 21  4  0
  5  9  4  0
  5 16  4  0
  6 15  4  0
  6 16  4  0
  7 22  4  0
  7 26  4  0
  8 10  4  0
  8 25  4  0
  9 15  4  0
  9 17  1  0
 10 21  4  0
 11 25  4  0
 12 23  4  0
 13 20  4  0
 13 26  4  0
 14 19  4  0
 17 18  4  0
 17 24  4  0
 19 23  4  0
 20 24  4  0
 23 26  1  0
M  END
$$$$

 Created by Python create_sdf_string function

 26 30  0  0  0  0  0  0  0  0999 V2000
   10.0084   -1.8019   23.4945 C   0  0  0  0  0  0  0  0  0  0  0  0
   10.0005   -4.2520   16.5631 C   0  0  0  0  0  0  0  0  0  0  0  0
   10.2759   -4.0036   17.8845 C   0  0  0  0  0  0  0  0  0  0  0  0
    8.5652    1.5478   25.3778 N   0  0  0  0  0  0  0  0  0  0  0  0
    6.8048   -7.5457   17.8752 C   0  0  0  0  0  0  0  0  0  0  0  0
    6.1721   -8.2186   15.9886 N   0  0  0  0  0  0  0  0  0  0  0  0
   11.1764   -2.6600   19.5604 C   0  0  0  0  0  0  0  0  0  0  0  0
    9.5491   -0.6380   24.1912 C   0  0  0  0  0  0  0  0  0  0  0  0
    7.5337   -6.9256   16.9519 C   0  0  0  0  0  0  0  0  0  0  0  0
    9.6782    0.5671   23.5143 C   0  0  0  0  0  0  0  0  0  0  0  0
    8.4532    0.3482   26.0821 C   0  0  0  0  0  0  0  0  0  0  0  0
   10.4239   -1.7677   22.2230 N   0  0  0  0  0  0  0  0  0  0  0  0
    9.9468   -4.5953   20.1709 C   0  0  0  0  0  0  0  0  0  0  0  0
   10.0366   -3.0590   23.9864 N   0  0  0  0  0  0  0  0  0  0  0  0
    7.1191   -7.3636   15.7739 C   0  0  0  0  0  0  0  0  0  0  0  0
    5.9612   -8.3203   17.2732 N   0  0  0  0  0  0  0  0  0  0  0  0
    8.5296   -5.9814   17.1841 C   0  0  0  0  0  0  0  0  0  0  0  0
    9.1527   -5.2118   16.2116 C   0  0  0  0  0  0  0  0  0  0  0  0
   10.3364   -3.8368   22.9255 O   0  0  0  0  0  0  0  0  0  0  0  0
    9.6947   -4.8407   18.8534 C   0  0  0  0  0  0  0  0  0  0  0  0
    9.1596    1.7042   24.1381 C   0  0  0  0  0  0  0  0  0  0  0  0
   11.0456   -2.9774   18.2694 N   0  0  0  0  0  0  0  0  0  0  0  0
   10.4788   -3.0457   21.8593 C   0  0  0  0  0  0  0  0  0  0  0  0
    8.8693   -5.8099   18.4657 N   0  0  0  0  0  0  0  0  0  0  0  0
    8.9892   -0.7926   25.4573 C   0  0  0  0  0  0  0  0  0  0  0  0
   10.5677   -3.4462   20.5323 C   0  0  0  0  0  0  0  0  0  0  0  0
  1  8  1  0
  1 12  4  0
  1 14  4  0
  2  3  4  0
  2 18  4  0
  3 20  4  0
  3 22  4  0
  4 11  4  0
  4 21  4  0
  5  9  4  0
  5 16  4  0
  6 15  4  0
  6 16  4  0
  7 22  4  0
  7 26  4  0
  8 10  4  0
  8 25  4  0
  9 15  4  0
  9 17  1  0
 10 21  4  0
 11 25  4  0
 12 23  4  0
 13 20  4  0
 13 26  4  0
 14 19  4  0
 17 18  4  0
 17 24  4  0
 19 23  4  0
 20 24  4  0
 23 26  1  0
M  END
$$$$

 Created by Python create_sdf_string function

 26 30  0  0  0  0  0  0  0  0999 V2000
   10.0084   -1.8019   23.4945 C   0  0  0  0  0  0  0  0  0  0  0  0
   10.0005   -4.2520   16.5631 C   0  0  0  0  0  0  0  0  0  0  0  0
   10.2759   -4.0036   17.8845 C   0  0  0  0  0  0  0  0  0  0  0  0
    8.5652    1.5478   25.3778 N   0  0  0  0  0  0  0  0  0  0  0  0
    6.8048   -7.5457   17.8752 C   0  0  0  0  0  0  0  0  0  0  0  0
    6.1721   -8.2186   15.9886 N   0  0  0  0  0  0  0  0  0  0  0  0
   11.1764   -2.6600   19.5604 C   0  0  0  0  0  0  0  0  0  0  0  0
    9.5491   -0.6380   24.1912 C   0  0  0  0  0  0  0  0  0  0  0  0
    7.5337   -6.9256   16.9519 C   0  0  0  0  0  0  0  0  0  0  0  0
    9.6782    0.5671   23.5143 C   0  0  0  0  0  0  0  0  0  0  0  0
    8.4532    0.3482   26.0821 C   0  0  0  0  0  0  0  0  0  0  0  0
   10.4239   -1.7677   22.2230 N   0  0  0  0  0  0  0  0  0  0  0  0
    9.9468   -4.5953   20.1709 C   0  0  0  0  0  0  0  0  0  0  0  0
   10.0366   -3.0590   23.9864 N   0  0  0  0  0  0  0  0  0  0  0  0
    7.1191   -7.3636   15.7739 C   0  0  0  0  0  0  0  0  0  0  0  0
    5.9612   -8.3203   17.2732 N   0  0  0  0  0  0  0  0  0  0  0  0
    8.5296   -5.9814   17.1841 C   0  0  0  0  0  0  0  0  0  0  0  0
    9.1527   -5.2118   16.2116 C   0  0  0  0  0  0  0  0  0  0  0  0
   10.3364   -3.8368   22.9255 O   0  0  0  0  0  0  0  0  0  0  0  0
    9.6947   -4.8407   18.8534 C   0  0  0  0  0  0  0  0  0  0  0  0
    9.1596    1.7042   24.1381 C   0  0  0  0  0  0  0  0  0  0  0  0
   11.0456   -2.9774   18.2694 N   0  0  0  0  0  0  0  0  0  0  0  0
   10.4788   -3.0457   21.8593 C   0  0  0  0  0  0  0  0  0  0  0  0
    8.8693   -5.8099   18.4657 N   0  0  0  0  0  0  0  0  0  0  0  0
    8.9892   -0.7926   25.4573 C   0  0  0  0  0  0  0  0  0  0  0  0
   10.5677   -3.4462   20.5323 C   0  0  0  0  0  0  0  0  0  0  0  0
  1  8  1  0
  1 12  4  0
  1 14  4  0
  2  3  4  0
  2 18  4  0
  3 20  4  0
  3 22  4  0
  4 11  4  0
  4 21  4  0
  5  9  4  0
  5 16  4  0
  6 15  4  0
  6 16  4  0
  7 22  4  0
  7 26  4  0
  8 10  4  0
  8 25  4  0
  9 15  4  0
  9 17  1  0
 10 21  4  0
 11 25  4  0
 12 23  4  0
 13 20  4  0
 13 26  4  0
 14 19  4  0
 17 18  4  0
 17 24  4  0
 19 23  4  0
 20 24  4  0
 23 26  1  0
M  END
$$$$

 Created by Python create_sdf_string function

 26 30  0  0  0  0  0  0  0  0999 V2000
   10.0084   -1.8019   23.4945 C   0  0  0  0  0  0  0  0  0  0  0  0
   10.0005   -4.2520   16.5631 C   0  0  0  0  0  0  0  0  0  0  0  0
   10.2759   -4.0036   17.8845 C   0  0  0  0  0  0  0  0  0  0  0  0
    8.5652    1.5478   25.3778 N   0  0  0  0  0  0  0  0  0  0  0  0
    6.8048   -7.5457   17.8752 C   0  0  0  0  0  0  0  0  0  0  0  0
    6.1721   -8.2186   15.9886 N   0  0  0  0  0  0  0  0  0  0  0  0
   11.1764   -2.6600   19.5604 C   0  0  0  0  0  0  0  0  0  0  0  0
    9.5491   -0.6380   24.1912 C   0  0  0  0  0  0  0  0  0  0  0  0
    7.5337   -6.9256   16.9519 C   0  0  0  0  0  0  0  0  0  0  0  0
    9.6782    0.5671   23.5143 C   0  0  0  0  0  0  0  0  0  0  0  0
    8.4532    0.3482   26.0821 C   0  0  0  0  0  0  0  0  0  0  0  0
   10.4239   -1.7677   22.2230 N   0  0  0  0  0  0  0  0  0  0  0  0
    9.9468   -4.5953   20.1709 C   0  0  0  0  0  0  0  0  0  0  0  0
   10.0366   -3.0590   23.9864 N   0  0  0  0  0  0  0  0  0  0  0  0
    7.1191   -7.3636   15.7739 C   0  0  0  0  0  0  0  0  0  0  0  0
    5.9612   -8.3203   17.2732 N   0  0  0  0  0  0  0  0  0  0  0  0
    8.5296   -5.9814   17.1841 C   0  0  0  0  0  0  0  0  0  0  0  0
    9.1527   -5.2118   16.2116 C   0  0  0  0  0  0  0  0  0  0  0  0
   10.3364   -3.8368   22.9255 O   0  0  0  0  0  0  0  0  0  0  0  0
    9.6947   -4.8407   18.8534 C   0  0  0  0  0  0  0  0  0  0  0  0
    9.1596    1.7042   24.1381 C   0  0  0  0  0  0  0  0  0  0  0  0
   11.0456   -2.9774   18.2694 N   0  0  0  0  0  0  0  0  0  0  0  0
   10.4788   -3.0457   21.8593 C   0  0  0  0  0  0  0  0  0  0  0  0
    8.8693   -5.8099   18.4657 N   0  0  0  0  0  0  0  0  0  0  0  0
    8.9892   -0.7926   25.4573 C   0  0  0  0  0  0  0  0  0  0  0  0
   10.5677   -3.4462   20.5323 C   0  0  0  0  0  0  0  0  0  0  0  0
  1  8  1  0
  1 12  4  0
  1 14  4  0
  2  3  4  0
  2 18  4  0
  3 20  4  0
  3 22  4  0
  4 11  4  0
  4 21  4  0
  5  9  4  0
  5 16  4  0
  6 15  4  0
  6 16  4  0
  7 22  4  0
  7 26  4  0
  8 10  4  0
  8 25  4  0
  9 15  4  0
  9 17  1  0
 10 21  4  0
 11 25  4  0
 12 23  4  0
 13 20  4  0
 13 26  4  0
 14 19  4  0
 17 18  4  0
 17 24  4  0
 19 23  4  0
 20 24  4  0
 23 26  1  0
M  END
$$$$

 Created by Python create_sdf_string function

 26 30  0  0  0  0  0  0  0  0999 V2000
   10.0084   -1.8019   23.4945 C   0  0  0  0  0  0  0  0  0  0  0  0
   10.0005   -4.2520   16.5631 C   0  0  0  0  0  0  0  0  0  0  0  0
   10.2759   -4.0036   17.8845 C   0  0  0  0  0  0  0  0  0  0  0  0
    8.5652    1.5478   25.3778 N   0  0  0  0  0  0  0  0  0  0  0  0
    6.8048   -7.5457   17.8752 C   0  0  0  0  0  0  0  0  0  0  0  0
    6.1721   -8.2186   15.9886 N   0  0  0  0  0  0  0  0  0  0  0  0
   11.1764   -2.6600   19.5604 C   0  0  0  0  0  0  0  0  0  0  0  0
    9.5491   -0.6380   24.1912 C   0  0  0  0  0  0  0  0  0  0  0  0
    7.5337   -6.9256   16.9519 C   0  0  0  0  0  0  0  0  0  0  0  0
    9.6782    0.5671   23.5143 C   0  0  0  0  0  0  0  0  0  0  0  0
    8.4532    0.3482   26.0821 C   0  0  0  0  0  0  0  0  0  0  0  0
   10.4239   -1.7677   22.2230 N   0  0  0  0  0  0  0  0  0  0  0  0
    9.9468   -4.5953   20.1709 C   0  0  0  0  0  0  0  0  0  0  0  0
   10.0366   -3.0590   23.9864 N   0  0  0  0  0  0  0  0  0  0  0  0
    7.1191   -7.3636   15.7739 C   0  0  0  0  0  0  0  0  0  0  0  0
    5.9612   -8.3203   17.2732 N   0  0  0  0  0  0  0  0  0  0  0  0
    8.5296   -5.9814   17.1841 C   0  0  0  0  0  0  0  0  0  0  0  0
    9.1527   -5.2118   16.2116 C   0  0  0  0  0  0  0  0  0  0  0  0
   10.3364   -3.8368   22.9255 O   0  0  0  0  0  0  0  0  0  0  0  0
    9.6947   -4.8407   18.8534 C   0  0  0  0  0  0  0  0  0  0  0  0
    9.1596    1.7042   24.1381 C   0  0  0  0  0  0  0  0  0  0  0  0
   11.0456   -2.9774   18.2694 N   0  0  0  0  0  0  0  0  0  0  0  0
   10.4788   -3.0457   21.8593 C   0  0  0  0  0  0  0  0  0  0  0  0
    8.8693   -5.8099   18.4657 N   0  0  0  0  0  0  0  0  0  0  0  0
    8.9892   -0.7926   25.4573 C   0  0  0  0  0  0  0  0  0  0  0  0
   10.5677   -3.4462   20.5323 C   0  0  0  0  0  0  0  0  0  0  0  0
  1  8  1  0
  1 12  4  0
  1 14  4  0
  2  3  4  0
  2 18  4  0
  3 20  4  0
  3 22  4  0
  4 11  4  0
  4 21  4  0
  5  9  4  0
  5 16  4  0
  6 15  4  0
  6 16  4  0
  7 22  4  0
  7 26  4  0
  8 10  4  0
  8 25  4  0
  9 15  4  0
  9 17  1  0
 10 21  4  0
 11 25  4  0
 12 23  4  0
 13 20  4  0
 13 26  4  0
 14 19  4  0
 17 18  4  0
 17 24  4  0
 19 23  4  0
 20 24  4  0
 23 26  1  0
M  END
$$$$

 Created by Python create_sdf_string function

 26 30  0  0  0  0  0  0  0  0999 V2000
   10.0084   -1.8019   23.4945 C   0  0  0  0  0  0  0  0  0  0  0  0
   10.0005   -4.2520   16.5631 C   0  0  0  0  0  0  0  0  0  0  0  0
   10.2759   -4.0036   17.8845 C   0  0  0  0  0  0  0  0  0  0  0  0
    8.5652    1.5478   25.3778 N   0  0  0  0  0  0  0  0  0  0  0  0
    6.8048   -7.5457   17.8752 C   0  0  0  0  0  0  0  0  0  0  0  0
    6.1721   -8.2186   15.9886 N   0  0  0  0  0  0  0  0  0  0  0  0
   11.1764   -2.6600   19.5604 C   0  0  0  0  0  0  0  0  0  0  0  0
    9.5491   -0.6380   24.1912 C   0  0  0  0  0  0  0  0  0  0  0  0
    7.5337   -6.9256   16.9519 C   0  0  0  0  0  0  0  0  0  0  0  0
    9.6782    0.5671   23.5143 C   0  0  0  0  0  0  0  0  0  0  0  0
    8.4532    0.3482   26.0821 C   0  0  0  0  0  0  0  0  0  0  0  0
   10.4239   -1.7677   22.2230 N   0  0  0  0  0  0  0  0  0  0  0  0
    9.9468   -4.5953   20.1709 C   0  0  0  0  0  0  0  0  0  0  0  0
   10.0366   -3.0590   23.9864 N   0  0  0  0  0  0  0  0  0  0  0  0
    7.1191   -7.3636   15.7739 C   0  0  0  0  0  0  0  0  0  0  0  0
    5.9612   -8.3203   17.2732 N   0  0  0  0  0  0  0  0  0  0  0  0
    8.5296   -5.9814   17.1841 C   0  0  0  0  0  0  0  0  0  0  0  0
    9.1527   -5.2118   16.2116 C   0  0  0  0  0  0  0  0  0  0  0  0
   10.3364   -3.8368   22.9255 O   0  0  0  0  0  0  0  0  0  0  0  0
    9.6947   -4.8407   18.8534 C   0  0  0  0  0  0  0  0  0  0  0  0
    9.1596    1.7042   24.1381 C   0  0  0  0  0  0  0  0  0  0  0  0
   11.0456   -2.9774   18.2694 N   0  0  0  0  0  0  0  0  0  0  0  0
   10.4788   -3.0457   21.8593 C   0  0  0  0  0  0  0  0  0  0  0  0
    8.8693   -5.8099   18.4657 N   0  0  0  0  0  0  0  0  0  0  0  0
    8.9892   -0.7926   25.4573 C   0  0  0  0  0  0  0  0  0  0  0  0
   10.5677   -3.4462   20.5323 C   0  0  0  0  0  0  0  0  0  0  0  0
  1  8  1  0
  1 12  4  0
  1 14  4  0
  2  3  4  0
  2 18  4  0
  3 20  4  0
  3 22  4  0
  4 11  4  0
  4 21  4  0
  5  9  4  0
  5 16  4  0
  6 15  4  0
  6 16  4  0
  7 22  4  0
  7 26  4  0
  8 10  4  0
  8 25  4  0
  9 15  4  0
  9 17  1  0
 10 21  4  0
 11 25  4  0
 12 23  4  0
 13 20  4  0
 13 26  4  0
 14 19  4  0
 17 18  4  0
 17 24  4  0
 19 23  4  0
 20 24  4  0
 23 26  1  0
M  END
$$$$

 Created by Python create_sdf_string function

 26 30  0  0  0  0  0  0  0  0999 V2000
   10.0084   -1.8019   23.4945 C   0  0  0  0  0  0  0  0  0  0  0  0
   10.0005   -4.2520   16.5631 C   0  0  0  0  0  0  0  0  0  0  0  0
   10.2759   -4.0036   17.8845 C   0  0  0  0  0  0  0  0  0  0  0  0
    8.5652    1.5478   25.3778 N   0  0  0  0  0  0  0  0  0  0  0  0
    6.8048   -7.5457   17.8752 C   0  0  0  0  0  0  0  0  0  0  0  0
    6.1721   -8.2186   15.9886 N   0  0  0  0  0  0  0  0  0  0  0  0
   11.1764   -2.6600   19.5604 C   0  0  0  0  0  0  0  0  0  0  0  0
    9.5491   -0.6380   24.1912 C   0  0  0  0  0  0  0  0  0  0  0  0
    7.5337   -6.9256   16.9519 C   0  0  0  0  0  0  0  0  0  0  0  0
    9.6782    0.5671   23.5143 C   0  0  0  0  0  0  0  0  0  0  0  0
    8.4532    0.3482   26.0821 C   0  0  0  0  0  0  0  0  0  0  0  0
   10.4239   -1.7677   22.2230 N   0  0  0  0  0  0  0  0  0  0  0  0
    9.9468   -4.5953   20.1709 C   0  0  0  0  0  0  0  0  0  0  0  0
   10.0366   -3.0590   23.9864 N   0  0  0  0  0  0  0  0  0  0  0  0
    7.1191   -7.3636   15.7739 C   0  0  0  0  0  0  0  0  0  0  0  0
    5.9612   -8.3203   17.2732 N   0  0  0  0  0  0  0  0  0  0  0  0
    8.5296   -5.9814   17.1841 C   0  0  0  0  0  0  0  0  0  0  0  0
    9.1527   -5.2118   16.2116 C   0  0  0  0  0  0  0  0  0  0  0  0
   10.3364   -3.8368   22.9255 O   0  0  0  0  0  0  0  0  0  0  0  0
    9.6947   -4.8407   18.8534 C   0  0  0  0  0  0  0  0  0  0  0  0
    9.1596    1.7042   24.1381 C   0  0  0  0  0  0  0  0  0  0  0  0
   11.0456   -2.9774   18.2694 N   0  0  0  0  0  0  0  0  0  0  0  0
   10.4788   -3.0457   21.8593 C   0  0  0  0  0  0  0  0  0  0  0  0
    8.8693   -5.8099   18.4657 N   0  0  0  0  0  0  0  0  0  0  0  0
    8.9892   -0.7926   25.4573 C   0  0  0  0  0  0  0  0  0  0  0  0
   10.5677   -3.4462   20.5323 C   0  0  0  0  0  0  0  0  0  0  0  0
  1  8  1  0
  1 12  4  0
  1 14  4  0
  2  3  4  0
  2 18  4  0
  3 20  4  0
  3 22  4  0
  4 11  4  0
  4 21  4  0
  5  9  4  0
  5 16  4  0
  6 15  4  0
  6 16  4  0
  7 22  4  0
  7 26  4  0
  8 10  4  0
  8 25  4  0
  9 15  4  0
  9 17  1  0
 10 21  4  0
 11 25  4  0
 12 23  4  0
 13 20  4  0
 13 26  4  0
 14 19  4  0
 17 18  4  0
 17 24  4  0
 19 23  4  0
 20 24  4  0
 23 26  1  0
M  END
$$$$

 Created by Python create_sdf_string function

 26 30  0  0  0  0  0  0  0  0999 V2000
   10.0084   -1.8019   23.4945 C   0  0  0  0  0  0  0  0  0  0  0  0
   10.0005   -4.2520   16.5631 C   0  0  0  0  0  0  0  0  0  0  0  0
   10.2759   -4.0036   17.8845 C   0  0  0  0  0  0  0  0  0  0  0  0
    8.5652    1.5478   25.3778 N   0  0  0  0  0  0  0  0  0  0  0  0
    6.8048   -7.5457   17.8752 C   0  0  0  0  0  0  0  0  0  0  0  0
    6.1721   -8.2186   15.9886 N   0  0  0  0  0  0  0  0  0  0  0  0
   11.1764   -2.6600   19.5604 C   0  0  0  0  0  0  0  0  0  0  0  0
    9.5491   -0.6380   24.1912 C   0  0  0  0  0  0  0  0  0  0  0  0
    7.5337   -6.9256   16.9519 C   0  0  0  0  0  0  0  0  0  0  0  0
    9.6782    0.5671   23.5143 C   0  0  0  0  0  0  0  0  0  0  0  0
    8.4532    0.3482   26.0821 C   0  0  0  0  0  0  0  0  0  0  0  0
   10.4239   -1.7677   22.2230 N   0  0  0  0  0  0  0  0  0  0  0  0
    9.9468   -4.5953   20.1709 C   0  0  0  0  0  0  0  0  0  0  0  0
   10.0366   -3.0590   23.9864 N   0  0  0  0  0  0  0  0  0  0  0  0
    7.1191   -7.3636   15.7739 C   0  0  0  0  0  0  0  0  0  0  0  0
    5.9612   -8.3203   17.2732 N   0  0  0  0  0  0  0  0  0  0  0  0
    8.5296   -5.9814   17.1841 C   0  0  0  0  0  0  0  0  0  0  0  0
    9.1527   -5.2118   16.2116 C   0  0  0  0  0  0  0  0  0  0  0  0
   10.3364   -3.8368   22.9255 O   0  0  0  0  0  0  0  0  0  0  0  0
    9.6947   -4.8407   18.8534 C   0  0  0  0  0  0  0  0  0  0  0  0
    9.1596    1.7042   24.1381 C   0  0  0  0  0  0  0  0  0  0  0  0
   11.0456   -2.9774   18.2694 N   0  0  0  0  0  0  0  0  0  0  0  0
   10.4788   -3.0457   21.8593 C   0  0  0  0  0  0  0  0  0  0  0  0
    8.8693   -5.8099   18.4657 N   0  0  0  0  0  0  0  0  0  0  0  0
    8.9892   -0.7926   25.4573 C   0  0  0  0  0  0  0  0  0  0  0  0
   10.5677   -3.4462   20.5323 C   0  0  0  0  0  0  0  0  0  0  0  0
  1  8  1  0
  1 12  4  0
  1 14  4  0
  2  3  4  0
  2 18  4  0
  3 20  4  0
  3 22  4  0
  4 11  4  0
  4 21  4  0
  5  9  4  0
  5 16  4  0
  6 15  4  0
  6 16  4  0
  7 22  4  0
  7 26  4  0
  8 10  4  0
  8 25  4  0
  9 15  4  0
  9 17  1  0
 10 21  4  0
 11 25  4  0
 12 23  4  0
 13 20  4  0
 13 26  4  0
 14 19  4  0
 17 18  4  0
 17 24  4  0
 19 23  4  0
 20 24  4  0
 23 26  1  0
M  END
$$$$

 Created by Python create_sdf_string function

 26 30  0  0  0  0  0  0  0  0999 V2000
   10.0084   -1.8019   23.4945 C   0  0  0  0  0  0  0  0  0  0  0  0
   10.0005   -4.2520   16.5631 C   0  0  0  0  0  0  0  0  0  0  0  0
   10.2759   -4.0036   17.8845 C   0  0  0  0  0  0  0  0  0  0  0  0
    8.5652    1.5478   25.3778 N   0  0  0  0  0  0  0  0  0  0  0  0
    6.8048   -7.5457   17.8752 C   0  0  0  0  0  0  0  0  0  0  0  0
    6.1721   -8.2186   15.9886 N   0  0  0  0  0  0  0  0  0  0  0  0
   11.1764   -2.6600   19.5604 C   0  0  0  0  0  0  0  0  0  0  0  0
    9.5491   -0.6380   24.1912 C   0  0  0  0  0  0  0  0  0  0  0  0
    7.5337   -6.9256   16.9519 C   0  0  0  0  0  0  0  0  0  0  0  0
    9.6782    0.5671   23.5143 C   0  0  0  0  0  0  0  0  0  0  0  0
    8.4532    0.3482   26.0821 C   0  0  0  0  0  0  0  0  0  0  0  0
   10.4239   -1.7677   22.2230 N   0  0  0  0  0  0  0  0  0  0  0  0
    9.9468   -4.5953   20.1709 C   0  0  0  0  0  0  0  0  0  0  0  0
   10.0366   -3.0590   23.9864 N   0  0  0  0  0  0  0  0  0  0  0  0
    7.1191   -7.3636   15.7739 C   0  0  0  0  0  0  0  0  0  0  0  0
    5.9612   -8.3203   17.2732 N   0  0  0  0  0  0  0  0  0  0  0  0
    8.5296   -5.9814   17.1841 C   0  0  0  0  0  0  0  0  0  0  0  0
    9.1527   -5.2118   16.2116 C   0  0  0  0  0  0  0  0  0  0  0  0
   10.3364   -3.8368   22.9255 O   0  0  0  0  0  0  0  0  0  0  0  0
    9.6947   -4.8407   18.8534 C   0  0  0  0  0  0  0  0  0  0  0  0
    9.1596    1.7042   24.1381 C   0  0  0  0  0  0  0  0  0  0  0  0
   11.0456   -2.9774   18.2694 N   0  0  0  0  0  0  0  0  0  0  0  0
   10.4788   -3.0457   21.8593 C   0  0  0  0  0  0  0  0  0  0  0  0
    8.8693   -5.8099   18.4657 N   0  0  0  0  0  0  0  0  0  0  0  0
    8.9892   -0.7926   25.4573 C   0  0  0  0  0  0  0  0  0  0  0  0
   10.5677   -3.4462   20.5323 C   0  0  0  0  0  0  0  0  0  0  0  0
  1  8  1  0
  1 12  4  0
  1 14  4  0
  2  3  4  0
  2 18  4  0
  3 20  4  0
  3 22  4  0
  4 11  4  0
  4 21  4  0
  5  9  4  0
  5 16  4  0
  6 15  4  0
  6 16  4  0
  7 22  4  0
  7 26  4  0
  8 10  4  0
  8 25  4  0
  9 15  4  0
  9 17  1  0
 10 21  4  0
 11 25  4  0
 12 23  4  0
 13 20  4  0
 13 26  4  0
 14 19  4  0
 17 18  4  0
 17 24  4  0
 19 23  4  0
 20 24  4  0
 23 26  1  0
M  END
$$$$

 Created by Python create_sdf_string function

 26 30  0  0  0  0  0  0  0  0999 V2000
   10.0084   -1.8019   23.4945 C   0  0  0  0  0  0  0  0  0  0  0  0
   10.0005   -4.2520   16.5631 C   0  0  0  0  0  0  0  0  0  0  0  0
   10.2759   -4.0036   17.8845 C   0  0  0  0  0  0  0  0  0  0  0  0
    8.5652    1.5478   25.3778 N   0  0  0  0  0  0  0  0  0  0  0  0
    6.8048   -7.5457   17.8752 C   0  0  0  0  0  0  0  0  0  0  0  0
    6.1721   -8.2186   15.9886 N   0  0  0  0  0  0  0  0  0  0  0  0
   11.1764   -2.6600   19.5604 C   0  0  0  0  0  0  0  0  0  0  0  0
    9.5491   -0.6380   24.1912 C   0  0  0  0  0  0  0  0  0  0  0  0
    7.5337   -6.9256   16.9519 C   0  0  0  0  0  0  0  0  0  0  0  0
    9.6782    0.5671   23.5143 C   0  0  0  0  0  0  0  0  0  0  0  0
    8.4532    0.3482   26.0821 C   0  0  0  0  0  0  0  0  0  0  0  0
   10.4239   -1.7677   22.2230 N   0  0  0  0  0  0  0  0  0  0  0  0
    9.9468   -4.5953   20.1709 C   0  0  0  0  0  0  0  0  0  0  0  0
   10.0366   -3.0590   23.9864 N   0  0  0  0  0  0  0  0  0  0  0  0
    7.1191   -7.3636   15.7739 C   0  0  0  0  0  0  0  0  0  0  0  0
    5.9612   -8.3203   17.2732 N   0  0  0  0  0  0  0  0  0  0  0  0
    8.5296   -5.9814   17.1841 C   0  0  0  0  0  0  0  0  0  0  0  0
    9.1527   -5.2118   16.2116 C   0  0  0  0  0  0  0  0  0  0  0  0
   10.3364   -3.8368   22.9255 O   0  0  0  0  0  0  0  0  0  0  0  0
    9.6947   -4.8407   18.8534 C   0  0  0  0  0  0  0  0  0  0  0  0
    9.1596    1.7042   24.1381 C   0  0  0  0  0  0  0  0  0  0  0  0
   11.0456   -2.9774   18.2694 N   0  0  0  0  0  0  0  0  0  0  0  0
   10.4788   -3.0457   21.8593 C   0  0  0  0  0  0  0  0  0  0  0  0
    8.8693   -5.8099   18.4657 N   0  0  0  0  0  0  0  0  0  0  0  0
    8.9892   -0.7926   25.4573 C   0  0  0  0  0  0  0  0  0  0  0  0
   10.5677   -3.4462   20.5323 C   0  0  0  0  0  0  0  0  0  0  0  0
  1  8  1  0
  1 12  4  0
  1 14  4  0
  2  3  4  0
  2 18  4  0
  3 20  4  0
  3 22  4  0
  4 11  4  0
  4 21  4  0
  5  9  4  0
  5 16  4  0
  6 15  4  0
  6 16  4  0
  7 22  4  0
  7 26  4  0
  8 10  4  0
  8 25  4  0
  9 15  4  0
  9 17  1  0
 10 21  4  0
 11 25  4  0
 12 23  4  0
 13 20  4  0
 13 26  4  0
 14 19  4  0
 17 18  4  0
 17 24  4  0
 19 23  4  0
 20 24  4  0
 23 26  1  0
M  END
$$$$

 Created by Python create_sdf_string function

 26 30  0  0  0  0  0  0  0  0999 V2000
   10.0084   -1.8019   23.4945 C   0  0  0  0  0  0  0  0  0  0  0  0
   10.0005   -4.2520   16.5631 C   0  0  0  0  0  0  0  0  0  0  0  0
   10.2759   -4.0036   17.8845 C   0  0  0  0  0  0  0  0  0  0  0  0
    8.5652    1.5478   25.3778 N   0  0  0  0  0  0  0  0  0  0  0  0
    6.8048   -7.5457   17.8752 C   0  0  0  0  0  0  0  0  0  0  0  0
    6.1721   -8.2186   15.9886 N   0  0  0  0  0  0  0  0  0  0  0  0
   11.1764   -2.6600   19.5604 C   0  0  0  0  0  0  0  0  0  0  0  0
    9.5491   -0.6380   24.1912 C   0  0  0  0  0  0  0  0  0  0  0  0
    7.5337   -6.9256   16.9519 C   0  0  0  0  0  0  0  0  0  0  0  0
    9.6782    0.5671   23.5143 C   0  0  0  0  0  0  0  0  0  0  0  0
    8.4532    0.3482   26.0821 C   0  0  0  0  0  0  0  0  0  0  0  0
   10.4239   -1.7677   22.2230 N   0  0  0  0  0  0  0  0  0  0  0  0
    9.9468   -4.5953   20.1709 C   0  0  0  0  0  0  0  0  0  0  0  0
   10.0366   -3.0590   23.9864 N   0  0  0  0  0  0  0  0  0  0  0  0
    7.1191   -7.3636   15.7739 C   0  0  0  0  0  0  0  0  0  0  0  0
    5.9612   -8.3203   17.2732 N   0  0  0  0  0  0  0  0  0  0  0  0
    8.5296   -5.9814   17.1841 C   0  0  0  0  0  0  0  0  0  0  0  0
    9.1527   -5.2118   16.2116 C   0  0  0  0  0  0  0  0  0  0  0  0
   10.3364   -3.8368   22.9255 O   0  0  0  0  0  0  0  0  0  0  0  0
    9.6947   -4.8407   18.8534 C   0  0  0  0  0  0  0  0  0  0  0  0
    9.1596    1.7042   24.1381 C   0  0  0  0  0  0  0  0  0  0  0  0
   11.0456   -2.9774   18.2694 N   0  0  0  0  0  0  0  0  0  0  0  0
   10.4788   -3.0457   21.8593 C   0  0  0  0  0  0  0  0  0  0  0  0
    8.8693   -5.8099   18.4657 N   0  0  0  0  0  0  0  0  0  0  0  0
    8.9892   -0.7926   25.4573 C   0  0  0  0  0  0  0  0  0  0  0  0
   10.5677   -3.4462   20.5323 C   0  0  0  0  0  0  0  0  0  0  0  0
  1  8  1  0
  1 12  4  0
  1 14  4  0
  2  3  4  0
  2 18  4  0
  3 20  4  0
  3 22  4  0
  4 11  4  0
  4 21  4  0
  5  9  4  0
  5 16  4  0
  6 15  4  0
  6 16  4  0
  7 22  4  0
  7 26  4  0
  8 10  4  0
  8 25  4  0
  9 15  4  0
  9 17  1  0
 10 21  4  0
 11 25  4  0
 12 23  4  0
 13 20  4  0
 13 26  4  0
 14 19  4  0
 17 18  4  0
 17 24  4  0
 19 23  4  0
 20 24  4  0
 23 26  1  0
M  END
$$$$

 Created by Python create_sdf_string function

 26 30  0  0  0  0  0  0  0  0999 V2000
   10.0084   -1.8019   23.4945 C   0  0  0  0  0  0  0  0  0  0  0  0
   10.0005   -4.2520   16.5631 C   0  0  0  0  0  0  0  0  0  0  0  0
   10.2759   -4.0036   17.8845 C   0  0  0  0  0  0  0  0  0  0  0  0
    8.5652    1.5478   25.3778 N   0  0  0  0  0  0  0  0  0  0  0  0
    6.8048   -7.5457   17.8752 C   0  0  0  0  0  0  0  0  0  0  0  0
    6.1721   -8.2186   15.9886 N   0  0  0  0  0  0  0  0  0  0  0  0
   11.1764   -2.6600   19.5604 C   0  0  0  0  0  0  0  0  0  0  0  0
    9.5491   -0.6380   24.1912 C   0  0  0  0  0  0  0  0  0  0  0  0
    7.5337   -6.9256   16.9519 C   0  0  0  0  0  0  0  0  0  0  0  0
    9.6782    0.5671   23.5143 C   0  0  0  0  0  0  0  0  0  0  0  0
    8.4532    0.3482   26.0821 C   0  0  0  0  0  0  0  0  0  0  0  0
   10.4239   -1.7677   22.2230 N   0  0  0  0  0  0  0  0  0  0  0  0
    9.9468   -4.5953   20.1709 C   0  0  0  0  0  0  0  0  0  0  0  0
   10.0366   -3.0590   23.9864 N   0  0  0  0  0  0  0  0  0  0  0  0
    7.1191   -7.3636   15.7739 C   0  0  0  0  0  0  0  0  0  0  0  0
    5.9612   -8.3203   17.2732 N   0  0  0  0  0  0  0  0  0  0  0  0
    8.5296   -5.9814   17.1841 C   0  0  0  0  0  0  0  0  0  0  0  0
    9.1527   -5.2118   16.2116 C   0  0  0  0  0  0  0  0  0  0  0  0
   10.3364   -3.8368   22.9255 O   0  0  0  0  0  0  0  0  0  0  0  0
    9.6947   -4.8407   18.8534 C   0  0  0  0  0  0  0  0  0  0  0  0
    9.1596    1.7042   24.1381 C   0  0  0  0  0  0  0  0  0  0  0  0
   11.0456   -2.9774   18.2694 N   0  0  0  0  0  0  0  0  0  0  0  0
   10.4788   -3.0457   21.8593 C   0  0  0  0  0  0  0  0  0  0  0  0
    8.8693   -5.8099   18.4657 N   0  0  0  0  0  0  0  0  0  0  0  0
    8.9892   -0.7926   25.4573 C   0  0  0  0  0  0  0  0  0  0  0  0
   10.5677   -3.4462   20.5323 C   0  0  0  0  0  0  0  0  0  0  0  0
  1  8  1  0
  1 12  4  0
  1 14  4  0
  2  3  4  0
  2 18  4  0
  3 20  4  0
  3 22  4  0
  4 11  4  0
  4 21  4  0
  5  9  4  0
  5 16  4  0
  6 15  4  0
  6 16  4  0
  7 22  4  0
  7 26  4  0
  8 10  4  0
  8 25  4  0
  9 15  4  0
  9 17  1  0
 10 21  4  0
 11 25  4  0
 12 23  4  0
 13 20  4  0
 13 26  4  0
 14 19  4  0
 17 18  4  0
 17 24  4  0
 19 23  4  0
 20 24  4  0
 23 26  1  0
M  END
$$$$

 Created by Python create_sdf_string function

 26 30  0  0  0  0  0  0  0  0999 V2000
   10.0084   -1.8019   23.4945 C   0  0  0  0  0  0  0  0  0  0  0  0
   10.0005   -4.2520   16.5631 C   0  0  0  0  0  0  0  0  0  0  0  0
   10.2759   -4.0036   17.8845 C   0  0  0  0  0  0  0  0  0  0  0  0
    8.5652    1.5478   25.3778 N   0  0  0  0  0  0  0  0  0  0  0  0
    6.8048   -7.5457   17.8752 C   0  0  0  0  0  0  0  0  0  0  0  0
    6.1721   -8.2186   15.9886 N   0  0  0  0  0  0  0  0  0  0  0  0
   11.1764   -2.6600   19.5604 C   0  0  0  0  0  0  0  0  0  0  0  0
    9.5491   -0.6380   24.1912 C   0  0  0  0  0  0  0  0  0  0  0  0
    7.5337   -6.9256   16.9519 C   0  0  0  0  0  0  0  0  0  0  0  0
    9.6782    0.5671   23.5143 C   0  0  0  0  0  0  0  0  0  0  0  0
    8.4532    0.3482   26.0821 C   0  0  0  0  0  0  0  0  0  0  0  0
   10.4239   -1.7677   22.2230 N   0  0  0  0  0  0  0  0  0  0  0  0
    9.9468   -4.5953   20.1709 C   0  0  0  0  0  0  0  0  0  0  0  0
   10.0366   -3.0590   23.9864 N   0  0  0  0  0  0  0  0  0  0  0  0
    7.1191   -7.3636   15.7739 C   0  0  0  0  0  0  0  0  0  0  0  0
    5.9612   -8.3203   17.2732 N   0  0  0  0  0  0  0  0  0  0  0  0
    8.5296   -5.9814   17.1841 C   0  0  0  0  0  0  0  0  0  0  0  0
    9.1527   -5.2118   16.2116 C   0  0  0  0  0  0  0  0  0  0  0  0
   10.3364   -3.8368   22.9255 O   0  0  0  0  0  0  0  0  0  0  0  0
    9.6947   -4.8407   18.8534 C   0  0  0  0  0  0  0  0  0  0  0  0
    9.1596    1.7042   24.1381 C   0  0  0  0  0  0  0  0  0  0  0  0
   11.0456   -2.9774   18.2694 N   0  0  0  0  0  0  0  0  0  0  0  0
   10.4788   -3.0457   21.8593 C   0  0  0  0  0  0  0  0  0  0  0  0
    8.8693   -5.8099   18.4657 N   0  0  0  0  0  0  0  0  0  0  0  0
    8.9892   -0.7926   25.4573 C   0  0  0  0  0  0  0  0  0  0  0  0
   10.5677   -3.4462   20.5323 C   0  0  0  0  0  0  0  0  0  0  0  0
  1  8  1  0
  1 12  4  0
  1 14  4  0
  2  3  4  0
  2 18  4  0
  3 20  4  0
  3 22  4  0
  4 11  4  0
  4 21  4  0
  5  9  4  0
  5 16  4  0
  6 15  4  0
  6 16  4  0
  7 22  4  0
  7 26  4  0
  8 10  4  0
  8 25  4  0
  9 15  4  0
  9 17  1  0
 10 21  4  0
 11 25  4  0
 12 23  4  0
 13 20  4  0
 13 26  4  0
 14 19  4  0
 17 18  4  0
 17 24  4  0
 19 23  4  0
 20 24  4  0
 23 26  1  0
M  END
$$$$

 Created by Python create_sdf_string function

 26 30  0  0  0  0  0  0  0  0999 V2000
   10.0084   -1.8019   23.4945 C   0  0  0  0  0  0  0  0  0  0  0  0
   10.0005   -4.2520   16.5631 C   0  0  0  0  0  0  0  0  0  0  0  0
   10.2759   -4.0036   17.8845 C   0  0  0  0  0  0  0  0  0  0  0  0
    8.5652    1.5478   25.3778 N   0  0  0  0  0  0  0  0  0  0  0  0
    6.8048   -7.5457   17.8752 C   0  0  0  0  0  0  0  0  0  0  0  0
    6.1721   -8.2186   15.9886 N   0  0  0  0  0  0  0  0  0  0  0  0
   11.1764   -2.6600   19.5604 C   0  0  0  0  0  0  0  0  0  0  0  0
    9.5491   -0.6380   24.1912 C   0  0  0  0  0  0  0  0  0  0  0  0
    7.5337   -6.9256   16.9519 C   0  0  0  0  0  0  0  0  0  0  0  0
    9.6782    0.5671   23.5143 C   0  0  0  0  0  0  0  0  0  0  0  0
    8.4532    0.3482   26.0821 C   0  0  0  0  0  0  0  0  0  0  0  0
   10.4239   -1.7677   22.2230 N   0  0  0  0  0  0  0  0  0  0  0  0
    9.9468   -4.5953   20.1709 C   0  0  0  0  0  0  0  0  0  0  0  0
   10.0366   -3.0590   23.9864 N   0  0  0  0  0  0  0  0  0  0  0  0
    7.1191   -7.3636   15.7739 C   0  0  0  0  0  0  0  0  0  0  0  0
    5.9612   -8.3203   17.2732 N   0  0  0  0  0  0  0  0  0  0  0  0
    8.5296   -5.9814   17.1841 C   0  0  0  0  0  0  0  0  0  0  0  0
    9.1527   -5.2118   16.2116 C   0  0  0  0  0  0  0  0  0  0  0  0
   10.3364   -3.8368   22.9255 O   0  0  0  0  0  0  0  0  0  0  0  0
    9.6947   -4.8407   18.8534 C   0  0  0  0  0  0  0  0  0  0  0  0
    9.1596    1.7042   24.1381 C   0  0  0  0  0  0  0  0  0  0  0  0
   11.0456   -2.9774   18.2694 N   0  0  0  0  0  0  0  0  0  0  0  0
   10.4788   -3.0457   21.8593 C   0  0  0  0  0  0  0  0  0  0  0  0
    8.8693   -5.8099   18.4657 N   0  0  0  0  0  0  0  0  0  0  0  0
    8.9892   -0.7926   25.4573 C   0  0  0  0  0  0  0  0  0  0  0  0
   10.5677   -3.4462   20.5323 C   0  0  0  0  0  0  0  0  0  0  0  0
  1  8  1  0
  1 12  4  0
  1 14  4  0
  2  3  4  0
  2 18  4  0
  3 20  4  0
  3 22  4  0
  4 11  4  0
  4 21  4  0
  5  9  4  0
  5 16  4  0
  6 15  4  0
  6 16  4  0
  7 22  4  0
  7 26  4  0
  8 10  4  0
  8 25  4  0
  9 15  4  0
  9 17  1  0
 10 21  4  0
 11 25  4  0
 12 23  4  0
 13 20  4  0
 13 26  4  0
 14 19  4  0
 17 18  4  0
 17 24  4  0
 19 23  4  0
 20 24  4  0
 23 26  1  0
M  END
$$$$

 Created by Python create_sdf_string function

 26 30  0  0  0  0  0  0  0  0999 V2000
   10.0084   -1.8019   23.4945 C   0  0  0  0  0  0  0  0  0  0  0  0
   10.0005   -4.2520   16.5631 C   0  0  0  0  0  0  0  0  0  0  0  0
   10.2759   -4.0036   17.8845 C   0  0  0  0  0  0  0  0  0  0  0  0
    8.5652    1.5478   25.3778 N   0  0  0  0  0  0  0  0  0  0  0  0
    6.8048   -7.5457   17.8752 C   0  0  0  0  0  0  0  0  0  0  0  0
    6.1721   -8.2186   15.9886 N   0  0  0  0  0  0  0  0  0  0  0  0
   11.1764   -2.6600   19.5604 C   0  0  0  0  0  0  0  0  0  0  0  0
    9.5491   -0.6380   24.1912 C   0  0  0  0  0  0  0  0  0  0  0  0
    7.5337   -6.9256   16.9519 C   0  0  0  0  0  0  0  0  0  0  0  0
    9.6782    0.5671   23.5143 C   0  0  0  0  0  0  0  0  0  0  0  0
    8.4532    0.3482   26.0821 C   0  0  0  0  0  0  0  0  0  0  0  0
   10.4239   -1.7677   22.2230 N   0  0  0  0  0  0  0  0  0  0  0  0
    9.9468   -4.5953   20.1709 C   0  0  0  0  0  0  0  0  0  0  0  0
   10.0366   -3.0590   23.9864 N   0  0  0  0  0  0  0  0  0  0  0  0
    7.1191   -7.3636   15.7739 C   0  0  0  0  0  0  0  0  0  0  0  0
    5.9612   -8.3203   17.2732 N   0  0  0  0  0  0  0  0  0  0  0  0
    8.5296   -5.9814   17.1841 C   0  0  0  0  0  0  0  0  0  0  0  0
    9.1527   -5.2118   16.2116 C   0  0  0  0  0  0  0  0  0  0  0  0
   10.3364   -3.8368   22.9255 O   0  0  0  0  0  0  0  0  0  0  0  0
    9.6947   -4.8407   18.8534 C   0  0  0  0  0  0  0  0  0  0  0  0
    9.1596    1.7042   24.1381 C   0  0  0  0  0  0  0  0  0  0  0  0
   11.0456   -2.9774   18.2694 N   0  0  0  0  0  0  0  0  0  0  0  0
   10.4788   -3.0457   21.8593 C   0  0  0  0  0  0  0  0  0  0  0  0
    8.8693   -5.8099   18.4657 N   0  0  0  0  0  0  0  0  0  0  0  0
    8.9892   -0.7926   25.4573 C   0  0  0  0  0  0  0  0  0  0  0  0
   10.5677   -3.4462   20.5323 C   0  0  0  0  0  0  0  0  0  0  0  0
  1  8  1  0
  1 12  4  0
  1 14  4  0
  2  3  4  0
  2 18  4  0
  3 20  4  0
  3 22  4  0
  4 11  4  0
  4 21  4  0
  5  9  4  0
  5 16  4  0
  6 15  4  0
  6 16  4  0
  7 22  4  0
  7 26  4  0
  8 10  4  0
  8 25  4  0
  9 15  4  0
  9 17  1  0
 10 21  4  0
 11 25  4  0
 12 23  4  0
 13 20  4  0
 13 26  4  0
 14 19  4  0
 17 18  4  0
 17 24  4  0
 19 23  4  0
 20 24  4  0
 23 26  1  0
M  END
$$$$

 Created by Python create_sdf_string function

 26 30  0  0  0  0  0  0  0  0999 V2000
   10.0084   -1.8019   23.4945 C   0  0  0  0  0  0  0  0  0  0  0  0
   10.0005   -4.2520   16.5631 C   0  0  0  0  0  0  0  0  0  0  0  0
   10.2759   -4.0036   17.8845 C   0  0  0  0  0  0  0  0  0  0  0  0
    8.5652    1.5478   25.3778 N   0  0  0  0  0  0  0  0  0  0  0  0
    6.8048   -7.5457   17.8752 C   0  0  0  0  0  0  0  0  0  0  0  0
    6.1721   -8.2186   15.9886 N   0  0  0  0  0  0  0  0  0  0  0  0
   11.1764   -2.6600   19.5604 C   0  0  0  0  0  0  0  0  0  0  0  0
    9.5491   -0.6380   24.1912 C   0  0  0  0  0  0  0  0  0  0  0  0
    7.5337   -6.9256   16.9519 C   0  0  0  0  0  0  0  0  0  0  0  0
    9.6782    0.5671   23.5143 C   0  0  0  0  0  0  0  0  0  0  0  0
    8.4532    0.3482   26.0821 C   0  0  0  0  0  0  0  0  0  0  0  0
   10.4239   -1.7677   22.2230 N   0  0  0  0  0  0  0  0  0  0  0  0
    9.9468   -4.5953   20.1709 C   0  0  0  0  0  0  0  0  0  0  0  0
   10.0366   -3.0590   23.9864 N   0  0  0  0  0  0  0  0  0  0  0  0
    7.1191   -7.3636   15.7739 C   0  0  0  0  0  0  0  0  0  0  0  0
    5.9612   -8.3203   17.2732 N   0  0  0  0  0  0  0  0  0  0  0  0
    8.5296   -5.9814   17.1841 C   0  0  0  0  0  0  0  0  0  0  0  0
    9.1527   -5.2118   16.2116 C   0  0  0  0  0  0  0  0  0  0  0  0
   10.3364   -3.8368   22.9255 O   0  0  0  0  0  0  0  0  0  0  0  0
    9.6947   -4.8407   18.8534 C   0  0  0  0  0  0  0  0  0  0  0  0
    9.1596    1.7042   24.1381 C   0  0  0  0  0  0  0  0  0  0  0  0
   11.0456   -2.9774   18.2694 N   0  0  0  0  0  0  0  0  0  0  0  0
   10.4788   -3.0457   21.8593 C   0  0  0  0  0  0  0  0  0  0  0  0
    8.8693   -5.8099   18.4657 N   0  0  0  0  0  0  0  0  0  0  0  0
    8.9892   -0.7926   25.4573 C   0  0  0  0  0  0  0  0  0  0  0  0
   10.5677   -3.4462   20.5323 C   0  0  0  0  0  0  0  0  0  0  0  0
  1  8  1  0
  1 12  4  0
  1 14  4  0
  2  3  4  0
  2 18  4  0
  3 20  4  0
  3 22  4  0
  4 11  4  0
  4 21  4  0
  5  9  4  0
  5 16  4  0
  6 15  4  0
  6 16  4  0
  7 22  4  0
  7 26  4  0
  8 10  4  0
  8 25  4  0
  9 15  4  0
  9 17  1  0
 10 21  4  0
 11 25  4  0
 12 23  4  0
 13 20  4  0
 13 26  4  0
 14 19  4  0
 17 18  4  0
 17 24  4  0
 19 23  4  0
 20 24  4  0
 23 26  1  0
M  END
$$$$

 Created by Python create_sdf_string function

 26 30  0  0  0  0  0  0  0  0999 V2000
   10.0084   -1.8019   23.4945 C   0  0  0  0  0  0  0  0  0  0  0  0
   10.0005   -4.2520   16.5631 C   0  0  0  0  0  0  0  0  0  0  0  0
   10.2759   -4.0036   17.8845 C   0  0  0  0  0  0  0  0  0  0  0  0
    8.5652    1.5478   25.3778 N   0  0  0  0  0  0  0  0  0  0  0  0
    6.8048   -7.5457   17.8752 C   0  0  0  0  0  0  0  0  0  0  0  0
    6.1721   -8.2186   15.9886 N   0  0  0  0  0  0  0  0  0  0  0  0
   11.1764   -2.6600   19.5604 C   0  0  0  0  0  0  0  0  0  0  0  0
    9.5491   -0.6380   24.1912 C   0  0  0  0  0  0  0  0  0  0  0  0
    7.5337   -6.9256   16.9519 C   0  0  0  0  0  0  0  0  0  0  0  0
    9.6782    0.5671   23.5143 C   0  0  0  0  0  0  0  0  0  0  0  0
    8.4532    0.3482   26.0821 C   0  0  0  0  0  0  0  0  0  0  0  0
   10.4239   -1.7677   22.2230 N   0  0  0  0  0  0  0  0  0  0  0  0
    9.9468   -4.5953   20.1709 C   0  0  0  0  0  0  0  0  0  0  0  0
   10.0366   -3.0590   23.9864 N   0  0  0  0  0  0  0  0  0  0  0  0
    7.1191   -7.3636   15.7739 C   0  0  0  0  0  0  0  0  0  0  0  0
    5.9612   -8.3203   17.2732 N   0  0  0  0  0  0  0  0  0  0  0  0
    8.5296   -5.9814   17.1841 C   0  0  0  0  0  0  0  0  0  0  0  0
    9.1527   -5.2118   16.2116 C   0  0  0  0  0  0  0  0  0  0  0  0
   10.3364   -3.8368   22.9255 O   0  0  0  0  0  0  0  0  0  0  0  0
    9.6947   -4.8407   18.8534 C   0  0  0  0  0  0  0  0  0  0  0  0
    9.1596    1.7042   24.1381 C   0  0  0  0  0  0  0  0  0  0  0  0
   11.0456   -2.9774   18.2694 N   0  0  0  0  0  0  0  0  0  0  0  0
   10.4788   -3.0457   21.8593 C   0  0  0  0  0  0  0  0  0  0  0  0
    8.8693   -5.8099   18.4657 N   0  0  0  0  0  0  0  0  0  0  0  0
    8.9892   -0.7926   25.4573 C   0  0  0  0  0  0  0  0  0  0  0  0
   10.5677   -3.4462   20.5323 C   0  0  0  0  0  0  0  0  0  0  0  0
  1  8  1  0
  1 12  4  0
  1 14  4  0
  2  3  4  0
  2 18  4  0
  3 20  4  0
  3 22  4  0
  4 11  4  0
  4 21  4  0
  5  9  4  0
  5 16  4  0
  6 15  4  0
  6 16  4  0
  7 22  4  0
  7 26  4  0
  8 10  4  0
  8 25  4  0
  9 15  4  0
  9 17  1  0
 10 21  4  0
 11 25  4  0
 12 23  4  0
 13 20  4  0
 13 26  4  0
 14 19  4  0
 17 18  4  0
 17 24  4  0
 19 23  4  0
 20 24  4  0
 23 26  1  0
M  END
$$$$

 Created by Python create_sdf_string function

 26 30  0  0  0  0  0  0  0  0999 V2000
   10.0084   -1.8019   23.4945 C   0  0  0  0  0  0  0  0  0  0  0  0
   10.0005   -4.2520   16.5631 C   0  0  0  0  0  0  0  0  0  0  0  0
   10.2759   -4.0036   17.8845 C   0  0  0  0  0  0  0  0  0  0  0  0
    8.5652    1.5478   25.3778 N   0  0  0  0  0  0  0  0  0  0  0  0
    6.8048   -7.5457   17.8752 C   0  0  0  0  0  0  0  0  0  0  0  0
    6.1721   -8.2186   15.9886 N   0  0  0  0  0  0  0  0  0  0  0  0
   11.1764   -2.6600   19.5604 C   0  0  0  0  0  0  0  0  0  0  0  0
    9.5491   -0.6380   24.1912 C   0  0  0  0  0  0  0  0  0  0  0  0
    7.5337   -6.9256   16.9519 C   0  0  0  0  0  0  0  0  0  0  0  0
    9.6782    0.5671   23.5143 C   0  0  0  0  0  0  0  0  0  0  0  0
    8.4532    0.3482   26.0821 C   0  0  0  0  0  0  0  0  0  0  0  0
   10.4239   -1.7677   22.2230 N   0  0  0  0  0  0  0  0  0  0  0  0
    9.9468   -4.5953   20.1709 C   0  0  0  0  0  0  0  0  0  0  0  0
   10.0366   -3.0590   23.9864 N   0  0  0  0  0  0  0  0  0  0  0  0
    7.1191   -7.3636   15.7739 C   0  0  0  0  0  0  0  0  0  0  0  0
    5.9612   -8.3203   17.2732 N   0  0  0  0  0  0  0  0  0  0  0  0
    8.5296   -5.9814   17.1841 C   0  0  0  0  0  0  0  0  0  0  0  0
    9.1527   -5.2118   16.2116 C   0  0  0  0  0  0  0  0  0  0  0  0
   10.3364   -3.8368   22.9255 O   0  0  0  0  0  0  0  0  0  0  0  0
    9.6947   -4.8407   18.8534 C   0  0  0  0  0  0  0  0  0  0  0  0
    9.1596    1.7042   24.1381 C   0  0  0  0  0  0  0  0  0  0  0  0
   11.0456   -2.9774   18.2694 N   0  0  0  0  0  0  0  0  0  0  0  0
   10.4788   -3.0457   21.8593 C   0  0  0  0  0  0  0  0  0  0  0  0
    8.8693   -5.8099   18.4657 N   0  0  0  0  0  0  0  0  0  0  0  0
    8.9892   -0.7926   25.4573 C   0  0  0  0  0  0  0  0  0  0  0  0
   10.5677   -3.4462   20.5323 C   0  0  0  0  0  0  0  0  0  0  0  0
  1  8  1  0
  1 12  4  0
  1 14  4  0
  2  3  4  0
  2 18  4  0
  3 20  4  0
  3 22  4  0
  4 11  4  0
  4 21  4  0
  5  9  4  0
  5 16  4  0
  6 15  4  0
  6 16  4  0
  7 22  4  0
  7 26  4  0
  8 10  4  0
  8 25  4  0
  9 15  4  0
  9 17  1  0
 10 21  4  0
 11 25  4  0
 12 23  4  0
 13 20  4  0
 13 26  4  0
 14 19  4  0
 17 18  4  0
 17 24  4  0
 19 23  4  0
 20 24  4  0
 23 26  1  0
M  END
$$$$

 Created by Python create_sdf_string function

 26 30  0  0  0  0  0  0  0  0999 V2000
   10.0084   -1.8019   23.4945 C   0  0  0  0  0  0  0  0  0  0  0  0
   10.0005   -4.2520   16.5631 C   0  0  0  0  0  0  0  0  0  0  0  0
   10.2759   -4.0036   17.8845 C   0  0  0  0  0  0  0  0  0  0  0  0
    8.5652    1.5478   25.3778 N   0  0  0  0  0  0  0  0  0  0  0  0
    6.8048   -7.5457   17.8752 C   0  0  0  0  0  0  0  0  0  0  0  0
    6.1721   -8.2186   15.9886 N   0  0  0  0  0  0  0  0  0  0  0  0
   11.1764   -2.6600   19.5604 C   0  0  0  0  0  0  0  0  0  0  0  0
    9.5491   -0.6380   24.1912 C   0  0  0  0  0  0  0  0  0  0  0  0
    7.5337   -6.9256   16.9519 C   0  0  0  0  0  0  0  0  0  0  0  0
    9.6782    0.5671   23.5143 C   0  0  0  0  0  0  0  0  0  0  0  0
    8.4532    0.3482   26.0821 C   0  0  0  0  0  0  0  0  0  0  0  0
   10.4239   -1.7677   22.2230 N   0  0  0  0  0  0  0  0  0  0  0  0
    9.9468   -4.5953   20.1709 C   0  0  0  0  0  0  0  0  0  0  0  0
   10.0366   -3.0590   23.9864 N   0  0  0  0  0  0  0  0  0  0  0  0
    7.1191   -7.3636   15.7739 C   0  0  0  0  0  0  0  0  0  0  0  0
    5.9612   -8.3203   17.2732 N   0  0  0  0  0  0  0  0  0  0  0  0
    8.5296   -5.9814   17.1841 C   0  0  0  0  0  0  0  0  0  0  0  0
    9.1527   -5.2118   16.2116 C   0  0  0  0  0  0  0  0  0  0  0  0
   10.3364   -3.8368   22.9255 O   0  0  0  0  0  0  0  0  0  0  0  0
    9.6947   -4.8407   18.8534 C   0  0  0  0  0  0  0  0  0  0  0  0
    9.1596    1.7042   24.1381 C   0  0  0  0  0  0  0  0  0  0  0  0
   11.0456   -2.9774   18.2694 N   0  0  0  0  0  0  0  0  0  0  0  0
   10.4788   -3.0457   21.8593 C   0  0  0  0  0  0  0  0  0  0  0  0
    8.8693   -5.8099   18.4657 N   0  0  0  0  0  0  0  0  0  0  0  0
    8.9892   -0.7926   25.4573 C   0  0  0  0  0  0  0  0  0  0  0  0
   10.5677   -3.4462   20.5323 C   0  0  0  0  0  0  0  0  0  0  0  0
  1  8  1  0
  1 12  4  0
  1 14  4  0
  2  3  4  0
  2 18  4  0
  3 20  4  0
  3 22  4  0
  4 11  4  0
  4 21  4  0
  5  9  4  0
  5 16  4  0
  6 15  4  0
  6 16  4  0
  7 22  4  0
  7 26  4  0
  8 10  4  0
  8 25  4  0
  9 15  4  0
  9 17  1  0
 10 21  4  0
 11 25  4  0
 12 23  4  0
 13 20  4  0
 13 26  4  0
 14 19  4  0
 17 18  4  0
 17 24  4  0
 19 23  4  0
 20 24  4  0
 23 26  1  0
M  END
$$$$

 Created by Python create_sdf_string function

 26 30  0  0  0  0  0  0  0  0999 V2000
   10.0084   -1.8019   23.4945 C   0  0  0  0  0  0  0  0  0  0  0  0
   10.0005   -4.2520   16.5631 C   0  0  0  0  0  0  0  0  0  0  0  0
   10.2759   -4.0036   17.8845 C   0  0  0  0  0  0  0  0  0  0  0  0
    8.5652    1.5478   25.3778 N   0  0  0  0  0  0  0  0  0  0  0  0
    6.8048   -7.5457   17.8752 C   0  0  0  0  0  0  0  0  0  0  0  0
    6.1721   -8.2186   15.9886 N   0  0  0  0  0  0  0  0  0  0  0  0
   11.1764   -2.6600   19.5604 C   0  0  0  0  0  0  0  0  0  0  0  0
    9.5491   -0.6380   24.1912 C   0  0  0  0  0  0  0  0  0  0  0  0
    7.5337   -6.9256   16.9519 C   0  0  0  0  0  0  0  0  0  0  0  0
    9.6782    0.5671   23.5143 C   0  0  0  0  0  0  0  0  0  0  0  0
    8.4532    0.3482   26.0821 C   0  0  0  0  0  0  0  0  0  0  0  0
   10.4239   -1.7677   22.2230 N   0  0  0  0  0  0  0  0  0  0  0  0
    9.9468   -4.5953   20.1709 C   0  0  0  0  0  0  0  0  0  0  0  0
   10.0366   -3.0590   23.9864 N   0  0  0  0  0  0  0  0  0  0  0  0
    7.1191   -7.3636   15.7739 C   0  0  0  0  0  0  0  0  0  0  0  0
    5.9612   -8.3203   17.2732 N   0  0  0  0  0  0  0  0  0  0  0  0
    8.5296   -5.9814   17.1841 C   0  0  0  0  0  0  0  0  0  0  0  0
    9.1527   -5.2118   16.2116 C   0  0  0  0  0  0  0  0  0  0  0  0
   10.3364   -3.8368   22.9255 O   0  0  0  0  0  0  0  0  0  0  0  0
    9.6947   -4.8407   18.8534 C   0  0  0  0  0  0  0  0  0  0  0  0
    9.1596    1.7042   24.1381 C   0  0  0  0  0  0  0  0  0  0  0  0
   11.0456   -2.9774   18.2694 N   0  0  0  0  0  0  0  0  0  0  0  0
   10.4788   -3.0457   21.8593 C   0  0  0  0  0  0  0  0  0  0  0  0
    8.8693   -5.8099   18.4657 N   0  0  0  0  0  0  0  0  0  0  0  0
    8.9892   -0.7926   25.4573 C   0  0  0  0  0  0  0  0  0  0  0  0
   10.5677   -3.4462   20.5323 C   0  0  0  0  0  0  0  0  0  0  0  0
  1  8  1  0
  1 12  4  0
  1 14  4  0
  2  3  4  0
  2 18  4  0
  3 20  4  0
  3 22  4  0
  4 11  4  0
  4 21  4  0
  5  9  4  0
  5 16  4  0
  6 15  4  0
  6 16  4  0
  7 22  4  0
  7 26  4  0
  8 10  4  0
  8 25  4  0
  9 15  4  0
  9 17  1  0
 10 21  4  0
 11 25  4  0
 12 23  4  0
 13 20  4  0
 13 26  4  0
 14 19  4  0
 17 18  4  0
 17 24  4  0
 19 23  4  0
 20 24  4  0
 23 26  1  0
M  END
$$$$

 Created by Python create_sdf_string function

 26 30  0  0  0  0  0  0  0  0999 V2000
   10.0084   -1.8019   23.4945 C   0  0  0  0  0  0  0  0  0  0  0  0
   10.0005   -4.2520   16.5631 C   0  0  0  0  0  0  0  0  0  0  0  0
   10.2759   -4.0036   17.8845 C   0  0  0  0  0  0  0  0  0  0  0  0
    8.5652    1.5478   25.3778 N   0  0  0  0  0  0  0  0  0  0  0  0
    6.8048   -7.5457   17.8752 C   0  0  0  0  0  0  0  0  0  0  0  0
    6.1721   -8.2186   15.9886 N   0  0  0  0  0  0  0  0  0  0  0  0
   11.1764   -2.6600   19.5604 C   0  0  0  0  0  0  0  0  0  0  0  0
    9.5491   -0.6380   24.1912 C   0  0  0  0  0  0  0  0  0  0  0  0
    7.5337   -6.9256   16.9519 C   0  0  0  0  0  0  0  0  0  0  0  0
    9.6782    0.5671   23.5143 C   0  0  0  0  0  0  0  0  0  0  0  0
    8.4532    0.3482   26.0821 C   0  0  0  0  0  0  0  0  0  0  0  0
   10.4239   -1.7677   22.2230 N   0  0  0  0  0  0  0  0  0  0  0  0
    9.9468   -4.5953   20.1709 C   0  0  0  0  0  0  0  0  0  0  0  0
   10.0366   -3.0590   23.9864 N   0  0  0  0  0  0  0  0  0  0  0  0
    7.1191   -7.3636   15.7739 C   0  0  0  0  0  0  0  0  0  0  0  0
    5.9612   -8.3203   17.2732 N   0  0  0  0  0  0  0  0  0  0  0  0
    8.5296   -5.9814   17.1841 C   0  0  0  0  0  0  0  0  0  0  0  0
    9.1527   -5.2118   16.2116 C   0  0  0  0  0  0  0  0  0  0  0  0
   10.3364   -3.8368   22.9255 O   0  0  0  0  0  0  0  0  0  0  0  0
    9.6947   -4.8407   18.8534 C   0  0  0  0  0  0  0  0  0  0  0  0
    9.1596    1.7042   24.1381 C   0  0  0  0  0  0  0  0  0  0  0  0
   11.0456   -2.9774   18.2694 N   0  0  0  0  0  0  0  0  0  0  0  0
   10.4788   -3.0457   21.8593 C   0  0  0  0  0  0  0  0  0  0  0  0
    8.8693   -5.8099   18.4657 N   0  0  0  0  0  0  0  0  0  0  0  0
    8.9892   -0.7926   25.4573 C   0  0  0  0  0  0  0  0  0  0  0  0
   10.5677   -3.4462   20.5323 C   0  0  0  0  0  0  0  0  0  0  0  0
  1  8  1  0
  1 12  4  0
  1 14  4  0
  2  3  4  0
  2 18  4  0
  3 20  4  0
  3 22  4  0
  4 11  4  0
  4 21  4  0
  5  9  4  0
  5 16  4  0
  6 15  4  0
  6 16  4  0
  7 22  4  0
  7 26  4  0
  8 10  4  0
  8 25  4  0
  9 15  4  0
  9 17  1  0
 10 21  4  0
 11 25  4  0
 12 23  4  0
 13 20  4  0
 13 26  4  0
 14 19  4  0
 17 18  4  0
 17 24  4  0
 19 23  4  0
 20 24  4  0
 23 26  1  0
M  END
$$$$

 Created by Python create_sdf_string function

 26 30  0  0  0  0  0  0  0  0999 V2000
   10.0084   -1.8019   23.4945 C   0  0  0  0  0  0  0  0  0  0  0  0
   10.0005   -4.2520   16.5631 C   0  0  0  0  0  0  0  0  0  0  0  0
   10.2759   -4.0036   17.8845 C   0  0  0  0  0  0  0  0  0  0  0  0
    8.5652    1.5478   25.3778 N   0  0  0  0  0  0  0  0  0  0  0  0
    6.8048   -7.5457   17.8752 C   0  0  0  0  0  0  0  0  0  0  0  0
    6.1721   -8.2186   15.9886 N   0  0  0  0  0  0  0  0  0  0  0  0
   11.1764   -2.6600   19.5604 C   0  0  0  0  0  0  0  0  0  0  0  0
    9.5491   -0.6380   24.1912 C   0  0  0  0  0  0  0  0  0  0  0  0
    7.5337   -6.9256   16.9519 C   0  0  0  0  0  0  0  0  0  0  0  0
    9.6782    0.5671   23.5143 C   0  0  0  0  0  0  0  0  0  0  0  0
    8.4532    0.3482   26.0821 C   0  0  0  0  0  0  0  0  0  0  0  0
   10.4239   -1.7677   22.2230 N   0  0  0  0  0  0  0  0  0  0  0  0
    9.9468   -4.5953   20.1709 C   0  0  0  0  0  0  0  0  0  0  0  0
   10.0366   -3.0590   23.9864 N   0  0  0  0  0  0  0  0  0  0  0  0
    7.1191   -7.3636   15.7739 C   0  0  0  0  0  0  0  0  0  0  0  0
    5.9612   -8.3203   17.2732 N   0  0  0  0  0  0  0  0  0  0  0  0
    8.5296   -5.9814   17.1841 C   0  0  0  0  0  0  0  0  0  0  0  0
    9.1527   -5.2118   16.2116 C   0  0  0  0  0  0  0  0  0  0  0  0
   10.3364   -3.8368   22.9255 O   0  0  0  0  0  0  0  0  0  0  0  0
    9.6947   -4.8407   18.8534 C   0  0  0  0  0  0  0  0  0  0  0  0
    9.1596    1.7042   24.1381 C   0  0  0  0  0  0  0  0  0  0  0  0
   11.0456   -2.9774   18.2694 N   0  0  0  0  0  0  0  0  0  0  0  0
   10.4788   -3.0457   21.8593 C   0  0  0  0  0  0  0  0  0  0  0  0
    8.8693   -5.8099   18.4657 N   0  0  0  0  0  0  0  0  0  0  0  0
    8.9892   -0.7926   25.4573 C   0  0  0  0  0  0  0  0  0  0  0  0
   10.5677   -3.4462   20.5323 C   0  0  0  0  0  0  0  0  0  0  0  0
  1  8  1  0
  1 12  4  0
  1 14  4  0
  2  3  4  0
  2 18  4  0
  3 20  4  0
  3 22  4  0
  4 11  4  0
  4 21  4  0
  5  9  4  0
  5 16  4  0
  6 15  4  0
  6 16  4  0
  7 22  4  0
  7 26  4  0
  8 10  4  0
  8 25  4  0
  9 15  4  0
  9 17  1  0
 10 21  4  0
 11 25  4  0
 12 23  4  0
 13 20  4  0
 13 26  4  0
 14 19  4  0
 17 18  4  0
 17 24  4  0
 19 23  4  0
 20 24  4  0
 23 26  1  0
M  END
$$$$

 Created by Python create_sdf_string function

 26 30  0  0  0  0  0  0  0  0999 V2000
   10.0084   -1.8019   23.4945 C   0  0  0  0  0  0  0  0  0  0  0  0
   10.0005   -4.2520   16.5631 C   0  0  0  0  0  0  0  0  0  0  0  0
   10.2759   -4.0036   17.8845 C   0  0  0  0  0  0  0  0  0  0  0  0
    8.5652    1.5478   25.3778 N   0  0  0  0  0  0  0  0  0  0  0  0
    6.8048   -7.5457   17.8752 C   0  0  0  0  0  0  0  0  0  0  0  0
    6.1721   -8.2186   15.9886 N   0  0  0  0  0  0  0  0  0  0  0  0
   11.1764   -2.6600   19.5604 C   0  0  0  0  0  0  0  0  0  0  0  0
    9.5491   -0.6380   24.1912 C   0  0  0  0  0  0  0  0  0  0  0  0
    7.5337   -6.9256   16.9519 C   0  0  0  0  0  0  0  0  0  0  0  0
    9.6782    0.5671   23.5143 C   0  0  0  0  0  0  0  0  0  0  0  0
    8.4532    0.3482   26.0821 C   0  0  0  0  0  0  0  0  0  0  0  0
   10.4239   -1.7677   22.2230 N   0  0  0  0  0  0  0  0  0  0  0  0
    9.9468   -4.5953   20.1709 C   0  0  0  0  0  0  0  0  0  0  0  0
   10.0366   -3.0590   23.9864 N   0  0  0  0  0  0  0  0  0  0  0  0
    7.1191   -7.3636   15.7739 C   0  0  0  0  0  0  0  0  0  0  0  0
    5.9612   -8.3203   17.2732 N   0  0  0  0  0  0  0  0  0  0  0  0
    8.5296   -5.9814   17.1841 C   0  0  0  0  0  0  0  0  0  0  0  0
    9.1527   -5.2118   16.2116 C   0  0  0  0  0  0  0  0  0  0  0  0
   10.3364   -3.8368   22.9255 O   0  0  0  0  0  0  0  0  0  0  0  0
    9.6947   -4.8407   18.8534 C   0  0  0  0  0  0  0  0  0  0  0  0
    9.1596    1.7042   24.1381 C   0  0  0  0  0  0  0  0  0  0  0  0
   11.0456   -2.9774   18.2694 N   0  0  0  0  0  0  0  0  0  0  0  0
   10.4788   -3.0457   21.8593 C   0  0  0  0  0  0  0  0  0  0  0  0
    8.8693   -5.8099   18.4657 N   0  0  0  0  0  0  0  0  0  0  0  0
    8.9892   -0.7926   25.4573 C   0  0  0  0  0  0  0  0  0  0  0  0
   10.5677   -3.4462   20.5323 C   0  0  0  0  0  0  0  0  0  0  0  0
  1  8  1  0
  1 12  4  0
  1 14  4  0
  2  3  4  0
  2 18  4  0
  3 20  4  0
  3 22  4  0
  4 11  4  0
  4 21  4  0
  5  9  4  0
  5 16  4  0
  6 15  4  0
  6 16  4  0
  7 22  4  0
  7 26  4  0
  8 10  4  0
  8 25  4  0
  9 15  4  0
  9 17  1  0
 10 21  4  0
 11 25  4  0
 12 23  4  0
 13 20  4  0
 13 26  4  0
 14 19  4  0
 17 18  4  0
 17 24  4  0
 19 23  4  0
 20 24  4  0
 23 26  1  0
M  END
$$$$

 Created by Python create_sdf_string function

 26 30  0  0  0  0  0  0  0  0999 V2000
   10.0084   -1.8019   23.4945 C   0  0  0  0  0  0  0  0  0  0  0  0
   10.0005   -4.2520   16.5631 C   0  0  0  0  0  0  0  0  0  0  0  0
   10.2759   -4.0036   17.8845 C   0  0  0  0  0  0  0  0  0  0  0  0
    8.5652    1.5478   25.3778 N   0  0  0  0  0  0  0  0  0  0  0  0
    6.8048   -7.5457   17.8752 C   0  0  0  0  0  0  0  0  0  0  0  0
    6.1721   -8.2186   15.9886 N   0  0  0  0  0  0  0  0  0  0  0  0
   11.1764   -2.6600   19.5604 C   0  0  0  0  0  0  0  0  0  0  0  0
    9.5491   -0.6380   24.1912 C   0  0  0  0  0  0  0  0  0  0  0  0
    7.5337   -6.9256   16.9519 C   0  0  0  0  0  0  0  0  0  0  0  0
    9.6782    0.5671   23.5143 C   0  0  0  0  0  0  0  0  0  0  0  0
    8.4532    0.3482   26.0821 C   0  0  0  0  0  0  0  0  0  0  0  0
   10.4239   -1.7677   22.2230 N   0  0  0  0  0  0  0  0  0  0  0  0
    9.9468   -4.5953   20.1709 C   0  0  0  0  0  0  0  0  0  0  0  0
   10.0366   -3.0590   23.9864 N   0  0  0  0  0  0  0  0  0  0  0  0
    7.1191   -7.3636   15.7739 C   0  0  0  0  0  0  0  0  0  0  0  0
    5.9612   -8.3203   17.2732 N   0  0  0  0  0  0  0  0  0  0  0  0
    8.5296   -5.9814   17.1841 C   0  0  0  0  0  0  0  0  0  0  0  0
    9.1527   -5.2118   16.2116 C   0  0  0  0  0  0  0  0  0  0  0  0
   10.3364   -3.8368   22.9255 O   0  0  0  0  0  0  0  0  0  0  0  0
    9.6947   -4.8407   18.8534 C   0  0  0  0  0  0  0  0  0  0  0  0
    9.1596    1.7042   24.1381 C   0  0  0  0  0  0  0  0  0  0  0  0
   11.0456   -2.9774   18.2694 N   0  0  0  0  0  0  0  0  0  0  0  0
   10.4788   -3.0457   21.8593 C   0  0  0  0  0  0  0  0  0  0  0  0
    8.8693   -5.8099   18.4657 N   0  0  0  0  0  0  0  0  0  0  0  0
    8.9892   -0.7926   25.4573 C   0  0  0  0  0  0  0  0  0  0  0  0
   10.5677   -3.4462   20.5323 C   0  0  0  0  0  0  0  0  0  0  0  0
  1  8  1  0
  1 12  4  0
  1 14  4  0
  2  3  4  0
  2 18  4  0
  3 20  4  0
  3 22  4  0
  4 11  4  0
  4 21  4  0
  5  9  4  0
  5 16  4  0
  6 15  4  0
  6 16  4  0
  7 22  4  0
  7 26  4  0
  8 10  4  0
  8 25  4  0
  9 15  4  0
  9 17  1  0
 10 21  4  0
 11 25  4  0
 12 23  4  0
 13 20  4  0
 13 26  4  0
 14 19  4  0
 17 18  4  0
 17 24  4  0
 19 23  4  0
 20 24  4  0
 23 26  1  0
M  END
$$$$

 Created by Python create_sdf_string function

 26 30  0  0  0  0  0  0  0  0999 V2000
   10.0084   -1.8019   23.4945 C   0  0  0  0  0  0  0  0  0  0  0  0
   10.0005   -4.2520   16.5631 C   0  0  0  0  0  0  0  0  0  0  0  0
   10.2759   -4.0036   17.8845 C   0  0  0  0  0  0  0  0  0  0  0  0
    8.5652    1.5478   25.3778 N   0  0  0  0  0  0  0  0  0  0  0  0
    6.8048   -7.5457   17.8752 C   0  0  0  0  0  0  0  0  0  0  0  0
    6.1721   -8.2186   15.9886 N   0  0  0  0  0  0  0  0  0  0  0  0
   11.1764   -2.6600   19.5604 C   0  0  0  0  0  0  0  0  0  0  0  0
    9.5491   -0.6380   24.1912 C   0  0  0  0  0  0  0  0  0  0  0  0
    7.5337   -6.9256   16.9519 C   0  0  0  0  0  0  0  0  0  0  0  0
    9.6782    0.5671   23.5143 C   0  0  0  0  0  0  0  0  0  0  0  0
    8.4532    0.3482   26.0821 C   0  0  0  0  0  0  0  0  0  0  0  0
   10.4239   -1.7677   22.2230 N   0  0  0  0  0  0  0  0  0  0  0  0
    9.9468   -4.5953   20.1709 C   0  0  0  0  0  0  0  0  0  0  0  0
   10.0366   -3.0590   23.9864 N   0  0  0  0  0  0  0  0  0  0  0  0
    7.1191   -7.3636   15.7739 C   0  0  0  0  0  0  0  0  0  0  0  0
    5.9612   -8.3203   17.2732 N   0  0  0  0  0  0  0  0  0  0  0  0
    8.5296   -5.9814   17.1841 C   0  0  0  0  0  0  0  0  0  0  0  0
    9.1527   -5.2118   16.2116 C   0  0  0  0  0  0  0  0  0  0  0  0
   10.3364   -3.8368   22.9255 O   0  0  0  0  0  0  0  0  0  0  0  0
    9.6947   -4.8407   18.8534 C   0  0  0  0  0  0  0  0  0  0  0  0
    9.1596    1.7042   24.1381 C   0  0  0  0  0  0  0  0  0  0  0  0
   11.0456   -2.9774   18.2694 N   0  0  0  0  0  0  0  0  0  0  0  0
   10.4788   -3.0457   21.8593 C   0  0  0  0  0  0  0  0  0  0  0  0
    8.8693   -5.8099   18.4657 N   0  0  0  0  0  0  0  0  0  0  0  0
    8.9892   -0.7926   25.4573 C   0  0  0  0  0  0  0  0  0  0  0  0
   10.5677   -3.4462   20.5323 C   0  0  0  0  0  0  0  0  0  0  0  0
  1  8  1  0
  1 12  4  0
  1 14  4  0
  2  3  4  0
  2 18  4  0
  3 20  4  0
  3 22  4  0
  4 11  4  0
  4 21  4  0
  5  9  4  0
  5 16  4  0
  6 15  4  0
  6 16  4  0
  7 22  4  0
  7 26  4  0
  8 10  4  0
  8 25  4  0
  9 15  4  0
  9 17  1  0
 10 21  4  0
 11 25  4  0
 12 23  4  0
 13 20  4  0
 13 26  4  0
 14 19  4  0
 17 18  4  0
 17 24  4  0
 19 23  4  0
 20 24  4  0
 23 26  1  0
M  END
$$$$

 Created by Python create_sdf_string function

 26 30  0  0  0  0  0  0  0  0999 V2000
   10.0084   -1.8019   23.4945 C   0  0  0  0  0  0  0  0  0  0  0  0
   10.0005   -4.2520   16.5631 C   0  0  0  0  0  0  0  0  0  0  0  0
   10.2759   -4.0036   17.8845 C   0  0  0  0  0  0  0  0  0  0  0  0
    8.5652    1.5478   25.3778 N   0  0  0  0  0  0  0  0  0  0  0  0
    6.8048   -7.5457   17.8752 C   0  0  0  0  0  0  0  0  0  0  0  0
    6.1721   -8.2186   15.9886 N   0  0  0  0  0  0  0  0  0  0  0  0
   11.1764   -2.6600   19.5604 C   0  0  0  0  0  0  0  0  0  0  0  0
    9.5491   -0.6380   24.1912 C   0  0  0  0  0  0  0  0  0  0  0  0
    7.5337   -6.9256   16.9519 C   0  0  0  0  0  0  0  0  0  0  0  0
    9.6782    0.5671   23.5143 C   0  0  0  0  0  0  0  0  0  0  0  0
    8.4532    0.3482   26.0821 C   0  0  0  0  0  0  0  0  0  0  0  0
   10.4239   -1.7677   22.2230 N   0  0  0  0  0  0  0  0  0  0  0  0
    9.9468   -4.5953   20.1709 C   0  0  0  0  0  0  0  0  0  0  0  0
   10.0366   -3.0590   23.9864 N   0  0  0  0  0  0  0  0  0  0  0  0
    7.1191   -7.3636   15.7739 C   0  0  0  0  0  0  0  0  0  0  0  0
    5.9612   -8.3203   17.2732 N   0  0  0  0  0  0  0  0  0  0  0  0
    8.5296   -5.9814   17.1841 C   0  0  0  0  0  0  0  0  0  0  0  0
    9.1527   -5.2118   16.2116 C   0  0  0  0  0  0  0  0  0  0  0  0
   10.3364   -3.8368   22.9255 O   0  0  0  0  0  0  0  0  0  0  0  0
    9.6947   -4.8407   18.8534 C   0  0  0  0  0  0  0  0  0  0  0  0
    9.1596    1.7042   24.1381 C   0  0  0  0  0  0  0  0  0  0  0  0
   11.0456   -2.9774   18.2694 N   0  0  0  0  0  0  0  0  0  0  0  0
   10.4788   -3.0457   21.8593 C   0  0  0  0  0  0  0  0  0  0  0  0
    8.8693   -5.8099   18.4657 N   0  0  0  0  0  0  0  0  0  0  0  0
    8.9892   -0.7926   25.4573 C   0  0  0  0  0  0  0  0  0  0  0  0
   10.5677   -3.4462   20.5323 C   0  0  0  0  0  0  0  0  0  0  0  0
  1  8  1  0
  1 12  4  0
  1 14  4  0
  2  3  4  0
  2 18  4  0
  3 20  4  0
  3 22  4  0
  4 11  4  0
  4 21  4  0
  5  9  4  0
  5 16  4  0
  6 15  4  0
  6 16  4  0
  7 22  4  0
  7 26  4  0
  8 10  4  0
  8 25  4  0
  9 15  4  0
  9 17  1  0
 10 21  4  0
 11 25  4  0
 12 23  4  0
 13 20  4  0
 13 26  4  0
 14 19  4  0
 17 18  4  0
 17 24  4  0
 19 23  4  0
 20 24  4  0
 23 26  1  0
M  END
$$$$

 Created by Python create_sdf_string function

 26 30  0  0  0  0  0  0  0  0999 V2000
   10.0084   -1.8019   23.4945 C   0  0  0  0  0  0  0  0  0  0  0  0
   10.0005   -4.2520   16.5631 C   0  0  0  0  0  0  0  0  0  0  0  0
   10.2759   -4.0036   17.8845 C   0  0  0  0  0  0  0  0  0  0  0  0
    8.5652    1.5478   25.3778 N   0  0  0  0  0  0  0  0  0  0  0  0
    6.8048   -7.5457   17.8752 C   0  0  0  0  0  0  0  0  0  0  0  0
    6.1721   -8.2186   15.9886 N   0  0  0  0  0  0  0  0  0  0  0  0
   11.1764   -2.6600   19.5604 C   0  0  0  0  0  0  0  0  0  0  0  0
    9.5491   -0.6380   24.1912 C   0  0  0  0  0  0  0  0  0  0  0  0
    7.5337   -6.9256   16.9519 C   0  0  0  0  0  0  0  0  0  0  0  0
    9.6782    0.5671   23.5143 C   0  0  0  0  0  0  0  0  0  0  0  0
    8.4532    0.3482   26.0821 C   0  0  0  0  0  0  0  0  0  0  0  0
   10.4239   -1.7677   22.2230 N   0  0  0  0  0  0  0  0  0  0  0  0
    9.9468   -4.5953   20.1709 C   0  0  0  0  0  0  0  0  0  0  0  0
   10.0366   -3.0590   23.9864 N   0  0  0  0  0  0  0  0  0  0  0  0
    7.1191   -7.3636   15.7739 C   0  0  0  0  0  0  0  0  0  0  0  0
    5.9612   -8.3203   17.2732 N   0  0  0  0  0  0  0  0  0  0  0  0
    8.5296   -5.9814   17.1841 C   0  0  0  0  0  0  0  0  0  0  0  0
    9.1527   -5.2118   16.2116 C   0  0  0  0  0  0  0  0  0  0  0  0
   10.3364   -3.8368   22.9255 O   0  0  0  0  0  0  0  0  0  0  0  0
    9.6947   -4.8407   18.8534 C   0  0  0  0  0  0  0  0  0  0  0  0
    9.1596    1.7042   24.1381 C   0  0  0  0  0  0  0  0  0  0  0  0
   11.0456   -2.9774   18.2694 N   0  0  0  0  0  0  0  0  0  0  0  0
   10.4788   -3.0457   21.8593 C   0  0  0  0  0  0  0  0  0  0  0  0
    8.8693   -5.8099   18.4657 N   0  0  0  0  0  0  0  0  0  0  0  0
    8.9892   -0.7926   25.4573 C   0  0  0  0  0  0  0  0  0  0  0  0
   10.5677   -3.4462   20.5323 C   0  0  0  0  0  0  0  0  0  0  0  0
  1  8  1  0
  1 12  4  0
  1 14  4  0
  2  3  4  0
  2 18  4  0
  3 20  4  0
  3 22  4  0
  4 11  4  0
  4 21  4  0
  5  9  4  0
  5 16  4  0
  6 15  4  0
  6 16  4  0
  7 22  4  0
  7 26  4  0
  8 10  4  0
  8 25  4  0
  9 15  4  0
  9 17  1  0
 10 21  4  0
 11 25  4  0
 12 23  4  0
 13 20  4  0
 13 26  4  0
 14 19  4  0
 17 18  4  0
 17 24  4  0
 19 23  4  0
 20 24  4  0
 23 26  1  0
M  END
$$$$

 Created by Python create_sdf_string function

 26 30  0  0  0  0  0  0  0  0999 V2000
   10.0084   -1.8019   23.4945 C   0  0  0  0  0  0  0  0  0  0  0  0
   10.0005   -4.2520   16.5631 C   0  0  0  0  0  0  0  0  0  0  0  0
   10.2759   -4.0036   17.8845 C   0  0  0  0  0  0  0  0  0  0  0  0
    8.5652    1.5478   25.3778 N   0  0  0  0  0  0  0  0  0  0  0  0
    6.8048   -7.5457   17.8752 C   0  0  0  0  0  0  0  0  0  0  0  0
    6.1721   -8.2186   15.9886 N   0  0  0  0  0  0  0  0  0  0  0  0
   11.1764   -2.6600   19.5604 C   0  0  0  0  0  0  0  0  0  0  0  0
    9.5491   -0.6380   24.1912 C   0  0  0  0  0  0  0  0  0  0  0  0
    7.5337   -6.9256   16.9519 C   0  0  0  0  0  0  0  0  0  0  0  0
    9.6782    0.5671   23.5143 C   0  0  0  0  0  0  0  0  0  0  0  0
    8.4532    0.3482   26.0821 C   0  0  0  0  0  0  0  0  0  0  0  0
   10.4239   -1.7677   22.2230 N   0  0  0  0  0  0  0  0  0  0  0  0
    9.9468   -4.5953   20.1709 C   0  0  0  0  0  0  0  0  0  0  0  0
   10.0366   -3.0590   23.9864 N   0  0  0  0  0  0  0  0  0  0  0  0
    7.1191   -7.3636   15.7739 C   0  0  0  0  0  0  0  0  0  0  0  0
    5.9612   -8.3203   17.2732 N   0  0  0  0  0  0  0  0  0  0  0  0
    8.5296   -5.9814   17.1841 C   0  0  0  0  0  0  0  0  0  0  0  0
    9.1527   -5.2118   16.2116 C   0  0  0  0  0  0  0  0  0  0  0  0
   10.3364   -3.8368   22.9255 O   0  0  0  0  0  0  0  0  0  0  0  0
    9.6947   -4.8407   18.8534 C   0  0  0  0  0  0  0  0  0  0  0  0
    9.1596    1.7042   24.1381 C   0  0  0  0  0  0  0  0  0  0  0  0
   11.0456   -2.9774   18.2694 N   0  0  0  0  0  0  0  0  0  0  0  0
   10.4788   -3.0457   21.8593 C   0  0  0  0  0  0  0  0  0  0  0  0
    8.8693   -5.8099   18.4657 N   0  0  0  0  0  0  0  0  0  0  0  0
    8.9892   -0.7926   25.4573 C   0  0  0  0  0  0  0  0  0  0  0  0
   10.5677   -3.4462   20.5323 C   0  0  0  0  0  0  0  0  0  0  0  0
  1  8  1  0
  1 12  4  0
  1 14  4  0
  2  3  4  0
  2 18  4  0
  3 20  4  0
  3 22  4  0
  4 11  4  0
  4 21  4  0
  5  9  4  0
  5 16  4  0
  6 15  4  0
  6 16  4  0
  7 22  4  0
  7 26  4  0
  8 10  4  0
  8 25  4  0
  9 15  4  0
  9 17  1  0
 10 21  4  0
 11 25  4  0
 12 23  4  0
 13 20  4  0
 13 26  4  0
 14 19  4  0
 17 18  4  0
 17 24  4  0
 19 23  4  0
 20 24  4  0
 23 26  1  0
M  END
$$$$

 Created by Python create_sdf_string function

 26 30  0  0  0  0  0  0  0  0999 V2000
   10.0084   -1.8019   23.4945 C   0  0  0  0  0  0  0  0  0  0  0  0
   10.0005   -4.2520   16.5631 C   0  0  0  0  0  0  0  0  0  0  0  0
   10.2759   -4.0036   17.8845 C   0  0  0  0  0  0  0  0  0  0  0  0
    8.5652    1.5478   25.3778 N   0  0  0  0  0  0  0  0  0  0  0  0
    6.8048   -7.5457   17.8752 C   0  0  0  0  0  0  0  0  0  0  0  0
    6.1721   -8.2186   15.9886 N   0  0  0  0  0  0  0  0  0  0  0  0
   11.1764   -2.6600   19.5604 C   0  0  0  0  0  0  0  0  0  0  0  0
    9.5491   -0.6380   24.1912 C   0  0  0  0  0  0  0  0  0  0  0  0
    7.5337   -6.9256   16.9519 C   0  0  0  0  0  0  0  0  0  0  0  0
    9.6782    0.5671   23.5143 C   0  0  0  0  0  0  0  0  0  0  0  0
    8.4532    0.3482   26.0821 C   0  0  0  0  0  0  0  0  0  0  0  0
   10.4239   -1.7677   22.2230 N   0  0  0  0  0  0  0  0  0  0  0  0
    9.9468   -4.5953   20.1709 C   0  0  0  0  0  0  0  0  0  0  0  0
   10.0366   -3.0590   23.9864 N   0  0  0  0  0  0  0  0  0  0  0  0
    7.1191   -7.3636   15.7739 C   0  0  0  0  0  0  0  0  0  0  0  0
    5.9612   -8.3203   17.2732 N   0  0  0  0  0  0  0  0  0  0  0  0
    8.5296   -5.9814   17.1841 C   0  0  0  0  0  0  0  0  0  0  0  0
    9.1527   -5.2118   16.2116 C   0  0  0  0  0  0  0  0  0  0  0  0
   10.3364   -3.8368   22.9255 O   0  0  0  0  0  0  0  0  0  0  0  0
    9.6947   -4.8407   18.8534 C   0  0  0  0  0  0  0  0  0  0  0  0
    9.1596    1.7042   24.1381 C   0  0  0  0  0  0  0  0  0  0  0  0
   11.0456   -2.9774   18.2694 N   0  0  0  0  0  0  0  0  0  0  0  0
   10.4788   -3.0457   21.8593 C   0  0  0  0  0  0  0  0  0  0  0  0
    8.8693   -5.8099   18.4657 N   0  0  0  0  0  0  0  0  0  0  0  0
    8.9892   -0.7926   25.4573 C   0  0  0  0  0  0  0  0  0  0  0  0
   10.5677   -3.4462   20.5323 C   0  0  0  0  0  0  0  0  0  0  0  0
  1  8  1  0
  1 12  4  0
  1 14  4  0
  2  3  4  0
  2 18  4  0
  3 20  4  0
  3 22  4  0
  4 11  4  0
  4 21  4  0
  5  9  4  0
  5 16  4  0
  6 15  4  0
  6 16  4  0
  7 22  4  0
  7 26  4  0
  8 10  4  0
  8 25  4  0
  9 15  4  0
  9 17  1  0
 10 21  4  0
 11 25  4  0
 12 23  4  0
 13 20  4  0
 13 26  4  0
 14 19  4  0
 17 18  4  0
 17 24  4  0
 19 23  4  0
 20 24  4  0
 23 26  1  0
M  END
$$$$

 Created by Python create_sdf_string function

 26 30  0  0  0  0  0  0  0  0999 V2000
   10.0084   -1.8019   23.4945 C   0  0  0  0  0  0  0  0  0  0  0  0
   10.0005   -4.2520   16.5631 C   0  0  0  0  0  0  0  0  0  0  0  0
   10.2759   -4.0036   17.8845 C   0  0  0  0  0  0  0  0  0  0  0  0
    8.5652    1.5478   25.3778 N   0  0  0  0  0  0  0  0  0  0  0  0
    6.8048   -7.5457   17.8752 C   0  0  0  0  0  0  0  0  0  0  0  0
    6.1721   -8.2186   15.9886 N   0  0  0  0  0  0  0  0  0  0  0  0
   11.1764   -2.6600   19.5604 C   0  0  0  0  0  0  0  0  0  0  0  0
    9.5491   -0.6380   24.1912 C   0  0  0  0  0  0  0  0  0  0  0  0
    7.5337   -6.9256   16.9519 C   0  0  0  0  0  0  0  0  0  0  0  0
    9.6782    0.5671   23.5143 C   0  0  0  0  0  0  0  0  0  0  0  0
    8.4532    0.3482   26.0821 C   0  0  0  0  0  0  0  0  0  0  0  0
   10.4239   -1.7677   22.2230 N   0  0  0  0  0  0  0  0  0  0  0  0
    9.9468   -4.5953   20.1709 C   0  0  0  0  0  0  0  0  0  0  0  0
   10.0366   -3.0590   23.9864 N   0  0  0  0  0  0  0  0  0  0  0  0
    7.1191   -7.3636   15.7739 C   0  0  0  0  0  0  0  0  0  0  0  0
    5.9612   -8.3203   17.2732 N   0  0  0  0  0  0  0  0  0  0  0  0
    8.5296   -5.9814   17.1841 C   0  0  0  0  0  0  0  0  0  0  0  0
    9.1527   -5.2118   16.2116 C   0  0  0  0  0  0  0  0  0  0  0  0
   10.3364   -3.8368   22.9255 O   0  0  0  0  0  0  0  0  0  0  0  0
    9.6947   -4.8407   18.8534 C   0  0  0  0  0  0  0  0  0  0  0  0
    9.1596    1.7042   24.1381 C   0  0  0  0  0  0  0  0  0  0  0  0
   11.0456   -2.9774   18.2694 N   0  0  0  0  0  0  0  0  0  0  0  0
   10.4788   -3.0457   21.8593 C   0  0  0  0  0  0  0  0  0  0  0  0
    8.8693   -5.8099   18.4657 N   0  0  0  0  0  0  0  0  0  0  0  0
    8.9892   -0.7926   25.4573 C   0  0  0  0  0  0  0  0  0  0  0  0
   10.5677   -3.4462   20.5323 C   0  0  0  0  0  0  0  0  0  0  0  0
  1  8  1  0
  1 12  4  0
  1 14  4  0
  2  3  4  0
  2 18  4  0
  3 20  4  0
  3 22  4  0
  4 11  4  0
  4 21  4  0
  5  9  4  0
  5 16  4  0
  6 15  4  0
  6 16  4  0
  7 22  4  0
  7 26  4  0
  8 10  4  0
  8 25  4  0
  9 15  4  0
  9 17  1  0
 10 21  4  0
 11 25  4  0
 12 23  4  0
 13 20  4  0
 13 26  4  0
 14 19  4  0
 17 18  4  0
 17 24  4  0
 19 23  4  0
 20 24  4  0
 23 26  1  0
M  END
$$$$

 Created by Python create_sdf_string function

 26 30  0  0  0  0  0  0  0  0999 V2000
   10.0084   -1.8019   23.4945 C   0  0  0  0  0  0  0  0  0  0  0  0
   10.0005   -4.2520   16.5631 C   0  0  0  0  0  0  0  0  0  0  0  0
   10.2759   -4.0036   17.8845 C   0  0  0  0  0  0  0  0  0  0  0  0
    8.5652    1.5478   25.3778 N   0  0  0  0  0  0  0  0  0  0  0  0
    6.8048   -7.5457   17.8752 C   0  0  0  0  0  0  0  0  0  0  0  0
    6.1721   -8.2186   15.9886 N   0  0  0  0  0  0  0  0  0  0  0  0
   11.1764   -2.6600   19.5604 C   0  0  0  0  0  0  0  0  0  0  0  0
    9.5491   -0.6380   24.1912 C   0  0  0  0  0  0  0  0  0  0  0  0
    7.5337   -6.9256   16.9519 C   0  0  0  0  0  0  0  0  0  0  0  0
    9.6782    0.5671   23.5143 C   0  0  0  0  0  0  0  0  0  0  0  0
    8.4532    0.3482   26.0821 C   0  0  0  0  0  0  0  0  0  0  0  0
   10.4239   -1.7677   22.2230 N   0  0  0  0  0  0  0  0  0  0  0  0
    9.9468   -4.5953   20.1709 C   0  0  0  0  0  0  0  0  0  0  0  0
   10.0366   -3.0590   23.9864 N   0  0  0  0  0  0  0  0  0  0  0  0
    7.1191   -7.3636   15.7739 C   0  0  0  0  0  0  0  0  0  0  0  0
    5.9612   -8.3203   17.2732 N   0  0  0  0  0  0  0  0  0  0  0  0
    8.5296   -5.9814   17.1841 C   0  0  0  0  0  0  0  0  0  0  0  0
    9.1527   -5.2118   16.2116 C   0  0  0  0  0  0  0  0  0  0  0  0
   10.3364   -3.8368   22.9255 O   0  0  0  0  0  0  0  0  0  0  0  0
    9.6947   -4.8407   18.8534 C   0  0  0  0  0  0  0  0  0  0  0  0
    9.1596    1.7042   24.1381 C   0  0  0  0  0  0  0  0  0  0  0  0
   11.0456   -2.9774   18.2694 N   0  0  0  0  0  0  0  0  0  0  0  0
   10.4788   -3.0457   21.8593 C   0  0  0  0  0  0  0  0  0  0  0  0
    8.8693   -5.8099   18.4657 N   0  0  0  0  0  0  0  0  0  0  0  0
    8.9892   -0.7926   25.4573 C   0  0  0  0  0  0  0  0  0  0  0  0
   10.5677   -3.4462   20.5323 C   0  0  0  0  0  0  0  0  0  0  0  0
  1  8  1  0
  1 12  4  0
  1 14  4  0
  2  3  4  0
  2 18  4  0
  3 20  4  0
  3 22  4  0
  4 11  4  0
  4 21  4  0
  5  9  4  0
  5 16  4  0
  6 15  4  0
  6 16  4  0
  7 22  4  0
  7 26  4  0
  8 10  4  0
  8 25  4  0
  9 15  4  0
  9 17  1  0
 10 21  4  0
 11 25  4  0
 12 23  4  0
 13 20  4  0
 13 26  4  0
 14 19  4  0
 17 18  4  0
 17 24  4  0
 19 23  4  0
 20 24  4  0
 23 26  1  0
M  END
$$$$

 Created by Python create_sdf_string function

 26 30  0  0  0  0  0  0  0  0999 V2000
   10.0084   -1.8019   23.4945 C   0  0  0  0  0  0  0  0  0  0  0  0
   10.0005   -4.2520   16.5631 C   0  0  0  0  0  0  0  0  0  0  0  0
   10.2759   -4.0036   17.8845 C   0  0  0  0  0  0  0  0  0  0  0  0
    8.5652    1.5478   25.3778 N   0  0  0  0  0  0  0  0  0  0  0  0
    6.8048   -7.5457   17.8752 C   0  0  0  0  0  0  0  0  0  0  0  0
    6.1721   -8.2186   15.9886 N   0  0  0  0  0  0  0  0  0  0  0  0
   11.1764   -2.6600   19.5604 C   0  0  0  0  0  0  0  0  0  0  0  0
    9.5491   -0.6380   24.1912 C   0  0  0  0  0  0  0  0  0  0  0  0
    7.5337   -6.9256   16.9519 C   0  0  0  0  0  0  0  0  0  0  0  0
    9.6782    0.5671   23.5143 C   0  0  0  0  0  0  0  0  0  0  0  0
    8.4532    0.3482   26.0821 C   0  0  0  0  0  0  0  0  0  0  0  0
   10.4239   -1.7677   22.2230 N   0  0  0  0  0  0  0  0  0  0  0  0
    9.9468   -4.5953   20.1709 C   0  0  0  0  0  0  0  0  0  0  0  0
   10.0366   -3.0590   23.9864 N   0  0  0  0  0  0  0  0  0  0  0  0
    7.1191   -7.3636   15.7739 C   0  0  0  0  0  0  0  0  0  0  0  0
    5.9612   -8.3203   17.2732 N   0  0  0  0  0  0  0  0  0  0  0  0
    8.5296   -5.9814   17.1841 C   0  0  0  0  0  0  0  0  0  0  0  0
    9.1527   -5.2118   16.2116 C   0  0  0  0  0  0  0  0  0  0  0  0
   10.3364   -3.8368   22.9255 O   0  0  0  0  0  0  0  0  0  0  0  0
    9.6947   -4.8407   18.8534 C   0  0  0  0  0  0  0  0  0  0  0  0
    9.1596    1.7042   24.1381 C   0  0  0  0  0  0  0  0  0  0  0  0
   11.0456   -2.9774   18.2694 N   0  0  0  0  0  0  0  0  0  0  0  0
   10.4788   -3.0457   21.8593 C   0  0  0  0  0  0  0  0  0  0  0  0
    8.8693   -5.8099   18.4657 N   0  0  0  0  0  0  0  0  0  0  0  0
    8.9892   -0.7926   25.4573 C   0  0  0  0  0  0  0  0  0  0  0  0
   10.5677   -3.4462   20.5323 C   0  0  0  0  0  0  0  0  0  0  0  0
  1  8  1  0
  1 12  4  0
  1 14  4  0
  2  3  4  0
  2 18  4  0
  3 20  4  0
  3 22  4  0
  4 11  4  0
  4 21  4  0
  5  9  4  0
  5 16  4  0
  6 15  4  0
  6 16  4  0
  7 22  4  0
  7 26  4  0
  8 10  4  0
  8 25  4  0
  9 15  4  0
  9 17  1  0
 10 21  4  0
 11 25  4  0
 12 23  4  0
 13 20  4  0
 13 26  4  0
 14 19  4  0
 17 18  4  0
 17 24  4  0
 19 23  4  0
 20 24  4  0
 23 26  1  0
M  END
$$$$

 Created by Python create_sdf_string function

 26 30  0  0  0  0  0  0  0  0999 V2000
   10.0084   -1.8019   23.4945 C   0  0  0  0  0  0  0  0  0  0  0  0
   10.0005   -4.2520   16.5631 C   0  0  0  0  0  0  0  0  0  0  0  0
   10.2759   -4.0036   17.8845 C   0  0  0  0  0  0  0  0  0  0  0  0
    8.5652    1.5478   25.3778 N   0  0  0  0  0  0  0  0  0  0  0  0
    6.8048   -7.5457   17.8752 C   0  0  0  0  0  0  0  0  0  0  0  0
    6.1721   -8.2186   15.9886 N   0  0  0  0  0  0  0  0  0  0  0  0
   11.1764   -2.6600   19.5604 C   0  0  0  0  0  0  0  0  0  0  0  0
    9.5491   -0.6380   24.1912 C   0  0  0  0  0  0  0  0  0  0  0  0
    7.5337   -6.9256   16.9519 C   0  0  0  0  0  0  0  0  0  0  0  0
    9.6782    0.5671   23.5143 C   0  0  0  0  0  0  0  0  0  0  0  0
    8.4532    0.3482   26.0821 C   0  0  0  0  0  0  0  0  0  0  0  0
   10.4239   -1.7677   22.2230 N   0  0  0  0  0  0  0  0  0  0  0  0
    9.9468   -4.5953   20.1709 C   0  0  0  0  0  0  0  0  0  0  0  0
   10.0366   -3.0590   23.9864 N   0  0  0  0  0  0  0  0  0  0  0  0
    7.1191   -7.3636   15.7739 C   0  0  0  0  0  0  0  0  0  0  0  0
    5.9612   -8.3203   17.2732 N   0  0  0  0  0  0  0  0  0  0  0  0
    8.5296   -5.9814   17.1841 C   0  0  0  0  0  0  0  0  0  0  0  0
    9.1527   -5.2118   16.2116 C   0  0  0  0  0  0  0  0  0  0  0  0
   10.3364   -3.8368   22.9255 O   0  0  0  0  0  0  0  0  0  0  0  0
    9.6947   -4.8407   18.8534 C   0  0  0  0  0  0  0  0  0  0  0  0
    9.1596    1.7042   24.1381 C   0  0  0  0  0  0  0  0  0  0  0  0
   11.0456   -2.9774   18.2694 N   0  0  0  0  0  0  0  0  0  0  0  0
   10.4788   -3.0457   21.8593 C   0  0  0  0  0  0  0  0  0  0  0  0
    8.8693   -5.8099   18.4657 N   0  0  0  0  0  0  0  0  0  0  0  0
    8.9892   -0.7926   25.4573 C   0  0  0  0  0  0  0  0  0  0  0  0
   10.5677   -3.4462   20.5323 C   0  0  0  0  0  0  0  0  0  0  0  0
  1  8  1  0
  1 12  4  0
  1 14  4  0
  2  3  4  0
  2 18  4  0
  3 20  4  0
  3 22  4  0
  4 11  4  0
  4 21  4  0
  5  9  4  0
  5 16  4  0
  6 15  4  0
  6 16  4  0
  7 22  4  0
  7 26  4  0
  8 10  4  0
  8 25  4  0
  9 15  4  0
  9 17  1  0
 10 21  4  0
 11 25  4  0
 12 23  4  0
 13 20  4  0
 13 26  4  0
 14 19  4  0
 17 18  4  0
 17 24  4  0
 19 23  4  0
 20 24  4  0
 23 26  1  0
M  END
$$$$

 Created by Python create_sdf_string function

 26 30  0  0  0  0  0  0  0  0999 V2000
   10.0084   -1.8019   23.4945 C   0  0  0  0  0  0  0  0  0  0  0  0
   10.0005   -4.2520   16.5631 C   0  0  0  0  0  0  0  0  0  0  0  0
   10.2759   -4.0036   17.8845 C   0  0  0  0  0  0  0  0  0  0  0  0
    8.5652    1.5478   25.3778 N   0  0  0  0  0  0  0  0  0  0  0  0
    6.8048   -7.5457   17.8752 C   0  0  0  0  0  0  0  0  0  0  0  0
    6.1721   -8.2186   15.9886 N   0  0  0  0  0  0  0  0  0  0  0  0
   11.1764   -2.6600   19.5604 C   0  0  0  0  0  0  0  0  0  0  0  0
    9.5491   -0.6380   24.1912 C   0  0  0  0  0  0  0  0  0  0  0  0
    7.5337   -6.9256   16.9519 C   0  0  0  0  0  0  0  0  0  0  0  0
    9.6782    0.5671   23.5143 C   0  0  0  0  0  0  0  0  0  0  0  0
    8.4532    0.3482   26.0821 C   0  0  0  0  0  0  0  0  0  0  0  0
   10.4239   -1.7677   22.2230 N   0  0  0  0  0  0  0  0  0  0  0  0
    9.9468   -4.5953   20.1709 C   0  0  0  0  0  0  0  0  0  0  0  0
   10.0366   -3.0590   23.9864 N   0  0  0  0  0  0  0  0  0  0  0  0
    7.1191   -7.3636   15.7739 C   0  0  0  0  0  0  0  0  0  0  0  0
    5.9612   -8.3203   17.2732 N   0  0  0  0  0  0  0  0  0  0  0  0
    8.5296   -5.9814   17.1841 C   0  0  0  0  0  0  0  0  0  0  0  0
    9.1527   -5.2118   16.2116 C   0  0  0  0  0  0  0  0  0  0  0  0
   10.3364   -3.8368   22.9255 O   0  0  0  0  0  0  0  0  0  0  0  0
    9.6947   -4.8407   18.8534 C   0  0  0  0  0  0  0  0  0  0  0  0
    9.1596    1.7042   24.1381 C   0  0  0  0  0  0  0  0  0  0  0  0
   11.0456   -2.9774   18.2694 N   0  0  0  0  0  0  0  0  0  0  0  0
   10.4788   -3.0457   21.8593 C   0  0  0  0  0  0  0  0  0  0  0  0
    8.8693   -5.8099   18.4657 N   0  0  0  0  0  0  0  0  0  0  0  0
    8.9892   -0.7926   25.4573 C   0  0  0  0  0  0  0  0  0  0  0  0
   10.5677   -3.4462   20.5323 C   0  0  0  0  0  0  0  0  0  0  0  0
  1  8  1  0
  1 12  4  0
  1 14  4  0
  2  3  4  0
  2 18  4  0
  3 20  4  0
  3 22  4  0
  4 11  4  0
  4 21  4  0
  5  9  4  0
  5 16  4  0
  6 15  4  0
  6 16  4  0
  7 22  4  0
  7 26  4  0
  8 10  4  0
  8 25  4  0
  9 15  4  0
  9 17  1  0
 10 21  4  0
 11 25  4  0
 12 23  4  0
 13 20  4  0
 13 26  4  0
 14 19  4  0
 17 18  4  0
 17 24  4  0
 19 23  4  0
 20 24  4  0
 23 26  1  0
M  END
$$$$

 Created by Python create_sdf_string function

 26 30  0  0  0  0  0  0  0  0999 V2000
   10.0084   -1.8019   23.4945 C   0  0  0  0  0  0  0  0  0  0  0  0
   10.0005   -4.2520   16.5631 C   0  0  0  0  0  0  0  0  0  0  0  0
   10.2759   -4.0036   17.8845 C   0  0  0  0  0  0  0  0  0  0  0  0
    8.5652    1.5478   25.3778 N   0  0  0  0  0  0  0  0  0  0  0  0
    6.8048   -7.5457   17.8752 C   0  0  0  0  0  0  0  0  0  0  0  0
    6.1721   -8.2186   15.9886 N   0  0  0  0  0  0  0  0  0  0  0  0
   11.1764   -2.6600   19.5604 C   0  0  0  0  0  0  0  0  0  0  0  0
    9.5491   -0.6380   24.1912 C   0  0  0  0  0  0  0  0  0  0  0  0
    7.5337   -6.9256   16.9519 C   0  0  0  0  0  0  0  0  0  0  0  0
    9.6782    0.5671   23.5143 C   0  0  0  0  0  0  0  0  0  0  0  0
    8.4532    0.3482   26.0821 C   0  0  0  0  0  0  0  0  0  0  0  0
   10.4239   -1.7677   22.2230 N   0  0  0  0  0  0  0  0  0  0  0  0
    9.9468   -4.5953   20.1709 C   0  0  0  0  0  0  0  0  0  0  0  0
   10.0366   -3.0590   23.9864 N   0  0  0  0  0  0  0  0  0  0  0  0
    7.1191   -7.3636   15.7739 C   0  0  0  0  0  0  0  0  0  0  0  0
    5.9612   -8.3203   17.2732 N   0  0  0  0  0  0  0  0  0  0  0  0
    8.5296   -5.9814   17.1841 C   0  0  0  0  0  0  0  0  0  0  0  0
    9.1527   -5.2118   16.2116 C   0  0  0  0  0  0  0  0  0  0  0  0
   10.3364   -3.8368   22.9255 O   0  0  0  0  0  0  0  0  0  0  0  0
    9.6947   -4.8407   18.8534 C   0  0  0  0  0  0  0  0  0  0  0  0
    9.1596    1.7042   24.1381 C   0  0  0  0  0  0  0  0  0  0  0  0
   11.0456   -2.9774   18.2694 N   0  0  0  0  0  0  0  0  0  0  0  0
   10.4788   -3.0457   21.8593 C   0  0  0  0  0  0  0  0  0  0  0  0
    8.8693   -5.8099   18.4657 N   0  0  0  0  0  0  0  0  0  0  0  0
    8.9892   -0.7926   25.4573 C   0  0  0  0  0  0  0  0  0  0  0  0
   10.5677   -3.4462   20.5323 C   0  0  0  0  0  0  0  0  0  0  0  0
  1  8  1  0
  1 12  4  0
  1 14  4  0
  2  3  4  0
  2 18  4  0
  3 20  4  0
  3 22  4  0
  4 11  4  0
  4 21  4  0
  5  9  4  0
  5 16  4  0
  6 15  4  0
  6 16  4  0
  7 22  4  0
  7 26  4  0
  8 10  4  0
  8 25  4  0
  9 15  4  0
  9 17  1  0
 10 21  4  0
 11 25  4  0
 12 23  4  0
 13 20  4  0
 13 26  4  0
 14 19  4  0
 17 18  4  0
 17 24  4  0
 19 23  4  0
 20 24  4  0
 23 26  1  0
M  END
$$$$

 Created by Python create_sdf_string function

 26 30  0  0  0  0  0  0  0  0999 V2000
   10.0084   -1.8019   23.4945 C   0  0  0  0  0  0  0  0  0  0  0  0
   10.0005   -4.2520   16.5631 C   0  0  0  0  0  0  0  0  0  0  0  0
   10.2759   -4.0036   17.8845 C   0  0  0  0  0  0  0  0  0  0  0  0
    8.5652    1.5478   25.3778 N   0  0  0  0  0  0  0  0  0  0  0  0
    6.8048   -7.5457   17.8752 C   0  0  0  0  0  0  0  0  0  0  0  0
    6.1721   -8.2186   15.9886 N   0  0  0  0  0  0  0  0  0  0  0  0
   11.1764   -2.6600   19.5604 C   0  0  0  0  0  0  0  0  0  0  0  0
    9.5491   -0.6380   24.1912 C   0  0  0  0  0  0  0  0  0  0  0  0
    7.5337   -6.9256   16.9519 C   0  0  0  0  0  0  0  0  0  0  0  0
    9.6782    0.5671   23.5143 C   0  0  0  0  0  0  0  0  0  0  0  0
    8.4532    0.3482   26.0821 C   0  0  0  0  0  0  0  0  0  0  0  0
   10.4239   -1.7677   22.2230 N   0  0  0  0  0  0  0  0  0  0  0  0
    9.9468   -4.5953   20.1709 C   0  0  0  0  0  0  0  0  0  0  0  0
   10.0366   -3.0590   23.9864 N   0  0  0  0  0  0  0  0  0  0  0  0
    7.1191   -7.3636   15.7739 C   0  0  0  0  0  0  0  0  0  0  0  0
    5.9612   -8.3203   17.2732 N   0  0  0  0  0  0  0  0  0  0  0  0
    8.5296   -5.9814   17.1841 C   0  0  0  0  0  0  0  0  0  0  0  0
    9.1527   -5.2118   16.2116 C   0  0  0  0  0  0  0  0  0  0  0  0
   10.3364   -3.8368   22.9255 O   0  0  0  0  0  0  0  0  0  0  0  0
    9.6947   -4.8407   18.8534 C   0  0  0  0  0  0  0  0  0  0  0  0
    9.1596    1.7042   24.1381 C   0  0  0  0  0  0  0  0  0  0  0  0
   11.0456   -2.9774   18.2694 N   0  0  0  0  0  0  0  0  0  0  0  0
   10.4788   -3.0457   21.8593 C   0  0  0  0  0  0  0  0  0  0  0  0
    8.8693   -5.8099   18.4657 N   0  0  0  0  0  0  0  0  0  0  0  0
    8.9892   -0.7926   25.4573 C   0  0  0  0  0  0  0  0  0  0  0  0
   10.5677   -3.4462   20.5323 C   0  0  0  0  0  0  0  0  0  0  0  0
  1  8  1  0
  1 12  4  0
  1 14  4  0
  2  3  4  0
  2 18  4  0
  3 20  4  0
  3 22  4  0
  4 11  4  0
  4 21  4  0
  5  9  4  0
  5 16  4  0
  6 15  4  0
  6 16  4  0
  7 22  4  0
  7 26  4  0
  8 10  4  0
  8 25  4  0
  9 15  4  0
  9 17  1  0
 10 21  4  0
 11 25  4  0
 12 23  4  0
 13 20  4  0
 13 26  4  0
 14 19  4  0
 17 18  4  0
 17 24  4  0
 19 23  4  0
 20 24  4  0
 23 26  1  0
M  END
$$$$

 Created by Python create_sdf_string function

 26 30  0  0  0  0  0  0  0  0999 V2000
   10.0084   -1.8019   23.4945 C   0  0  0  0  0  0  0  0  0  0  0  0
   10.0005   -4.2520   16.5631 C   0  0  0  0  0  0  0  0  0  0  0  0
   10.2759   -4.0036   17.8845 C   0  0  0  0  0  0  0  0  0  0  0  0
    8.5652    1.5478   25.3778 N   0  0  0  0  0  0  0  0  0  0  0  0
    6.8048   -7.5457   17.8752 C   0  0  0  0  0  0  0  0  0  0  0  0
    6.1721   -8.2186   15.9886 N   0  0  0  0  0  0  0  0  0  0  0  0
   11.1764   -2.6600   19.5604 C   0  0  0  0  0  0  0  0  0  0  0  0
    9.5491   -0.6380   24.1912 C   0  0  0  0  0  0  0  0  0  0  0  0
    7.5337   -6.9256   16.9519 C   0  0  0  0  0  0  0  0  0  0  0  0
    9.6782    0.5671   23.5143 C   0  0  0  0  0  0  0  0  0  0  0  0
    8.4532    0.3482   26.0821 C   0  0  0  0  0  0  0  0  0  0  0  0
   10.4239   -1.7677   22.2230 N   0  0  0  0  0  0  0  0  0  0  0  0
    9.9468   -4.5953   20.1709 C   0  0  0  0  0  0  0  0  0  0  0  0
   10.0366   -3.0590   23.9864 N   0  0  0  0  0  0  0  0  0  0  0  0
    7.1191   -7.3636   15.7739 C   0  0  0  0  0  0  0  0  0  0  0  0
    5.9612   -8.3203   17.2732 N   0  0  0  0  0  0  0  0  0  0  0  0
    8.5296   -5.9814   17.1841 C   0  0  0  0  0  0  0  0  0  0  0  0
    9.1527   -5.2118   16.2116 C   0  0  0  0  0  0  0  0  0  0  0  0
   10.3364   -3.8368   22.9255 O   0  0  0  0  0  0  0  0  0  0  0  0
    9.6947   -4.8407   18.8534 C   0  0  0  0  0  0  0  0  0  0  0  0
    9.1596    1.7042   24.1381 C   0  0  0  0  0  0  0  0  0  0  0  0
   11.0456   -2.9774   18.2694 N   0  0  0  0  0  0  0  0  0  0  0  0
   10.4788   -3.0457   21.8593 C   0  0  0  0  0  0  0  0  0  0  0  0
    8.8693   -5.8099   18.4657 N   0  0  0  0  0  0  0  0  0  0  0  0
    8.9892   -0.7926   25.4573 C   0  0  0  0  0  0  0  0  0  0  0  0
   10.5677   -3.4462   20.5323 C   0  0  0  0  0  0  0  0  0  0  0  0
  1  8  1  0
  1 12  4  0
  1 14  4  0
  2  3  4  0
  2 18  4  0
  3 20  4  0
  3 22  4  0
  4 11  4  0
  4 21  4  0
  5  9  4  0
  5 16  4  0
  6 15  4  0
  6 16  4  0
  7 22  4  0
  7 26  4  0
  8 10  4  0
  8 25  4  0
  9 15  4  0
  9 17  1  0
 10 21  4  0
 11 25  4  0
 12 23  4  0
 13 20  4  0
 13 26  4  0
 14 19  4  0
 17 18  4  0
 17 24  4  0
 19 23  4  0
 20 24  4  0
 23 26  1  0
M  END
$$$$

 Created by Python create_sdf_string function

 26 30  0  0  0  0  0  0  0  0999 V2000
   10.0084   -1.8019   23.4945 C   0  0  0  0  0  0  0  0  0  0  0  0
   10.0005   -4.2520   16.5631 C   0  0  0  0  0  0  0  0  0  0  0  0
   10.2759   -4.0036   17.8845 C   0  0  0  0  0  0  0  0  0  0  0  0
    8.5652    1.5478   25.3778 N   0  0  0  0  0  0  0  0  0  0  0  0
    6.8048   -7.5457   17.8752 C   0  0  0  0  0  0  0  0  0  0  0  0
    6.1721   -8.2186   15.9886 N   0  0  0  0  0  0  0  0  0  0  0  0
   11.1764   -2.6600   19.5604 C   0  0  0  0  0  0  0  0  0  0  0  0
    9.5491   -0.6380   24.1912 C   0  0  0  0  0  0  0  0  0  0  0  0
    7.5337   -6.9256   16.9519 C   0  0  0  0  0  0  0  0  0  0  0  0
    9.6782    0.5671   23.5143 C   0  0  0  0  0  0  0  0  0  0  0  0
    8.4532    0.3482   26.0821 C   0  0  0  0  0  0  0  0  0  0  0  0
   10.4239   -1.7677   22.2230 N   0  0  0  0  0  0  0  0  0  0  0  0
    9.9468   -4.5953   20.1709 C   0  0  0  0  0  0  0  0  0  0  0  0
   10.0366   -3.0590   23.9864 N   0  0  0  0  0  0  0  0  0  0  0  0
    7.1191   -7.3636   15.7739 C   0  0  0  0  0  0  0  0  0  0  0  0
    5.9612   -8.3203   17.2732 N   0  0  0  0  0  0  0  0  0  0  0  0
    8.5296   -5.9814   17.1841 C   0  0  0  0  0  0  0  0  0  0  0  0
    9.1527   -5.2118   16.2116 C   0  0  0  0  0  0  0  0  0  0  0  0
   10.3364   -3.8368   22.9255 O   0  0  0  0  0  0  0  0  0  0  0  0
    9.6947   -4.8407   18.8534 C   0  0  0  0  0  0  0  0  0  0  0  0
    9.1596    1.7042   24.1381 C   0  0  0  0  0  0  0  0  0  0  0  0
   11.0456   -2.9774   18.2694 N   0  0  0  0  0  0  0  0  0  0  0  0
   10.4788   -3.0457   21.8593 C   0  0  0  0  0  0  0  0  0  0  0  0
    8.8693   -5.8099   18.4657 N   0  0  0  0  0  0  0  0  0  0  0  0
    8.9892   -0.7926   25.4573 C   0  0  0  0  0  0  0  0  0  0  0  0
   10.5677   -3.4462   20.5323 C   0  0  0  0  0  0  0  0  0  0  0  0
  1  8  1  0
  1 12  4  0
  1 14  4  0
  2  3  4  0
  2 18  4  0
  3 20  4  0
  3 22  4  0
  4 11  4  0
  4 21  4  0
  5  9  4  0
  5 16  4  0
  6 15  4  0
  6 16  4  0
  7 22  4  0
  7 26  4  0
  8 10  4  0
  8 25  4  0
  9 15  4  0
  9 17  1  0
 10 21  4  0
 11 25  4  0
 12 23  4  0
 13 20  4  0
 13 26  4  0
 14 19  4  0
 17 18  4  0
 17 24  4  0
 19 23  4  0
 20 24  4  0
 23 26  1  0
M  END
$$$$

 Created by Python create_sdf_string function

 26 30  0  0  0  0  0  0  0  0999 V2000
   10.0084   -1.8019   23.4945 C   0  0  0  0  0  0  0  0  0  0  0  0
   10.0005   -4.2520   16.5631 C   0  0  0  0  0  0  0  0  0  0  0  0
   10.2759   -4.0036   17.8845 C   0  0  0  0  0  0  0  0  0  0  0  0
    8.5652    1.5478   25.3778 N   0  0  0  0  0  0  0  0  0  0  0  0
    6.8048   -7.5457   17.8752 C   0  0  0  0  0  0  0  0  0  0  0  0
    6.1721   -8.2186   15.9886 N   0  0  0  0  0  0  0  0  0  0  0  0
   11.1764   -2.6600   19.5604 C   0  0  0  0  0  0  0  0  0  0  0  0
    9.5491   -0.6380   24.1912 C   0  0  0  0  0  0  0  0  0  0  0  0
    7.5337   -6.9256   16.9519 C   0  0  0  0  0  0  0  0  0  0  0  0
    9.6782    0.5671   23.5143 C   0  0  0  0  0  0  0  0  0  0  0  0
    8.4532    0.3482   26.0821 C   0  0  0  0  0  0  0  0  0  0  0  0
   10.4239   -1.7677   22.2230 N   0  0  0  0  0  0  0  0  0  0  0  0
    9.9468   -4.5953   20.1709 C   0  0  0  0  0  0  0  0  0  0  0  0
   10.0366   -3.0590   23.9864 N   0  0  0  0  0  0  0  0  0  0  0  0
    7.1191   -7.3636   15.7739 C   0  0  0  0  0  0  0  0  0  0  0  0
    5.9612   -8.3203   17.2732 N   0  0  0  0  0  0  0  0  0  0  0  0
    8.5296   -5.9814   17.1841 C   0  0  0  0  0  0  0  0  0  0  0  0
    9.1527   -5.2118   16.2116 C   0  0  0  0  0  0  0  0  0  0  0  0
   10.3364   -3.8368   22.9255 O   0  0  0  0  0  0  0  0  0  0  0  0
    9.6947   -4.8407   18.8534 C   0  0  0  0  0  0  0  0  0  0  0  0
    9.1596    1.7042   24.1381 C   0  0  0  0  0  0  0  0  0  0  0  0
   11.0456   -2.9774   18.2694 N   0  0  0  0  0  0  0  0  0  0  0  0
   10.4788   -3.0457   21.8593 C   0  0  0  0  0  0  0  0  0  0  0  0
    8.8693   -5.8099   18.4657 N   0  0  0  0  0  0  0  0  0  0  0  0
    8.9892   -0.7926   25.4573 C   0  0  0  0  0  0  0  0  0  0  0  0
   10.5677   -3.4462   20.5323 C   0  0  0  0  0  0  0  0  0  0  0  0
  1  8  1  0
  1 12  4  0
  1 14  4  0
  2  3  4  0
  2 18  4  0
  3 20  4  0
  3 22  4  0
  4 11  4  0
  4 21  4  0
  5  9  4  0
  5 16  4  0
  6 15  4  0
  6 16  4  0
  7 22  4  0
  7 26  4  0
  8 10  4  0
  8 25  4  0
  9 15  4  0
  9 17  1  0
 10 21  4  0
 11 25  4  0
 12 23  4  0
 13 20  4  0
 13 26  4  0
 14 19  4  0
 17 18  4  0
 17 24  4  0
 19 23  4  0
 20 24  4  0
 23 26  1  0
M  END
$$$$

 Created by Python create_sdf_string function

 26 30  0  0  0  0  0  0  0  0999 V2000
   10.0084   -1.8019   23.4945 C   0  0  0  0  0  0  0  0  0  0  0  0
   10.0005   -4.2520   16.5631 C   0  0  0  0  0  0  0  0  0  0  0  0
   10.2759   -4.0036   17.8845 C   0  0  0  0  0  0  0  0  0  0  0  0
    8.5652    1.5478   25.3778 N   0  0  0  0  0  0  0  0  0  0  0  0
    6.8048   -7.5457   17.8752 C   0  0  0  0  0  0  0  0  0  0  0  0
    6.1721   -8.2186   15.9886 N   0  0  0  0  0  0  0  0  0  0  0  0
   11.1764   -2.6600   19.5604 C   0  0  0  0  0  0  0  0  0  0  0  0
    9.5491   -0.6380   24.1912 C   0  0  0  0  0  0  0  0  0  0  0  0
    7.5337   -6.9256   16.9519 C   0  0  0  0  0  0  0  0  0  0  0  0
    9.6782    0.5671   23.5143 C   0  0  0  0  0  0  0  0  0  0  0  0
    8.4532    0.3482   26.0821 C   0  0  0  0  0  0  0  0  0  0  0  0
   10.4239   -1.7677   22.2230 N   0  0  0  0  0  0  0  0  0  0  0  0
    9.9468   -4.5953   20.1709 C   0  0  0  0  0  0  0  0  0  0  0  0
   10.0366   -3.0590   23.9864 N   0  0  0  0  0  0  0  0  0  0  0  0
    7.1191   -7.3636   15.7739 C   0  0  0  0  0  0  0  0  0  0  0  0
    5.9612   -8.3203   17.2732 N   0  0  0  0  0  0  0  0  0  0  0  0
    8.5296   -5.9814   17.1841 C   0  0  0  0  0  0  0  0  0  0  0  0
    9.1527   -5.2118   16.2116 C   0  0  0  0  0  0  0  0  0  0  0  0
   10.3364   -3.8368   22.9255 O   0  0  0  0  0  0  0  0  0  0  0  0
    9.6947   -4.8407   18.8534 C   0  0  0  0  0  0  0  0  0  0  0  0
    9.1596    1.7042   24.1381 C   0  0  0  0  0  0  0  0  0  0  0  0
   11.0456   -2.9774   18.2694 N   0  0  0  0  0  0  0  0  0  0  0  0
   10.4788   -3.0457   21.8593 C   0  0  0  0  0  0  0  0  0  0  0  0
    8.8693   -5.8099   18.4657 N   0  0  0  0  0  0  0  0  0  0  0  0
    8.9892   -0.7926   25.4573 C   0  0  0  0  0  0  0  0  0  0  0  0
   10.5677   -3.4462   20.5323 C   0  0  0  0  0  0  0  0  0  0  0  0
  1  8  1  0
  1 12  4  0
  1 14  4  0
  2  3  4  0
  2 18  4  0
  3 20  4  0
  3 22  4  0
  4 11  4  0
  4 21  4  0
  5  9  4  0
  5 16  4  0
  6 15  4  0
  6 16  4  0
  7 22  4  0
  7 26  4  0
  8 10  4  0
  8 25  4  0
  9 15  4  0
  9 17  1  0
 10 21  4  0
 11 25  4  0
 12 23  4  0
 13 20  4  0
 13 26  4  0
 14 19  4  0
 17 18  4  0
 17 24  4  0
 19 23  4  0
 20 24  4  0
 23 26  1  0
M  END
$$$$

 Created by Python create_sdf_string function

 26 30  0  0  0  0  0  0  0  0999 V2000
   10.0084   -1.8019   23.4945 C   0  0  0  0  0  0  0  0  0  0  0  0
   10.0005   -4.2520   16.5631 C   0  0  0  0  0  0  0  0  0  0  0  0
   10.2759   -4.0036   17.8845 C   0  0  0  0  0  0  0  0  0  0  0  0
    8.5652    1.5478   25.3778 N   0  0  0  0  0  0  0  0  0  0  0  0
    6.8048   -7.5457   17.8752 C   0  0  0  0  0  0  0  0  0  0  0  0
    6.1721   -8.2186   15.9886 N   0  0  0  0  0  0  0  0  0  0  0  0
   11.1764   -2.6600   19.5604 C   0  0  0  0  0  0  0  0  0  0  0  0
    9.5491   -0.6380   24.1912 C   0  0  0  0  0  0  0  0  0  0  0  0
    7.5337   -6.9256   16.9519 C   0  0  0  0  0  0  0  0  0  0  0  0
    9.6782    0.5671   23.5143 C   0  0  0  0  0  0  0  0  0  0  0  0
    8.4532    0.3482   26.0821 C   0  0  0  0  0  0  0  0  0  0  0  0
   10.4239   -1.7677   22.2230 N   0  0  0  0  0  0  0  0  0  0  0  0
    9.9468   -4.5953   20.1709 C   0  0  0  0  0  0  0  0  0  0  0  0
   10.0366   -3.0590   23.9864 N   0  0  0  0  0  0  0  0  0  0  0  0
    7.1191   -7.3636   15.7739 C   0  0  0  0  0  0  0  0  0  0  0  0
    5.9612   -8.3203   17.2732 N   0  0  0  0  0  0  0  0  0  0  0  0
    8.5296   -5.9814   17.1841 C   0  0  0  0  0  0  0  0  0  0  0  0
    9.1527   -5.2118   16.2116 C   0  0  0  0  0  0  0  0  0  0  0  0
   10.3364   -3.8368   22.9255 O   0  0  0  0  0  0  0  0  0  0  0  0
    9.6947   -4.8407   18.8534 C   0  0  0  0  0  0  0  0  0  0  0  0
    9.1596    1.7042   24.1381 C   0  0  0  0  0  0  0  0  0  0  0  0
   11.0456   -2.9774   18.2694 N   0  0  0  0  0  0  0  0  0  0  0  0
   10.4788   -3.0457   21.8593 C   0  0  0  0  0  0  0  0  0  0  0  0
    8.8693   -5.8099   18.4657 N   0  0  0  0  0  0  0  0  0  0  0  0
    8.9892   -0.7926   25.4573 C   0  0  0  0  0  0  0  0  0  0  0  0
   10.5677   -3.4462   20.5323 C   0  0  0  0  0  0  0  0  0  0  0  0
  1  8  1  0
  1 12  4  0
  1 14  4  0
  2  3  4  0
  2 18  4  0
  3 20  4  0
  3 22  4  0
  4 11  4  0
  4 21  4  0
  5  9  4  0
  5 16  4  0
  6 15  4  0
  6 16  4  0
  7 22  4  0
  7 26  4  0
  8 10  4  0
  8 25  4  0
  9 15  4  0
  9 17  1  0
 10 21  4  0
 11 25  4  0
 12 23  4  0
 13 20  4  0
 13 26  4  0
 14 19  4  0
 17 18  4  0
 17 24  4  0
 19 23  4  0
 20 24  4  0
 23 26  1  0
M  END
$$$$

 Created by Python create_sdf_string function

 26 30  0  0  0  0  0  0  0  0999 V2000
   10.0084   -1.8019   23.4945 C   0  0  0  0  0  0  0  0  0  0  0  0
   10.0005   -4.2520   16.5631 C   0  0  0  0  0  0  0  0  0  0  0  0
   10.2759   -4.0036   17.8845 C   0  0  0  0  0  0  0  0  0  0  0  0
    8.5652    1.5478   25.3778 N   0  0  0  0  0  0  0  0  0  0  0  0
    6.8048   -7.5457   17.8752 C   0  0  0  0  0  0  0  0  0  0  0  0
    6.1721   -8.2186   15.9886 N   0  0  0  0  0  0  0  0  0  0  0  0
   11.1764   -2.6600   19.5604 C   0  0  0  0  0  0  0  0  0  0  0  0
    9.5491   -0.6380   24.1912 C   0  0  0  0  0  0  0  0  0  0  0  0
    7.5337   -6.9256   16.9519 C   0  0  0  0  0  0  0  0  0  0  0  0
    9.6782    0.5671   23.5143 C   0  0  0  0  0  0  0  0  0  0  0  0
    8.4532    0.3482   26.0821 C   0  0  0  0  0  0  0  0  0  0  0  0
   10.4239   -1.7677   22.2230 N   0  0  0  0  0  0  0  0  0  0  0  0
    9.9468   -4.5953   20.1709 C   0  0  0  0  0  0  0  0  0  0  0  0
   10.0366   -3.0590   23.9864 N   0  0  0  0  0  0  0  0  0  0  0  0
    7.1191   -7.3636   15.7739 C   0  0  0  0  0  0  0  0  0  0  0  0
    5.9612   -8.3203   17.2732 N   0  0  0  0  0  0  0  0  0  0  0  0
    8.5296   -5.9814   17.1841 C   0  0  0  0  0  0  0  0  0  0  0  0
    9.1527   -5.2118   16.2116 C   0  0  0  0  0  0  0  0  0  0  0  0
   10.3364   -3.8368   22.9255 O   0  0  0  0  0  0  0  0  0  0  0  0
    9.6947   -4.8407   18.8534 C   0  0  0  0  0  0  0  0  0  0  0  0
    9.1596    1.7042   24.1381 C   0  0  0  0  0  0  0  0  0  0  0  0
   11.0456   -2.9774   18.2694 N   0  0  0  0  0  0  0  0  0  0  0  0
   10.4788   -3.0457   21.8593 C   0  0  0  0  0  0  0  0  0  0  0  0
    8.8693   -5.8099   18.4657 N   0  0  0  0  0  0  0  0  0  0  0  0
    8.9892   -0.7926   25.4573 C   0  0  0  0  0  0  0  0  0  0  0  0
   10.5677   -3.4462   20.5323 C   0  0  0  0  0  0  0  0  0  0  0  0
  1  8  1  0
  1 12  4  0
  1 14  4  0
  2  3  4  0
  2 18  4  0
  3 20  4  0
  3 22  4  0
  4 11  4  0
  4 21  4  0
  5  9  4  0
  5 16  4  0
  6 15  4  0
  6 16  4  0
  7 22  4  0
  7 26  4  0
  8 10  4  0
  8 25  4  0
  9 15  4  0
  9 17  1  0
 10 21  4  0
 11 25  4  0
 12 23  4  0
 13 20  4  0
 13 26  4  0
 14 19  4  0
 17 18  4  0
 17 24  4  0
 19 23  4  0
 20 24  4  0
 23 26  1  0
M  END
$$$$

 Created by Python create_sdf_string function

 26 30  0  0  0  0  0  0  0  0999 V2000
   10.0084   -1.8019   23.4945 C   0  0  0  0  0  0  0  0  0  0  0  0
   10.0005   -4.2520   16.5631 C   0  0  0  0  0  0  0  0  0  0  0  0
   10.2759   -4.0036   17.8845 C   0  0  0  0  0  0  0  0  0  0  0  0
    8.5652    1.5478   25.3778 N   0  0  0  0  0  0  0  0  0  0  0  0
    6.8048   -7.5457   17.8752 C   0  0  0  0  0  0  0  0  0  0  0  0
    6.1721   -8.2186   15.9886 N   0  0  0  0  0  0  0  0  0  0  0  0
   11.1764   -2.6600   19.5604 C   0  0  0  0  0  0  0  0  0  0  0  0
    9.5491   -0.6380   24.1912 C   0  0  0  0  0  0  0  0  0  0  0  0
    7.5337   -6.9256   16.9519 C   0  0  0  0  0  0  0  0  0  0  0  0
    9.6782    0.5671   23.5143 C   0  0  0  0  0  0  0  0  0  0  0  0
    8.4532    0.3482   26.0821 C   0  0  0  0  0  0  0  0  0  0  0  0
   10.4239   -1.7677   22.2230 N   0  0  0  0  0  0  0  0  0  0  0  0
    9.9468   -4.5953   20.1709 C   0  0  0  0  0  0  0  0  0  0  0  0
   10.0366   -3.0590   23.9864 N   0  0  0  0  0  0  0  0  0  0  0  0
    7.1191   -7.3636   15.7739 C   0  0  0  0  0  0  0  0  0  0  0  0
    5.9612   -8.3203   17.2732 N   0  0  0  0  0  0  0  0  0  0  0  0
    8.5296   -5.9814   17.1841 C   0  0  0  0  0  0  0  0  0  0  0  0
    9.1527   -5.2118   16.2116 C   0  0  0  0  0  0  0  0  0  0  0  0
   10.3364   -3.8368   22.9255 O   0  0  0  0  0  0  0  0  0  0  0  0
    9.6947   -4.8407   18.8534 C   0  0  0  0  0  0  0  0  0  0  0  0
    9.1596    1.7042   24.1381 C   0  0  0  0  0  0  0  0  0  0  0  0
   11.0456   -2.9774   18.2694 N   0  0  0  0  0  0  0  0  0  0  0  0
   10.4788   -3.0457   21.8593 C   0  0  0  0  0  0  0  0  0  0  0  0
    8.8693   -5.8099   18.4657 N   0  0  0  0  0  0  0  0  0  0  0  0
    8.9892   -0.7926   25.4573 C   0  0  0  0  0  0  0  0  0  0  0  0
   10.5677   -3.4462   20.5323 C   0  0  0  0  0  0  0  0  0  0  0  0
  1  8  1  0
  1 12  4  0
  1 14  4  0
  2  3  4  0
  2 18  4  0
  3 20  4  0
  3 22  4  0
  4 11  4  0
  4 21  4  0
  5  9  4  0
  5 16  4  0
  6 15  4  0
  6 16  4  0
  7 22  4  0
  7 26  4  0
  8 10  4  0
  8 25  4  0
  9 15  4  0
  9 17  1  0
 10 21  4  0
 11 25  4  0
 12 23  4  0
 13 20  4  0
 13 26  4  0
 14 19  4  0
 17 18  4  0
 17 24  4  0
 19 23  4  0
 20 24  4  0
 23 26  1  0
M  END
$$$$

 Created by Python create_sdf_string function

 26 30  0  0  0  0  0  0  0  0999 V2000
   10.0084   -1.8019   23.4945 C   0  0  0  0  0  0  0  0  0  0  0  0
   10.0005   -4.2520   16.5631 C   0  0  0  0  0  0  0  0  0  0  0  0
   10.2759   -4.0036   17.8845 C   0  0  0  0  0  0  0  0  0  0  0  0
    8.5652    1.5478   25.3778 N   0  0  0  0  0  0  0  0  0  0  0  0
    6.8048   -7.5457   17.8752 C   0  0  0  0  0  0  0  0  0  0  0  0
    6.1721   -8.2186   15.9886 N   0  0  0  0  0  0  0  0  0  0  0  0
   11.1764   -2.6600   19.5604 C   0  0  0  0  0  0  0  0  0  0  0  0
    9.5491   -0.6380   24.1912 C   0  0  0  0  0  0  0  0  0  0  0  0
    7.5337   -6.9256   16.9519 C   0  0  0  0  0  0  0  0  0  0  0  0
    9.6782    0.5671   23.5143 C   0  0  0  0  0  0  0  0  0  0  0  0
    8.4532    0.3482   26.0821 C   0  0  0  0  0  0  0  0  0  0  0  0
   10.4239   -1.7677   22.2230 N   0  0  0  0  0  0  0  0  0  0  0  0
    9.9468   -4.5953   20.1709 C   0  0  0  0  0  0  0  0  0  0  0  0
   10.0366   -3.0590   23.9864 N   0  0  0  0  0  0  0  0  0  0  0  0
    7.1191   -7.3636   15.7739 C   0  0  0  0  0  0  0  0  0  0  0  0
    5.9612   -8.3203   17.2732 N   0  0  0  0  0  0  0  0  0  0  0  0
    8.5296   -5.9814   17.1841 C   0  0  0  0  0  0  0  0  0  0  0  0
    9.1527   -5.2118   16.2116 C   0  0  0  0  0  0  0  0  0  0  0  0
   10.3364   -3.8368   22.9255 O   0  0  0  0  0  0  0  0  0  0  0  0
    9.6947   -4.8407   18.8534 C   0  0  0  0  0  0  0  0  0  0  0  0
    9.1596    1.7042   24.1381 C   0  0  0  0  0  0  0  0  0  0  0  0
   11.0456   -2.9774   18.2694 N   0  0  0  0  0  0  0  0  0  0  0  0
   10.4788   -3.0457   21.8593 C   0  0  0  0  0  0  0  0  0  0  0  0
    8.8693   -5.8099   18.4657 N   0  0  0  0  0  0  0  0  0  0  0  0
    8.9892   -0.7926   25.4573 C   0  0  0  0  0  0  0  0  0  0  0  0
   10.5677   -3.4462   20.5323 C   0  0  0  0  0  0  0  0  0  0  0  0
  1  8  1  0
  1 12  4  0
  1 14  4  0
  2  3  4  0
  2 18  4  0
  3 20  4  0
  3 22  4  0
  4 11  4  0
  4 21  4  0
  5  9  4  0
  5 16  4  0
  6 15  4  0
  6 16  4  0
  7 22  4  0
  7 26  4  0
  8 10  4  0
  8 25  4  0
  9 15  4  0
  9 17  1  0
 10 21  4  0
 11 25  4  0
 12 23  4  0
 13 20  4  0
 13 26  4  0
 14 19  4  0
 17 18  4  0
 17 24  4  0
 19 23  4  0
 20 24  4  0
 23 26  1  0
M  END
$$$$

 Created by Python create_sdf_string function

 26 30  0  0  0  0  0  0  0  0999 V2000
   10.0084   -1.8019   23.4945 C   0  0  0  0  0  0  0  0  0  0  0  0
   10.0005   -4.2520   16.5631 C   0  0  0  0  0  0  0  0  0  0  0  0
   10.2759   -4.0036   17.8845 C   0  0  0  0  0  0  0  0  0  0  0  0
    8.5652    1.5478   25.3778 N   0  0  0  0  0  0  0  0  0  0  0  0
    6.8048   -7.5457   17.8752 C   0  0  0  0  0  0  0  0  0  0  0  0
    6.1721   -8.2186   15.9886 N   0  0  0  0  0  0  0  0  0  0  0  0
   11.1764   -2.6600   19.5604 C   0  0  0  0  0  0  0  0  0  0  0  0
    9.5491   -0.6380   24.1912 C   0  0  0  0  0  0  0  0  0  0  0  0
    7.5337   -6.9256   16.9519 C   0  0  0  0  0  0  0  0  0  0  0  0
    9.6782    0.5671   23.5143 C   0  0  0  0  0  0  0  0  0  0  0  0
    8.4532    0.3482   26.0821 C   0  0  0  0  0  0  0  0  0  0  0  0
   10.4239   -1.7677   22.2230 N   0  0  0  0  0  0  0  0  0  0  0  0
    9.9468   -4.5953   20.1709 C   0  0  0  0  0  0  0  0  0  0  0  0
   10.0366   -3.0590   23.9864 N   0  0  0  0  0  0  0  0  0  0  0  0
    7.1191   -7.3636   15.7739 C   0  0  0  0  0  0  0  0  0  0  0  0
    5.9612   -8.3203   17.2732 N   0  0  0  0  0  0  0  0  0  0  0  0
    8.5296   -5.9814   17.1841 C   0  0  0  0  0  0  0  0  0  0  0  0
    9.1527   -5.2118   16.2116 C   0  0  0  0  0  0  0  0  0  0  0  0
   10.3364   -3.8368   22.9255 O   0  0  0  0  0  0  0  0  0  0  0  0
    9.6947   -4.8407   18.8534 C   0  0  0  0  0  0  0  0  0  0  0  0
    9.1596    1.7042   24.1381 C   0  0  0  0  0  0  0  0  0  0  0  0
   11.0456   -2.9774   18.2694 N   0  0  0  0  0  0  0  0  0  0  0  0
   10.4788   -3.0457   21.8593 C   0  0  0  0  0  0  0  0  0  0  0  0
    8.8693   -5.8099   18.4657 N   0  0  0  0  0  0  0  0  0  0  0  0
    8.9892   -0.7926   25.4573 C   0  0  0  0  0  0  0  0  0  0  0  0
   10.5677   -3.4462   20.5323 C   0  0  0  0  0  0  0  0  0  0  0  0
  1  8  1  0
  1 12  4  0
  1 14  4  0
  2  3  4  0
  2 18  4  0
  3 20  4  0
  3 22  4  0
  4 11  4  0
  4 21  4  0
  5  9  4  0
  5 16  4  0
  6 15  4  0
  6 16  4  0
  7 22  4  0
  7 26  4  0
  8 10  4  0
  8 25  4  0
  9 15  4  0
  9 17  1  0
 10 21  4  0
 11 25  4  0
 12 23  4  0
 13 20  4  0
 13 26  4  0
 14 19  4  0
 17 18  4  0
 17 24  4  0
 19 23  4  0
 20 24  4  0
 23 26  1  0
M  END
$$$$

 Created by Python create_sdf_string function

 26 30  0  0  0  0  0  0  0  0999 V2000
   10.0084   -1.8019   23.4945 C   0  0  0  0  0  0  0  0  0  0  0  0
   10.0005   -4.2520   16.5631 C   0  0  0  0  0  0  0  0  0  0  0  0
   10.2759   -4.0036   17.8845 C   0  0  0  0  0  0  0  0  0  0  0  0
    8.5652    1.5478   25.3778 N   0  0  0  0  0  0  0  0  0  0  0  0
    6.8048   -7.5457   17.8752 C   0  0  0  0  0  0  0  0  0  0  0  0
    6.1721   -8.2186   15.9886 N   0  0  0  0  0  0  0  0  0  0  0  0
   11.1764   -2.6600   19.5604 C   0  0  0  0  0  0  0  0  0  0  0  0
    9.5491   -0.6380   24.1912 C   0  0  0  0  0  0  0  0  0  0  0  0
    7.5337   -6.9256   16.9519 C   0  0  0  0  0  0  0  0  0  0  0  0
    9.6782    0.5671   23.5143 C   0  0  0  0  0  0  0  0  0  0  0  0
    8.4532    0.3482   26.0821 C   0  0  0  0  0  0  0  0  0  0  0  0
   10.4239   -1.7677   22.2230 N   0  0  0  0  0  0  0  0  0  0  0  0
    9.9468   -4.5953   20.1709 C   0  0  0  0  0  0  0  0  0  0  0  0
   10.0366   -3.0590   23.9864 N   0  0  0  0  0  0  0  0  0  0  0  0
    7.1191   -7.3636   15.7739 C   0  0  0  0  0  0  0  0  0  0  0  0
    5.9612   -8.3203   17.2732 N   0  0  0  0  0  0  0  0  0  0  0  0
    8.5296   -5.9814   17.1841 C   0  0  0  0  0  0  0  0  0  0  0  0
    9.1527   -5.2118   16.2116 C   0  0  0  0  0  0  0  0  0  0  0  0
   10.3364   -3.8368   22.9255 O   0  0  0  0  0  0  0  0  0  0  0  0
    9.6947   -4.8407   18.8534 C   0  0  0  0  0  0  0  0  0  0  0  0
    9.1596    1.7042   24.1381 C   0  0  0  0  0  0  0  0  0  0  0  0
   11.0456   -2.9774   18.2694 N   0  0  0  0  0  0  0  0  0  0  0  0
   10.4788   -3.0457   21.8593 C   0  0  0  0  0  0  0  0  0  0  0  0
    8.8693   -5.8099   18.4657 N   0  0  0  0  0  0  0  0  0  0  0  0
    8.9892   -0.7926   25.4573 C   0  0  0  0  0  0  0  0  0  0  0  0
   10.5677   -3.4462   20.5323 C   0  0  0  0  0  0  0  0  0  0  0  0
  1  8  1  0
  1 12  4  0
  1 14  4  0
  2  3  4  0
  2 18  4  0
  3 20  4  0
  3 22  4  0
  4 11  4  0
  4 21  4  0
  5  9  4  0
  5 16  4  0
  6 15  4  0
  6 16  4  0
  7 22  4  0
  7 26  4  0
  8 10  4  0
  8 25  4  0
  9 15  4  0
  9 17  1  0
 10 21  4  0
 11 25  4  0
 12 23  4  0
 13 20  4  0
 13 26  4  0
 14 19  4  0
 17 18  4  0
 17 24  4  0
 19 23  4  0
 20 24  4  0
 23 26  1  0
M  END
$$$$

 Created by Python create_sdf_string function

 26 30  0  0  0  0  0  0  0  0999 V2000
   10.0084   -1.8019   23.4945 C   0  0  0  0  0  0  0  0  0  0  0  0
   10.0005   -4.2520   16.5631 C   0  0  0  0  0  0  0  0  0  0  0  0
   10.2759   -4.0036   17.8845 C   0  0  0  0  0  0  0  0  0  0  0  0
    8.5652    1.5478   25.3778 N   0  0  0  0  0  0  0  0  0  0  0  0
    6.8048   -7.5457   17.8752 C   0  0  0  0  0  0  0  0  0  0  0  0
    6.1721   -8.2186   15.9886 N   0  0  0  0  0  0  0  0  0  0  0  0
   11.1764   -2.6600   19.5604 C   0  0  0  0  0  0  0  0  0  0  0  0
    9.5491   -0.6380   24.1912 C   0  0  0  0  0  0  0  0  0  0  0  0
    7.5337   -6.9256   16.9519 C   0  0  0  0  0  0  0  0  0  0  0  0
    9.6782    0.5671   23.5143 C   0  0  0  0  0  0  0  0  0  0  0  0
    8.4532    0.3482   26.0821 C   0  0  0  0  0  0  0  0  0  0  0  0
   10.4239   -1.7677   22.2230 N   0  0  0  0  0  0  0  0  0  0  0  0
    9.9468   -4.5953   20.1709 C   0  0  0  0  0  0  0  0  0  0  0  0
   10.0366   -3.0590   23.9864 N   0  0  0  0  0  0  0  0  0  0  0  0
    7.1191   -7.3636   15.7739 C   0  0  0  0  0  0  0  0  0  0  0  0
    5.9612   -8.3203   17.2732 N   0  0  0  0  0  0  0  0  0  0  0  0
    8.5296   -5.9814   17.1841 C   0  0  0  0  0  0  0  0  0  0  0  0
    9.1527   -5.2118   16.2116 C   0  0  0  0  0  0  0  0  0  0  0  0
   10.3364   -3.8368   22.9255 O   0  0  0  0  0  0  0  0  0  0  0  0
    9.6947   -4.8407   18.8534 C   0  0  0  0  0  0  0  0  0  0  0  0
    9.1596    1.7042   24.1381 C   0  0  0  0  0  0  0  0  0  0  0  0
   11.0456   -2.9774   18.2694 N   0  0  0  0  0  0  0  0  0  0  0  0
   10.4788   -3.0457   21.8593 C   0  0  0  0  0  0  0  0  0  0  0  0
    8.8693   -5.8099   18.4657 N   0  0  0  0  0  0  0  0  0  0  0  0
    8.9892   -0.7926   25.4573 C   0  0  0  0  0  0  0  0  0  0  0  0
   10.5677   -3.4462   20.5323 C   0  0  0  0  0  0  0  0  0  0  0  0
  1  8  1  0
  1 12  4  0
  1 14  4  0
  2  3  4  0
  2 18  4  0
  3 20  4  0
  3 22  4  0
  4 11  4  0
  4 21  4  0
  5  9  4  0
  5 16  4  0
  6 15  4  0
  6 16  4  0
  7 22  4  0
  7 26  4  0
  8 10  4  0
  8 25  4  0
  9 15  4  0
  9 17  1  0
 10 21  4  0
 11 25  4  0
 12 23  4  0
 13 20  4  0
 13 26  4  0
 14 19  4  0
 17 18  4  0
 17 24  4  0
 19 23  4  0
 20 24  4  0
 23 26  1  0
M  END
$$$$

 Created by Python create_sdf_string function

 26 30  0  0  0  0  0  0  0  0999 V2000
   10.0084   -1.8019   23.4945 C   0  0  0  0  0  0  0  0  0  0  0  0
   10.0005   -4.2520   16.5631 C   0  0  0  0  0  0  0  0  0  0  0  0
   10.2759   -4.0036   17.8845 C   0  0  0  0  0  0  0  0  0  0  0  0
    8.5652    1.5478   25.3778 N   0  0  0  0  0  0  0  0  0  0  0  0
    6.8048   -7.5457   17.8752 C   0  0  0  0  0  0  0  0  0  0  0  0
    6.1721   -8.2186   15.9886 N   0  0  0  0  0  0  0  0  0  0  0  0
   11.1764   -2.6600   19.5604 C   0  0  0  0  0  0  0  0  0  0  0  0
    9.5491   -0.6380   24.1912 C   0  0  0  0  0  0  0  0  0  0  0  0
    7.5337   -6.9256   16.9519 C   0  0  0  0  0  0  0  0  0  0  0  0
    9.6782    0.5671   23.5143 C   0  0  0  0  0  0  0  0  0  0  0  0
    8.4532    0.3482   26.0821 C   0  0  0  0  0  0  0  0  0  0  0  0
   10.4239   -1.7677   22.2230 N   0  0  0  0  0  0  0  0  0  0  0  0
    9.9468   -4.5953   20.1709 C   0  0  0  0  0  0  0  0  0  0  0  0
   10.0366   -3.0590   23.9864 N   0  0  0  0  0  0  0  0  0  0  0  0
    7.1191   -7.3636   15.7739 C   0  0  0  0  0  0  0  0  0  0  0  0
    5.9612   -8.3203   17.2732 N   0  0  0  0  0  0  0  0  0  0  0  0
    8.5296   -5.9814   17.1841 C   0  0  0  0  0  0  0  0  0  0  0  0
    9.1527   -5.2118   16.2116 C   0  0  0  0  0  0  0  0  0  0  0  0
   10.3364   -3.8368   22.9255 O   0  0  0  0  0  0  0  0  0  0  0  0
    9.6947   -4.8407   18.8534 C   0  0  0  0  0  0  0  0  0  0  0  0
    9.1596    1.7042   24.1381 C   0  0  0  0  0  0  0  0  0  0  0  0
   11.0456   -2.9774   18.2694 N   0  0  0  0  0  0  0  0  0  0  0  0
   10.4788   -3.0457   21.8593 C   0  0  0  0  0  0  0  0  0  0  0  0
    8.8693   -5.8099   18.4657 N   0  0  0  0  0  0  0  0  0  0  0  0
    8.9892   -0.7926   25.4573 C   0  0  0  0  0  0  0  0  0  0  0  0
   10.5677   -3.4462   20.5323 C   0  0  0  0  0  0  0  0  0  0  0  0
  1  8  1  0
  1 12  4  0
  1 14  4  0
  2  3  4  0
  2 18  4  0
  3 20  4  0
  3 22  4  0
  4 11  4  0
  4 21  4  0
  5  9  4  0
  5 16  4  0
  6 15  4  0
  6 16  4  0
  7 22  4  0
  7 26  4  0
  8 10  4  0
  8 25  4  0
  9 15  4  0
  9 17  1  0
 10 21  4  0
 11 25  4  0
 12 23  4  0
 13 20  4  0
 13 26  4  0
 14 19  4  0
 17 18  4  0
 17 24  4  0
 19 23  4  0
 20 24  4  0
 23 26  1  0
M  END
$$$$

 Created by Python create_sdf_string function

 26 30  0  0  0  0  0  0  0  0999 V2000
   10.0084   -1.8019   23.4945 C   0  0  0  0  0  0  0  0  0  0  0  0
   10.0005   -4.2520   16.5631 C   0  0  0  0  0  0  0  0  0  0  0  0
   10.2759   -4.0036   17.8845 C   0  0  0  0  0  0  0  0  0  0  0  0
    8.5652    1.5478   25.3778 N   0  0  0  0  0  0  0  0  0  0  0  0
    6.8048   -7.5457   17.8752 C   0  0  0  0  0  0  0  0  0  0  0  0
    6.1721   -8.2186   15.9886 N   0  0  0  0  0  0  0  0  0  0  0  0
   11.1764   -2.6600   19.5604 C   0  0  0  0  0  0  0  0  0  0  0  0
    9.5491   -0.6380   24.1912 C   0  0  0  0  0  0  0  0  0  0  0  0
    7.5337   -6.9256   16.9519 C   0  0  0  0  0  0  0  0  0  0  0  0
    9.6782    0.5671   23.5143 C   0  0  0  0  0  0  0  0  0  0  0  0
    8.4532    0.3482   26.0821 C   0  0  0  0  0  0  0  0  0  0  0  0
   10.4239   -1.7677   22.2230 N   0  0  0  0  0  0  0  0  0  0  0  0
    9.9468   -4.5953   20.1709 C   0  0  0  0  0  0  0  0  0  0  0  0
   10.0366   -3.0590   23.9864 N   0  0  0  0  0  0  0  0  0  0  0  0
    7.1191   -7.3636   15.7739 C   0  0  0  0  0  0  0  0  0  0  0  0
    5.9612   -8.3203   17.2732 N   0  0  0  0  0  0  0  0  0  0  0  0
    8.5296   -5.9814   17.1841 C   0  0  0  0  0  0  0  0  0  0  0  0
    9.1527   -5.2118   16.2116 C   0  0  0  0  0  0  0  0  0  0  0  0
   10.3364   -3.8368   22.9255 O   0  0  0  0  0  0  0  0  0  0  0  0
    9.6947   -4.8407   18.8534 C   0  0  0  0  0  0  0  0  0  0  0  0
    9.1596    1.7042   24.1381 C   0  0  0  0  0  0  0  0  0  0  0  0
   11.0456   -2.9774   18.2694 N   0  0  0  0  0  0  0  0  0  0  0  0
   10.4788   -3.0457   21.8593 C   0  0  0  0  0  0  0  0  0  0  0  0
    8.8693   -5.8099   18.4657 N   0  0  0  0  0  0  0  0  0  0  0  0
    8.9892   -0.7926   25.4573 C   0  0  0  0  0  0  0  0  0  0  0  0
   10.5677   -3.4462   20.5323 C   0  0  0  0  0  0  0  0  0  0  0  0
  1  8  1  0
  1 12  4  0
  1 14  4  0
  2  3  4  0
  2 18  4  0
  3 20  4  0
  3 22  4  0
  4 11  4  0
  4 21  4  0
  5  9  4  0
  5 16  4  0
  6 15  4  0
  6 16  4  0
  7 22  4  0
  7 26  4  0
  8 10  4  0
  8 25  4  0
  9 15  4  0
  9 17  1  0
 10 21  4  0
 11 25  4  0
 12 23  4  0
 13 20  4  0
 13 26  4  0
 14 19  4  0
 17 18  4  0
 17 24  4  0
 19 23  4  0
 20 24  4  0
 23 26  1  0
M  END
$$$$

 Created by Python create_sdf_string function

 26 30  0  0  0  0  0  0  0  0999 V2000
   10.0084   -1.8019   23.4945 C   0  0  0  0  0  0  0  0  0  0  0  0
   10.0005   -4.2520   16.5631 C   0  0  0  0  0  0  0  0  0  0  0  0
   10.2759   -4.0036   17.8845 C   0  0  0  0  0  0  0  0  0  0  0  0
    8.5652    1.5478   25.3778 N   0  0  0  0  0  0  0  0  0  0  0  0
    6.8048   -7.5457   17.8752 C   0  0  0  0  0  0  0  0  0  0  0  0
    6.1721   -8.2186   15.9886 N   0  0  0  0  0  0  0  0  0  0  0  0
   11.1764   -2.6600   19.5604 C   0  0  0  0  0  0  0  0  0  0  0  0
    9.5491   -0.6380   24.1912 C   0  0  0  0  0  0  0  0  0  0  0  0
    7.5337   -6.9256   16.9519 C   0  0  0  0  0  0  0  0  0  0  0  0
    9.6782    0.5671   23.5143 C   0  0  0  0  0  0  0  0  0  0  0  0
    8.4532    0.3482   26.0821 C   0  0  0  0  0  0  0  0  0  0  0  0
   10.4239   -1.7677   22.2230 N   0  0  0  0  0  0  0  0  0  0  0  0
    9.9468   -4.5953   20.1709 C   0  0  0  0  0  0  0  0  0  0  0  0
   10.0366   -3.0590   23.9864 N   0  0  0  0  0  0  0  0  0  0  0  0
    7.1191   -7.3636   15.7739 C   0  0  0  0  0  0  0  0  0  0  0  0
    5.9612   -8.3203   17.2732 N   0  0  0  0  0  0  0  0  0  0  0  0
    8.5296   -5.9814   17.1841 C   0  0  0  0  0  0  0  0  0  0  0  0
    9.1527   -5.2118   16.2116 C   0  0  0  0  0  0  0  0  0  0  0  0
   10.3364   -3.8368   22.9255 O   0  0  0  0  0  0  0  0  0  0  0  0
    9.6947   -4.8407   18.8534 C   0  0  0  0  0  0  0  0  0  0  0  0
    9.1596    1.7042   24.1381 C   0  0  0  0  0  0  0  0  0  0  0  0
   11.0456   -2.9774   18.2694 N   0  0  0  0  0  0  0  0  0  0  0  0
   10.4788   -3.0457   21.8593 C   0  0  0  0  0  0  0  0  0  0  0  0
    8.8693   -5.8099   18.4657 N   0  0  0  0  0  0  0  0  0  0  0  0
    8.9892   -0.7926   25.4573 C   0  0  0  0  0  0  0  0  0  0  0  0
   10.5677   -3.4462   20.5323 C   0  0  0  0  0  0  0  0  0  0  0  0
  1  8  1  0
  1 12  4  0
  1 14  4  0
  2  3  4  0
  2 18  4  0
  3 20  4  0
  3 22  4  0
  4 11  4  0
  4 21  4  0
  5  9  4  0
  5 16  4  0
  6 15  4  0
  6 16  4  0
  7 22  4  0
  7 26  4  0
  8 10  4  0
  8 25  4  0
  9 15  4  0
  9 17  1  0
 10 21  4  0
 11 25  4  0
 12 23  4  0
 13 20  4  0
 13 26  4  0
 14 19  4  0
 17 18  4  0
 17 24  4  0
 19 23  4  0
 20 24  4  0
 23 26  1  0
M  END
$$$$

 Created by Python create_sdf_string function

 26 30  0  0  0  0  0  0  0  0999 V2000
   10.0084   -1.8019   23.4945 C   0  0  0  0  0  0  0  0  0  0  0  0
   10.0005   -4.2520   16.5631 C   0  0  0  0  0  0  0  0  0  0  0  0
   10.2759   -4.0036   17.8845 C   0  0  0  0  0  0  0  0  0  0  0  0
    8.5652    1.5478   25.3778 N   0  0  0  0  0  0  0  0  0  0  0  0
    6.8048   -7.5457   17.8752 C   0  0  0  0  0  0  0  0  0  0  0  0
    6.1721   -8.2186   15.9886 N   0  0  0  0  0  0  0  0  0  0  0  0
   11.1764   -2.6600   19.5604 C   0  0  0  0  0  0  0  0  0  0  0  0
    9.5491   -0.6380   24.1912 C   0  0  0  0  0  0  0  0  0  0  0  0
    7.5337   -6.9256   16.9519 C   0  0  0  0  0  0  0  0  0  0  0  0
    9.6782    0.5671   23.5143 C   0  0  0  0  0  0  0  0  0  0  0  0
    8.4532    0.3482   26.0821 C   0  0  0  0  0  0  0  0  0  0  0  0
   10.4239   -1.7677   22.2230 N   0  0  0  0  0  0  0  0  0  0  0  0
    9.9468   -4.5953   20.1709 C   0  0  0  0  0  0  0  0  0  0  0  0
   10.0366   -3.0590   23.9864 N   0  0  0  0  0  0  0  0  0  0  0  0
    7.1191   -7.3636   15.7739 C   0  0  0  0  0  0  0  0  0  0  0  0
    5.9612   -8.3203   17.2732 N   0  0  0  0  0  0  0  0  0  0  0  0
    8.5296   -5.9814   17.1841 C   0  0  0  0  0  0  0  0  0  0  0  0
    9.1527   -5.2118   16.2116 C   0  0  0  0  0  0  0  0  0  0  0  0
   10.3364   -3.8368   22.9255 O   0  0  0  0  0  0  0  0  0  0  0  0
    9.6947   -4.8407   18.8534 C   0  0  0  0  0  0  0  0  0  0  0  0
    9.1596    1.7042   24.1381 C   0  0  0  0  0  0  0  0  0  0  0  0
   11.0456   -2.9774   18.2694 N   0  0  0  0  0  0  0  0  0  0  0  0
   10.4788   -3.0457   21.8593 C   0  0  0  0  0  0  0  0  0  0  0  0
    8.8693   -5.8099   18.4657 N   0  0  0  0  0  0  0  0  0  0  0  0
    8.9892   -0.7926   25.4573 C   0  0  0  0  0  0  0  0  0  0  0  0
   10.5677   -3.4462   20.5323 C   0  0  0  0  0  0  0  0  0  0  0  0
  1  8  1  0
  1 12  4  0
  1 14  4  0
  2  3  4  0
  2 18  4  0
  3 20  4  0
  3 22  4  0
  4 11  4  0
  4 21  4  0
  5  9  4  0
  5 16  4  0
  6 15  4  0
  6 16  4  0
  7 22  4  0
  7 26  4  0
  8 10  4  0
  8 25  4  0
  9 15  4  0
  9 17  1  0
 10 21  4  0
 11 25  4  0
 12 23  4  0
 13 20  4  0
 13 26  4  0
 14 19  4  0
 17 18  4  0
 17 24  4  0
 19 23  4  0
 20 24  4  0
 23 26  1  0
M  END
$$$$

 Created by Python create_sdf_string function

 26 30  0  0  0  0  0  0  0  0999 V2000
   10.0084   -1.8019   23.4945 C   0  0  0  0  0  0  0  0  0  0  0  0
   10.0005   -4.2520   16.5631 C   0  0  0  0  0  0  0  0  0  0  0  0
   10.2759   -4.0036   17.8845 C   0  0  0  0  0  0  0  0  0  0  0  0
    8.5652    1.5478   25.3778 N   0  0  0  0  0  0  0  0  0  0  0  0
    6.8048   -7.5457   17.8752 C   0  0  0  0  0  0  0  0  0  0  0  0
    6.1721   -8.2186   15.9886 N   0  0  0  0  0  0  0  0  0  0  0  0
   11.1764   -2.6600   19.5604 C   0  0  0  0  0  0  0  0  0  0  0  0
    9.5491   -0.6380   24.1912 C   0  0  0  0  0  0  0  0  0  0  0  0
    7.5337   -6.9256   16.9519 C   0  0  0  0  0  0  0  0  0  0  0  0
    9.6782    0.5671   23.5143 C   0  0  0  0  0  0  0  0  0  0  0  0
    8.4532    0.3482   26.0821 C   0  0  0  0  0  0  0  0  0  0  0  0
   10.4239   -1.7677   22.2230 N   0  0  0  0  0  0  0  0  0  0  0  0
    9.9468   -4.5953   20.1709 C   0  0  0  0  0  0  0  0  0  0  0  0
   10.0366   -3.0590   23.9864 N   0  0  0  0  0  0  0  0  0  0  0  0
    7.1191   -7.3636   15.7739 C   0  0  0  0  0  0  0  0  0  0  0  0
    5.9612   -8.3203   17.2732 N   0  0  0  0  0  0  0  0  0  0  0  0
    8.5296   -5.9814   17.1841 C   0  0  0  0  0  0  0  0  0  0  0  0
    9.1527   -5.2118   16.2116 C   0  0  0  0  0  0  0  0  0  0  0  0
   10.3364   -3.8368   22.9255 O   0  0  0  0  0  0  0  0  0  0  0  0
    9.6947   -4.8407   18.8534 C   0  0  0  0  0  0  0  0  0  0  0  0
    9.1596    1.7042   24.1381 C   0  0  0  0  0  0  0  0  0  0  0  0
   11.0456   -2.9774   18.2694 N   0  0  0  0  0  0  0  0  0  0  0  0
   10.4788   -3.0457   21.8593 C   0  0  0  0  0  0  0  0  0  0  0  0
    8.8693   -5.8099   18.4657 N   0  0  0  0  0  0  0  0  0  0  0  0
    8.9892   -0.7926   25.4573 C   0  0  0  0  0  0  0  0  0  0  0  0
   10.5677   -3.4462   20.5323 C   0  0  0  0  0  0  0  0  0  0  0  0
  1  8  1  0
  1 12  4  0
  1 14  4  0
  2  3  4  0
  2 18  4  0
  3 20  4  0
  3 22  4  0
  4 11  4  0
  4 21  4  0
  5  9  4  0
  5 16  4  0
  6 15  4  0
  6 16  4  0
  7 22  4  0
  7 26  4  0
  8 10  4  0
  8 25  4  0
  9 15  4  0
  9 17  1  0
 10 21  4  0
 11 25  4  0
 12 23  4  0
 13 20  4  0
 13 26  4  0
 14 19  4  0
 17 18  4  0
 17 24  4  0
 19 23  4  0
 20 24  4  0
 23 26  1  0
M  END
$$$$

 Created by Python create_sdf_string function

 26 30  0  0  0  0  0  0  0  0999 V2000
   10.0084   -1.8019   23.4945 C   0  0  0  0  0  0  0  0  0  0  0  0
   10.0005   -4.2520   16.5631 C   0  0  0  0  0  0  0  0  0  0  0  0
   10.2759   -4.0036   17.8845 C   0  0  0  0  0  0  0  0  0  0  0  0
    8.5652    1.5478   25.3778 N   0  0  0  0  0  0  0  0  0  0  0  0
    6.8048   -7.5457   17.8752 C   0  0  0  0  0  0  0  0  0  0  0  0
    6.1721   -8.2186   15.9886 N   0  0  0  0  0  0  0  0  0  0  0  0
   11.1764   -2.6600   19.5604 C   0  0  0  0  0  0  0  0  0  0  0  0
    9.5491   -0.6380   24.1912 C   0  0  0  0  0  0  0  0  0  0  0  0
    7.5337   -6.9256   16.9519 C   0  0  0  0  0  0  0  0  0  0  0  0
    9.6782    0.5671   23.5143 C   0  0  0  0  0  0  0  0  0  0  0  0
    8.4532    0.3482   26.0821 C   0  0  0  0  0  0  0  0  0  0  0  0
   10.4239   -1.7677   22.2230 N   0  0  0  0  0  0  0  0  0  0  0  0
    9.9468   -4.5953   20.1709 C   0  0  0  0  0  0  0  0  0  0  0  0
   10.0366   -3.0590   23.9864 N   0  0  0  0  0  0  0  0  0  0  0  0
    7.1191   -7.3636   15.7739 C   0  0  0  0  0  0  0  0  0  0  0  0
    5.9612   -8.3203   17.2732 N   0  0  0  0  0  0  0  0  0  0  0  0
    8.5296   -5.9814   17.1841 C   0  0  0  0  0  0  0  0  0  0  0  0
    9.1527   -5.2118   16.2116 C   0  0  0  0  0  0  0  0  0  0  0  0
   10.3364   -3.8368   22.9255 O   0  0  0  0  0  0  0  0  0  0  0  0
    9.6947   -4.8407   18.8534 C   0  0  0  0  0  0  0  0  0  0  0  0
    9.1596    1.7042   24.1381 C   0  0  0  0  0  0  0  0  0  0  0  0
   11.0456   -2.9774   18.2694 N   0  0  0  0  0  0  0  0  0  0  0  0
   10.4788   -3.0457   21.8593 C   0  0  0  0  0  0  0  0  0  0  0  0
    8.8693   -5.8099   18.4657 N   0  0  0  0  0  0  0  0  0  0  0  0
    8.9892   -0.7926   25.4573 C   0  0  0  0  0  0  0  0  0  0  0  0
   10.5677   -3.4462   20.5323 C   0  0  0  0  0  0  0  0  0  0  0  0
  1  8  1  0
  1 12  4  0
  1 14  4  0
  2  3  4  0
  2 18  4  0
  3 20  4  0
  3 22  4  0
  4 11  4  0
  4 21  4  0
  5  9  4  0
  5 16  4  0
  6 15  4  0
  6 16  4  0
  7 22  4  0
  7 26  4  0
  8 10  4  0
  8 25  4  0
  9 15  4  0
  9 17  1  0
 10 21  4  0
 11 25  4  0
 12 23  4  0
 13 20  4  0
 13 26  4  0
 14 19  4  0
 17 18  4  0
 17 24  4  0
 19 23  4  0
 20 24  4  0
 23 26  1  0
M  END
$$$$

 Created by Python create_sdf_string function

 26 30  0  0  0  0  0  0  0  0999 V2000
   10.0084   -1.8019   23.4945 C   0  0  0  0  0  0  0  0  0  0  0  0
   10.0005   -4.2520   16.5631 C   0  0  0  0  0  0  0  0  0  0  0  0
   10.2759   -4.0036   17.8845 C   0  0  0  0  0  0  0  0  0  0  0  0
    8.5652    1.5478   25.3778 N   0  0  0  0  0  0  0  0  0  0  0  0
    6.8048   -7.5457   17.8752 C   0  0  0  0  0  0  0  0  0  0  0  0
    6.1721   -8.2186   15.9886 N   0  0  0  0  0  0  0  0  0  0  0  0
   11.1764   -2.6600   19.5604 C   0  0  0  0  0  0  0  0  0  0  0  0
    9.5491   -0.6380   24.1912 C   0  0  0  0  0  0  0  0  0  0  0  0
    7.5337   -6.9256   16.9519 C   0  0  0  0  0  0  0  0  0  0  0  0
    9.6782    0.5671   23.5143 C   0  0  0  0  0  0  0  0  0  0  0  0
    8.4532    0.3482   26.0821 C   0  0  0  0  0  0  0  0  0  0  0  0
   10.4239   -1.7677   22.2230 N   0  0  0  0  0  0  0  0  0  0  0  0
    9.9468   -4.5953   20.1709 C   0  0  0  0  0  0  0  0  0  0  0  0
   10.0366   -3.0590   23.9864 N   0  0  0  0  0  0  0  0  0  0  0  0
    7.1191   -7.3636   15.7739 C   0  0  0  0  0  0  0  0  0  0  0  0
    5.9612   -8.3203   17.2732 N   0  0  0  0  0  0  0  0  0  0  0  0
    8.5296   -5.9814   17.1841 C   0  0  0  0  0  0  0  0  0  0  0  0
    9.1527   -5.2118   16.2116 C   0  0  0  0  0  0  0  0  0  0  0  0
   10.3364   -3.8368   22.9255 O   0  0  0  0  0  0  0  0  0  0  0  0
    9.6947   -4.8407   18.8534 C   0  0  0  0  0  0  0  0  0  0  0  0
    9.1596    1.7042   24.1381 C   0  0  0  0  0  0  0  0  0  0  0  0
   11.0456   -2.9774   18.2694 N   0  0  0  0  0  0  0  0  0  0  0  0
   10.4788   -3.0457   21.8593 C   0  0  0  0  0  0  0  0  0  0  0  0
    8.8693   -5.8099   18.4657 N   0  0  0  0  0  0  0  0  0  0  0  0
    8.9892   -0.7926   25.4573 C   0  0  0  0  0  0  0  0  0  0  0  0
   10.5677   -3.4462   20.5323 C   0  0  0  0  0  0  0  0  0  0  0  0
  1  8  1  0
  1 12  4  0
  1 14  4  0
  2  3  4  0
  2 18  4  0
  3 20  4  0
  3 22  4  0
  4 11  4  0
  4 21  4  0
  5  9  4  0
  5 16  4  0
  6 15  4  0
  6 16  4  0
  7 22  4  0
  7 26  4  0
  8 10  4  0
  8 25  4  0
  9 15  4  0
  9 17  1  0
 10 21  4  0
 11 25  4  0
 12 23  4  0
 13 20  4  0
 13 26  4  0
 14 19  4  0
 17 18  4  0
 17 24  4  0
 19 23  4  0
 20 24  4  0
 23 26  1  0
M  END
$$$$

 Created by Python create_sdf_string function

 26 30  0  0  0  0  0  0  0  0999 V2000
   10.0084   -1.8019   23.4945 C   0  0  0  0  0  0  0  0  0  0  0  0
   10.0005   -4.2520   16.5631 C   0  0  0  0  0  0  0  0  0  0  0  0
   10.2759   -4.0036   17.8845 C   0  0  0  0  0  0  0  0  0  0  0  0
    8.5652    1.5478   25.3778 N   0  0  0  0  0  0  0  0  0  0  0  0
    6.8048   -7.5457   17.8752 C   0  0  0  0  0  0  0  0  0  0  0  0
    6.1721   -8.2186   15.9886 N   0  0  0  0  0  0  0  0  0  0  0  0
   11.1764   -2.6600   19.5604 C   0  0  0  0  0  0  0  0  0  0  0  0
    9.5491   -0.6380   24.1912 C   0  0  0  0  0  0  0  0  0  0  0  0
    7.5337   -6.9256   16.9519 C   0  0  0  0  0  0  0  0  0  0  0  0
    9.6782    0.5671   23.5143 C   0  0  0  0  0  0  0  0  0  0  0  0
    8.4532    0.3482   26.0821 C   0  0  0  0  0  0  0  0  0  0  0  0
   10.4239   -1.7677   22.2230 N   0  0  0  0  0  0  0  0  0  0  0  0
    9.9468   -4.5953   20.1709 C   0  0  0  0  0  0  0  0  0  0  0  0
   10.0366   -3.0590   23.9864 N   0  0  0  0  0  0  0  0  0  0  0  0
    7.1191   -7.3636   15.7739 C   0  0  0  0  0  0  0  0  0  0  0  0
    5.9612   -8.3203   17.2732 N   0  0  0  0  0  0  0  0  0  0  0  0
    8.5296   -5.9814   17.1841 C   0  0  0  0  0  0  0  0  0  0  0  0
    9.1527   -5.2118   16.2116 C   0  0  0  0  0  0  0  0  0  0  0  0
   10.3364   -3.8368   22.9255 O   0  0  0  0  0  0  0  0  0  0  0  0
    9.6947   -4.8407   18.8534 C   0  0  0  0  0  0  0  0  0  0  0  0
    9.1596    1.7042   24.1381 C   0  0  0  0  0  0  0  0  0  0  0  0
   11.0456   -2.9774   18.2694 N   0  0  0  0  0  0  0  0  0  0  0  0
   10.4788   -3.0457   21.8593 C   0  0  0  0  0  0  0  0  0  0  0  0
    8.8693   -5.8099   18.4657 N   0  0  0  0  0  0  0  0  0  0  0  0
    8.9892   -0.7926   25.4573 C   0  0  0  0  0  0  0  0  0  0  0  0
   10.5677   -3.4462   20.5323 C   0  0  0  0  0  0  0  0  0  0  0  0
  1  8  1  0
  1 12  4  0
  1 14  4  0
  2  3  4  0
  2 18  4  0
  3 20  4  0
  3 22  4  0
  4 11  4  0
  4 21  4  0
  5  9  4  0
  5 16  4  0
  6 15  4  0
  6 16  4  0
  7 22  4  0
  7 26  4  0
  8 10  4  0
  8 25  4  0
  9 15  4  0
  9 17  1  0
 10 21  4  0
 11 25  4  0
 12 23  4  0
 13 20  4  0
 13 26  4  0
 14 19  4  0
 17 18  4  0
 17 24  4  0
 19 23  4  0
 20 24  4  0
 23 26  1  0
M  END
$$$$

 Created by Python create_sdf_string function

 26 30  0  0  0  0  0  0  0  0999 V2000
   10.0084   -1.8019   23.4945 C   0  0  0  0  0  0  0  0  0  0  0  0
   10.0005   -4.2520   16.5631 C   0  0  0  0  0  0  0  0  0  0  0  0
   10.2759   -4.0036   17.8845 C   0  0  0  0  0  0  0  0  0  0  0  0
    8.5652    1.5478   25.3778 N   0  0  0  0  0  0  0  0  0  0  0  0
    6.8048   -7.5457   17.8752 C   0  0  0  0  0  0  0  0  0  0  0  0
    6.1721   -8.2186   15.9886 N   0  0  0  0  0  0  0  0  0  0  0  0
   11.1764   -2.6600   19.5604 C   0  0  0  0  0  0  0  0  0  0  0  0
    9.5491   -0.6380   24.1912 C   0  0  0  0  0  0  0  0  0  0  0  0
    7.5337   -6.9256   16.9519 C   0  0  0  0  0  0  0  0  0  0  0  0
    9.6782    0.5671   23.5143 C   0  0  0  0  0  0  0  0  0  0  0  0
    8.4532    0.3482   26.0821 C   0  0  0  0  0  0  0  0  0  0  0  0
   10.4239   -1.7677   22.2230 N   0  0  0  0  0  0  0  0  0  0  0  0
    9.9468   -4.5953   20.1709 C   0  0  0  0  0  0  0  0  0  0  0  0
   10.0366   -3.0590   23.9864 N   0  0  0  0  0  0  0  0  0  0  0  0
    7.1191   -7.3636   15.7739 C   0  0  0  0  0  0  0  0  0  0  0  0
    5.9612   -8.3203   17.2732 N   0  0  0  0  0  0  0  0  0  0  0  0
    8.5296   -5.9814   17.1841 C   0  0  0  0  0  0  0  0  0  0  0  0
    9.1527   -5.2118   16.2116 C   0  0  0  0  0  0  0  0  0  0  0  0
   10.3364   -3.8368   22.9255 O   0  0  0  0  0  0  0  0  0  0  0  0
    9.6947   -4.8407   18.8534 C   0  0  0  0  0  0  0  0  0  0  0  0
    9.1596    1.7042   24.1381 C   0  0  0  0  0  0  0  0  0  0  0  0
   11.0456   -2.9774   18.2694 N   0  0  0  0  0  0  0  0  0  0  0  0
   10.4788   -3.0457   21.8593 C   0  0  0  0  0  0  0  0  0  0  0  0
    8.8693   -5.8099   18.4657 N   0  0  0  0  0  0  0  0  0  0  0  0
    8.9892   -0.7926   25.4573 C   0  0  0  0  0  0  0  0  0  0  0  0
   10.5677   -3.4462   20.5323 C   0  0  0  0  0  0  0  0  0  0  0  0
  1  8  1  0
  1 12  4  0
  1 14  4  0
  2  3  4  0
  2 18  4  0
  3 20  4  0
  3 22  4  0
  4 11  4  0
  4 21  4  0
  5  9  4  0
  5 16  4  0
  6 15  4  0
  6 16  4  0
  7 22  4  0
  7 26  4  0
  8 10  4  0
  8 25  4  0
  9 15  4  0
  9 17  1  0
 10 21  4  0
 11 25  4  0
 12 23  4  0
 13 20  4  0
 13 26  4  0
 14 19  4  0
 17 18  4  0
 17 24  4  0
 19 23  4  0
 20 24  4  0
 23 26  1  0
M  END
$$$$

 Created by Python create_sdf_string function

 26 30  0  0  0  0  0  0  0  0999 V2000
   10.0084   -1.8019   23.4945 C   0  0  0  0  0  0  0  0  0  0  0  0
   10.0005   -4.2520   16.5631 C   0  0  0  0  0  0  0  0  0  0  0  0
   10.2759   -4.0036   17.8845 C   0  0  0  0  0  0  0  0  0  0  0  0
    8.5652    1.5478   25.3778 N   0  0  0  0  0  0  0  0  0  0  0  0
    6.8048   -7.5457   17.8752 C   0  0  0  0  0  0  0  0  0  0  0  0
    6.1721   -8.2186   15.9886 N   0  0  0  0  0  0  0  0  0  0  0  0
   11.1764   -2.6600   19.5604 C   0  0  0  0  0  0  0  0  0  0  0  0
    9.5491   -0.6380   24.1912 C   0  0  0  0  0  0  0  0  0  0  0  0
    7.5337   -6.9256   16.9519 C   0  0  0  0  0  0  0  0  0  0  0  0
    9.6782    0.5671   23.5143 C   0  0  0  0  0  0  0  0  0  0  0  0
    8.4532    0.3482   26.0821 C   0  0  0  0  0  0  0  0  0  0  0  0
   10.4239   -1.7677   22.2230 N   0  0  0  0  0  0  0  0  0  0  0  0
    9.9468   -4.5953   20.1709 C   0  0  0  0  0  0  0  0  0  0  0  0
   10.0366   -3.0590   23.9864 N   0  0  0  0  0  0  0  0  0  0  0  0
    7.1191   -7.3636   15.7739 C   0  0  0  0  0  0  0  0  0  0  0  0
    5.9612   -8.3203   17.2732 N   0  0  0  0  0  0  0  0  0  0  0  0
    8.5296   -5.9814   17.1841 C   0  0  0  0  0  0  0  0  0  0  0  0
    9.1527   -5.2118   16.2116 C   0  0  0  0  0  0  0  0  0  0  0  0
   10.3364   -3.8368   22.9255 O   0  0  0  0  0  0  0  0  0  0  0  0
    9.6947   -4.8407   18.8534 C   0  0  0  0  0  0  0  0  0  0  0  0
    9.1596    1.7042   24.1381 C   0  0  0  0  0  0  0  0  0  0  0  0
   11.0456   -2.9774   18.2694 N   0  0  0  0  0  0  0  0  0  0  0  0
   10.4788   -3.0457   21.8593 C   0  0  0  0  0  0  0  0  0  0  0  0
    8.8693   -5.8099   18.4657 N   0  0  0  0  0  0  0  0  0  0  0  0
    8.9892   -0.7926   25.4573 C   0  0  0  0  0  0  0  0  0  0  0  0
   10.5677   -3.4462   20.5323 C   0  0  0  0  0  0  0  0  0  0  0  0
  1  8  1  0
  1 12  4  0
  1 14  4  0
  2  3  4  0
  2 18  4  0
  3 20  4  0
  3 22  4  0
  4 11  4  0
  4 21  4  0
  5  9  4  0
  5 16  4  0
  6 15  4  0
  6 16  4  0
  7 22  4  0
  7 26  4  0
  8 10  4  0
  8 25  4  0
  9 15  4  0
  9 17  1  0
 10 21  4  0
 11 25  4  0
 12 23  4  0
 13 20  4  0
 13 26  4  0
 14 19  4  0
 17 18  4  0
 17 24  4  0
 19 23  4  0
 20 24  4  0
 23 26  1  0
M  END
$$$$

 Created by Python create_sdf_string function

 26 30  0  0  0  0  0  0  0  0999 V2000
   10.0084   -1.8019   23.4945 C   0  0  0  0  0  0  0  0  0  0  0  0
   10.0005   -4.2520   16.5631 C   0  0  0  0  0  0  0  0  0  0  0  0
   10.2759   -4.0036   17.8845 C   0  0  0  0  0  0  0  0  0  0  0  0
    8.5652    1.5478   25.3778 N   0  0  0  0  0  0  0  0  0  0  0  0
    6.8048   -7.5457   17.8752 C   0  0  0  0  0  0  0  0  0  0  0  0
    6.1721   -8.2186   15.9886 N   0  0  0  0  0  0  0  0  0  0  0  0
   11.1764   -2.6600   19.5604 C   0  0  0  0  0  0  0  0  0  0  0  0
    9.5491   -0.6380   24.1912 C   0  0  0  0  0  0  0  0  0  0  0  0
    7.5337   -6.9256   16.9519 C   0  0  0  0  0  0  0  0  0  0  0  0
    9.6782    0.5671   23.5143 C   0  0  0  0  0  0  0  0  0  0  0  0
    8.4532    0.3482   26.0821 C   0  0  0  0  0  0  0  0  0  0  0  0
   10.4239   -1.7677   22.2230 N   0  0  0  0  0  0  0  0  0  0  0  0
    9.9468   -4.5953   20.1709 C   0  0  0  0  0  0  0  0  0  0  0  0
   10.0366   -3.0590   23.9864 N   0  0  0  0  0  0  0  0  0  0  0  0
    7.1191   -7.3636   15.7739 C   0  0  0  0  0  0  0  0  0  0  0  0
    5.9612   -8.3203   17.2732 N   0  0  0  0  0  0  0  0  0  0  0  0
    8.5296   -5.9814   17.1841 C   0  0  0  0  0  0  0  0  0  0  0  0
    9.1527   -5.2118   16.2116 C   0  0  0  0  0  0  0  0  0  0  0  0
   10.3364   -3.8368   22.9255 O   0  0  0  0  0  0  0  0  0  0  0  0
    9.6947   -4.8407   18.8534 C   0  0  0  0  0  0  0  0  0  0  0  0
    9.1596    1.7042   24.1381 C   0  0  0  0  0  0  0  0  0  0  0  0
   11.0456   -2.9774   18.2694 N   0  0  0  0  0  0  0  0  0  0  0  0
   10.4788   -3.0457   21.8593 C   0  0  0  0  0  0  0  0  0  0  0  0
    8.8693   -5.8099   18.4657 N   0  0  0  0  0  0  0  0  0  0  0  0
    8.9892   -0.7926   25.4573 C   0  0  0  0  0  0  0  0  0  0  0  0
   10.5677   -3.4462   20.5323 C   0  0  0  0  0  0  0  0  0  0  0  0
  1  8  1  0
  1 12  4  0
  1 14  4  0
  2  3  4  0
  2 18  4  0
  3 20  4  0
  3 22  4  0
  4 11  4  0
  4 21  4  0
  5  9  4  0
  5 16  4  0
  6 15  4  0
  6 16  4  0
  7 22  4  0
  7 26  4  0
  8 10  4  0
  8 25  4  0
  9 15  4  0
  9 17  1  0
 10 21  4  0
 11 25  4  0
 12 23  4  0
 13 20  4  0
 13 26  4  0
 14 19  4  0
 17 18  4  0
 17 24  4  0
 19 23  4  0
 20 24  4  0
 23 26  1  0
M  END
$$$$

 Created by Python create_sdf_string function

 26 30  0  0  0  0  0  0  0  0999 V2000
   10.0084   -1.8019   23.4945 C   0  0  0  0  0  0  0  0  0  0  0  0
   10.0005   -4.2520   16.5631 C   0  0  0  0  0  0  0  0  0  0  0  0
   10.2759   -4.0036   17.8845 C   0  0  0  0  0  0  0  0  0  0  0  0
    8.5652    1.5478   25.3778 N   0  0  0  0  0  0  0  0  0  0  0  0
    6.8048   -7.5457   17.8752 C   0  0  0  0  0  0  0  0  0  0  0  0
    6.1721   -8.2186   15.9886 N   0  0  0  0  0  0  0  0  0  0  0  0
   11.1764   -2.6600   19.5604 C   0  0  0  0  0  0  0  0  0  0  0  0
    9.5491   -0.6380   24.1912 C   0  0  0  0  0  0  0  0  0  0  0  0
    7.5337   -6.9256   16.9519 C   0  0  0  0  0  0  0  0  0  0  0  0
    9.6782    0.5671   23.5143 C   0  0  0  0  0  0  0  0  0  0  0  0
    8.4532    0.3482   26.0821 C   0  0  0  0  0  0  0  0  0  0  0  0
   10.4239   -1.7677   22.2230 N   0  0  0  0  0  0  0  0  0  0  0  0
    9.9468   -4.5953   20.1709 C   0  0  0  0  0  0  0  0  0  0  0  0
   10.0366   -3.0590   23.9864 N   0  0  0  0  0  0  0  0  0  0  0  0
    7.1191   -7.3636   15.7739 C   0  0  0  0  0  0  0  0  0  0  0  0
    5.9612   -8.3203   17.2732 N   0  0  0  0  0  0  0  0  0  0  0  0
    8.5296   -5.9814   17.1841 C   0  0  0  0  0  0  0  0  0  0  0  0
    9.1527   -5.2118   16.2116 C   0  0  0  0  0  0  0  0  0  0  0  0
   10.3364   -3.8368   22.9255 O   0  0  0  0  0  0  0  0  0  0  0  0
    9.6947   -4.8407   18.8534 C   0  0  0  0  0  0  0  0  0  0  0  0
    9.1596    1.7042   24.1381 C   0  0  0  0  0  0  0  0  0  0  0  0
   11.0456   -2.9774   18.2694 N   0  0  0  0  0  0  0  0  0  0  0  0
   10.4788   -3.0457   21.8593 C   0  0  0  0  0  0  0  0  0  0  0  0
    8.8693   -5.8099   18.4657 N   0  0  0  0  0  0  0  0  0  0  0  0
    8.9892   -0.7926   25.4573 C   0  0  0  0  0  0  0  0  0  0  0  0
   10.5677   -3.4462   20.5323 C   0  0  0  0  0  0  0  0  0  0  0  0
  1  8  1  0
  1 12  4  0
  1 14  4  0
  2  3  4  0
  2 18  4  0
  3 20  4  0
  3 22  4  0
  4 11  4  0
  4 21  4  0
  5  9  4  0
  5 16  4  0
  6 15  4  0
  6 16  4  0
  7 22  4  0
  7 26  4  0
  8 10  4  0
  8 25  4  0
  9 15  4  0
  9 17  1  0
 10 21  4  0
 11 25  4  0
 12 23  4  0
 13 20  4  0
 13 26  4  0
 14 19  4  0
 17 18  4  0
 17 24  4  0
 19 23  4  0
 20 24  4  0
 23 26  1  0
M  END
$$$$

 Created by Python create_sdf_string function

 26 30  0  0  0  0  0  0  0  0999 V2000
   10.0084   -1.8019   23.4945 C   0  0  0  0  0  0  0  0  0  0  0  0
   10.0005   -4.2520   16.5631 C   0  0  0  0  0  0  0  0  0  0  0  0
   10.2759   -4.0036   17.8845 C   0  0  0  0  0  0  0  0  0  0  0  0
    8.5652    1.5478   25.3778 N   0  0  0  0  0  0  0  0  0  0  0  0
    6.8048   -7.5457   17.8752 C   0  0  0  0  0  0  0  0  0  0  0  0
    6.1721   -8.2186   15.9886 N   0  0  0  0  0  0  0  0  0  0  0  0
   11.1764   -2.6600   19.5604 C   0  0  0  0  0  0  0  0  0  0  0  0
    9.5491   -0.6380   24.1912 C   0  0  0  0  0  0  0  0  0  0  0  0
    7.5337   -6.9256   16.9519 C   0  0  0  0  0  0  0  0  0  0  0  0
    9.6782    0.5671   23.5143 C   0  0  0  0  0  0  0  0  0  0  0  0
    8.4532    0.3482   26.0821 C   0  0  0  0  0  0  0  0  0  0  0  0
   10.4239   -1.7677   22.2230 N   0  0  0  0  0  0  0  0  0  0  0  0
    9.9468   -4.5953   20.1709 C   0  0  0  0  0  0  0  0  0  0  0  0
   10.0366   -3.0590   23.9864 N   0  0  0  0  0  0  0  0  0  0  0  0
    7.1191   -7.3636   15.7739 C   0  0  0  0  0  0  0  0  0  0  0  0
    5.9612   -8.3203   17.2732 N   0  0  0  0  0  0  0  0  0  0  0  0
    8.5296   -5.9814   17.1841 C   0  0  0  0  0  0  0  0  0  0  0  0
    9.1527   -5.2118   16.2116 C   0  0  0  0  0  0  0  0  0  0  0  0
   10.3364   -3.8368   22.9255 O   0  0  0  0  0  0  0  0  0  0  0  0
    9.6947   -4.8407   18.8534 C   0  0  0  0  0  0  0  0  0  0  0  0
    9.1596    1.7042   24.1381 C   0  0  0  0  0  0  0  0  0  0  0  0
   11.0456   -2.9774   18.2694 N   0  0  0  0  0  0  0  0  0  0  0  0
   10.4788   -3.0457   21.8593 C   0  0  0  0  0  0  0  0  0  0  0  0
    8.8693   -5.8099   18.4657 N   0  0  0  0  0  0  0  0  0  0  0  0
    8.9892   -0.7926   25.4573 C   0  0  0  0  0  0  0  0  0  0  0  0
   10.5677   -3.4462   20.5323 C   0  0  0  0  0  0  0  0  0  0  0  0
  1  8  1  0
  1 12  4  0
  1 14  4  0
  2  3  4  0
  2 18  4  0
  3 20  4  0
  3 22  4  0
  4 11  4  0
  4 21  4  0
  5  9  4  0
  5 16  4  0
  6 15  4  0
  6 16  4  0
  7 22  4  0
  7 26  4  0
  8 10  4  0
  8 25  4  0
  9 15  4  0
  9 17  1  0
 10 21  4  0
 11 25  4  0
 12 23  4  0
 13 20  4  0
 13 26  4  0
 14 19  4  0
 17 18  4  0
 17 24  4  0
 19 23  4  0
 20 24  4  0
 23 26  1  0
M  END
$$$$

 Created by Python create_sdf_string function

 26 30  0  0  0  0  0  0  0  0999 V2000
   10.0084   -1.8019   23.4945 C   0  0  0  0  0  0  0  0  0  0  0  0
   10.0005   -4.2520   16.5631 C   0  0  0  0  0  0  0  0  0  0  0  0
   10.2759   -4.0036   17.8845 C   0  0  0  0  0  0  0  0  0  0  0  0
    8.5652    1.5478   25.3778 N   0  0  0  0  0  0  0  0  0  0  0  0
    6.8048   -7.5457   17.8752 C   0  0  0  0  0  0  0  0  0  0  0  0
    6.1721   -8.2186   15.9886 N   0  0  0  0  0  0  0  0  0  0  0  0
   11.1764   -2.6600   19.5604 C   0  0  0  0  0  0  0  0  0  0  0  0
    9.5491   -0.6380   24.1912 C   0  0  0  0  0  0  0  0  0  0  0  0
    7.5337   -6.9256   16.9519 C   0  0  0  0  0  0  0  0  0  0  0  0
    9.6782    0.5671   23.5143 C   0  0  0  0  0  0  0  0  0  0  0  0
    8.4532    0.3482   26.0821 C   0  0  0  0  0  0  0  0  0  0  0  0
   10.4239   -1.7677   22.2230 N   0  0  0  0  0  0  0  0  0  0  0  0
    9.9468   -4.5953   20.1709 C   0  0  0  0  0  0  0  0  0  0  0  0
   10.0366   -3.0590   23.9864 N   0  0  0  0  0  0  0  0  0  0  0  0
    7.1191   -7.3636   15.7739 C   0  0  0  0  0  0  0  0  0  0  0  0
    5.9612   -8.3203   17.2732 N   0  0  0  0  0  0  0  0  0  0  0  0
    8.5296   -5.9814   17.1841 C   0  0  0  0  0  0  0  0  0  0  0  0
    9.1527   -5.2118   16.2116 C   0  0  0  0  0  0  0  0  0  0  0  0
   10.3364   -3.8368   22.9255 O   0  0  0  0  0  0  0  0  0  0  0  0
    9.6947   -4.8407   18.8534 C   0  0  0  0  0  0  0  0  0  0  0  0
    9.1596    1.7042   24.1381 C   0  0  0  0  0  0  0  0  0  0  0  0
   11.0456   -2.9774   18.2694 N   0  0  0  0  0  0  0  0  0  0  0  0
   10.4788   -3.0457   21.8593 C   0  0  0  0  0  0  0  0  0  0  0  0
    8.8693   -5.8099   18.4657 N   0  0  0  0  0  0  0  0  0  0  0  0
    8.9892   -0.7926   25.4573 C   0  0  0  0  0  0  0  0  0  0  0  0
   10.5677   -3.4462   20.5323 C   0  0  0  0  0  0  0  0  0  0  0  0
  1  8  1  0
  1 12  4  0
  1 14  4  0
  2  3  4  0
  2 18  4  0
  3 20  4  0
  3 22  4  0
  4 11  4  0
  4 21  4  0
  5  9  4  0
  5 16  4  0
  6 15  4  0
  6 16  4  0
  7 22  4  0
  7 26  4  0
  8 10  4  0
  8 25  4  0
  9 15  4  0
  9 17  1  0
 10 21  4  0
 11 25  4  0
 12 23  4  0
 13 20  4  0
 13 26  4  0
 14 19  4  0
 17 18  4  0
 17 24  4  0
 19 23  4  0
 20 24  4  0
 23 26  1  0
M  END
$$$$

 Created by Python create_sdf_string function

 26 30  0  0  0  0  0  0  0  0999 V2000
   10.0084   -1.8019   23.4945 C   0  0  0  0  0  0  0  0  0  0  0  0
   10.0005   -4.2520   16.5631 C   0  0  0  0  0  0  0  0  0  0  0  0
   10.2759   -4.0036   17.8845 C   0  0  0  0  0  0  0  0  0  0  0  0
    8.5652    1.5478   25.3778 N   0  0  0  0  0  0  0  0  0  0  0  0
    6.8048   -7.5457   17.8752 C   0  0  0  0  0  0  0  0  0  0  0  0
    6.1721   -8.2186   15.9886 N   0  0  0  0  0  0  0  0  0  0  0  0
   11.1764   -2.6600   19.5604 C   0  0  0  0  0  0  0  0  0  0  0  0
    9.5491   -0.6380   24.1912 C   0  0  0  0  0  0  0  0  0  0  0  0
    7.5337   -6.9256   16.9519 C   0  0  0  0  0  0  0  0  0  0  0  0
    9.6782    0.5671   23.5143 C   0  0  0  0  0  0  0  0  0  0  0  0
    8.4532    0.3482   26.0821 C   0  0  0  0  0  0  0  0  0  0  0  0
   10.4239   -1.7677   22.2230 N   0  0  0  0  0  0  0  0  0  0  0  0
    9.9468   -4.5953   20.1709 C   0  0  0  0  0  0  0  0  0  0  0  0
   10.0366   -3.0590   23.9864 N   0  0  0  0  0  0  0  0  0  0  0  0
    7.1191   -7.3636   15.7739 C   0  0  0  0  0  0  0  0  0  0  0  0
    5.9612   -8.3203   17.2732 N   0  0  0  0  0  0  0  0  0  0  0  0
    8.5296   -5.9814   17.1841 C   0  0  0  0  0  0  0  0  0  0  0  0
    9.1527   -5.2118   16.2116 C   0  0  0  0  0  0  0  0  0  0  0  0
   10.3364   -3.8368   22.9255 O   0  0  0  0  0  0  0  0  0  0  0  0
    9.6947   -4.8407   18.8534 C   0  0  0  0  0  0  0  0  0  0  0  0
    9.1596    1.7042   24.1381 C   0  0  0  0  0  0  0  0  0  0  0  0
   11.0456   -2.9774   18.2694 N   0  0  0  0  0  0  0  0  0  0  0  0
   10.4788   -3.0457   21.8593 C   0  0  0  0  0  0  0  0  0  0  0  0
    8.8693   -5.8099   18.4657 N   0  0  0  0  0  0  0  0  0  0  0  0
    8.9892   -0.7926   25.4573 C   0  0  0  0  0  0  0  0  0  0  0  0
   10.5677   -3.4462   20.5323 C   0  0  0  0  0  0  0  0  0  0  0  0
  1  8  1  0
  1 12  4  0
  1 14  4  0
  2  3  4  0
  2 18  4  0
  3 20  4  0
  3 22  4  0
  4 11  4  0
  4 21  4  0
  5  9  4  0
  5 16  4  0
  6 15  4  0
  6 16  4  0
  7 22  4  0
  7 26  4  0
  8 10  4  0
  8 25  4  0
  9 15  4  0
  9 17  1  0
 10 21  4  0
 11 25  4  0
 12 23  4  0
 13 20  4  0
 13 26  4  0
 14 19  4  0
 17 18  4  0
 17 24  4  0
 19 23  4  0
 20 24  4  0
 23 26  1  0
M  END
$$$$

 Created by Python create_sdf_string function

 26 30  0  0  0  0  0  0  0  0999 V2000
   10.0084   -1.8019   23.4945 C   0  0  0  0  0  0  0  0  0  0  0  0
   10.0005   -4.2520   16.5631 C   0  0  0  0  0  0  0  0  0  0  0  0
   10.2759   -4.0036   17.8845 C   0  0  0  0  0  0  0  0  0  0  0  0
    8.5652    1.5478   25.3778 N   0  0  0  0  0  0  0  0  0  0  0  0
    6.8048   -7.5457   17.8752 C   0  0  0  0  0  0  0  0  0  0  0  0
    6.1721   -8.2186   15.9886 N   0  0  0  0  0  0  0  0  0  0  0  0
   11.1764   -2.6600   19.5604 C   0  0  0  0  0  0  0  0  0  0  0  0
    9.5491   -0.6380   24.1912 C   0  0  0  0  0  0  0  0  0  0  0  0
    7.5337   -6.9256   16.9519 C   0  0  0  0  0  0  0  0  0  0  0  0
    9.6782    0.5671   23.5143 C   0  0  0  0  0  0  0  0  0  0  0  0
    8.4532    0.3482   26.0821 C   0  0  0  0  0  0  0  0  0  0  0  0
   10.4239   -1.7677   22.2230 N   0  0  0  0  0  0  0  0  0  0  0  0
    9.9468   -4.5953   20.1709 C   0  0  0  0  0  0  0  0  0  0  0  0
   10.0366   -3.0590   23.9864 N   0  0  0  0  0  0  0  0  0  0  0  0
    7.1191   -7.3636   15.7739 C   0  0  0  0  0  0  0  0  0  0  0  0
    5.9612   -8.3203   17.2732 N   0  0  0  0  0  0  0  0  0  0  0  0
    8.5296   -5.9814   17.1841 C   0  0  0  0  0  0  0  0  0  0  0  0
    9.1527   -5.2118   16.2116 C   0  0  0  0  0  0  0  0  0  0  0  0
   10.3364   -3.8368   22.9255 O   0  0  0  0  0  0  0  0  0  0  0  0
    9.6947   -4.8407   18.8534 C   0  0  0  0  0  0  0  0  0  0  0  0
    9.1596    1.7042   24.1381 C   0  0  0  0  0  0  0  0  0  0  0  0
   11.0456   -2.9774   18.2694 N   0  0  0  0  0  0  0  0  0  0  0  0
   10.4788   -3.0457   21.8593 C   0  0  0  0  0  0  0  0  0  0  0  0
    8.8693   -5.8099   18.4657 N   0  0  0  0  0  0  0  0  0  0  0  0
    8.9892   -0.7926   25.4573 C   0  0  0  0  0  0  0  0  0  0  0  0
   10.5677   -3.4462   20.5323 C   0  0  0  0  0  0  0  0  0  0  0  0
  1  8  1  0
  1 12  4  0
  1 14  4  0
  2  3  4  0
  2 18  4  0
  3 20  4  0
  3 22  4  0
  4 11  4  0
  4 21  4  0
  5  9  4  0
  5 16  4  0
  6 15  4  0
  6 16  4  0
  7 22  4  0
  7 26  4  0
  8 10  4  0
  8 25  4  0
  9 15  4  0
  9 17  1  0
 10 21  4  0
 11 25  4  0
 12 23  4  0
 13 20  4  0
 13 26  4  0
 14 19  4  0
 17 18  4  0
 17 24  4  0
 19 23  4  0
 20 24  4  0
 23 26  1  0
M  END
$$$$

 Created by Python create_sdf_string function

 26 30  0  0  0  0  0  0  0  0999 V2000
   10.0084   -1.8019   23.4945 C   0  0  0  0  0  0  0  0  0  0  0  0
   10.0005   -4.2520   16.5631 C   0  0  0  0  0  0  0  0  0  0  0  0
   10.2759   -4.0036   17.8845 C   0  0  0  0  0  0  0  0  0  0  0  0
    8.5652    1.5478   25.3778 N   0  0  0  0  0  0  0  0  0  0  0  0
    6.8048   -7.5457   17.8752 C   0  0  0  0  0  0  0  0  0  0  0  0
    6.1721   -8.2186   15.9886 N   0  0  0  0  0  0  0  0  0  0  0  0
   11.1764   -2.6600   19.5604 C   0  0  0  0  0  0  0  0  0  0  0  0
    9.5491   -0.6380   24.1912 C   0  0  0  0  0  0  0  0  0  0  0  0
    7.5337   -6.9256   16.9519 C   0  0  0  0  0  0  0  0  0  0  0  0
    9.6782    0.5671   23.5143 C   0  0  0  0  0  0  0  0  0  0  0  0
    8.4532    0.3482   26.0821 C   0  0  0  0  0  0  0  0  0  0  0  0
   10.4239   -1.7677   22.2230 N   0  0  0  0  0  0  0  0  0  0  0  0
    9.9468   -4.5953   20.1709 C   0  0  0  0  0  0  0  0  0  0  0  0
   10.0366   -3.0590   23.9864 N   0  0  0  0  0  0  0  0  0  0  0  0
    7.1191   -7.3636   15.7739 C   0  0  0  0  0  0  0  0  0  0  0  0
    5.9612   -8.3203   17.2732 N   0  0  0  0  0  0  0  0  0  0  0  0
    8.5296   -5.9814   17.1841 C   0  0  0  0  0  0  0  0  0  0  0  0
    9.1527   -5.2118   16.2116 C   0  0  0  0  0  0  0  0  0  0  0  0
   10.3364   -3.8368   22.9255 O   0  0  0  0  0  0  0  0  0  0  0  0
    9.6947   -4.8407   18.8534 C   0  0  0  0  0  0  0  0  0  0  0  0
    9.1596    1.7042   24.1381 C   0  0  0  0  0  0  0  0  0  0  0  0
   11.0456   -2.9774   18.2694 N   0  0  0  0  0  0  0  0  0  0  0  0
   10.4788   -3.0457   21.8593 C   0  0  0  0  0  0  0  0  0  0  0  0
    8.8693   -5.8099   18.4657 N   0  0  0  0  0  0  0  0  0  0  0  0
    8.9892   -0.7926   25.4573 C   0  0  0  0  0  0  0  0  0  0  0  0
   10.5677   -3.4462   20.5323 C   0  0  0  0  0  0  0  0  0  0  0  0
  1  8  1  0
  1 12  4  0
  1 14  4  0
  2  3  4  0
  2 18  4  0
  3 20  4  0
  3 22  4  0
  4 11  4  0
  4 21  4  0
  5  9  4  0
  5 16  4  0
  6 15  4  0
  6 16  4  0
  7 22  4  0
  7 26  4  0
  8 10  4  0
  8 25  4  0
  9 15  4  0
  9 17  1  0
 10 21  4  0
 11 25  4  0
 12 23  4  0
 13 20  4  0
 13 26  4  0
 14 19  4  0
 17 18  4  0
 17 24  4  0
 19 23  4  0
 20 24  4  0
 23 26  1  0
M  END
$$$$

 Created by Python create_sdf_string function

 26 30  0  0  0  0  0  0  0  0999 V2000
   10.0084   -1.8019   23.4945 C   0  0  0  0  0  0  0  0  0  0  0  0
   10.0005   -4.2520   16.5631 C   0  0  0  0  0  0  0  0  0  0  0  0
   10.2759   -4.0036   17.8845 C   0  0  0  0  0  0  0  0  0  0  0  0
    8.5652    1.5478   25.3778 N   0  0  0  0  0  0  0  0  0  0  0  0
    6.8048   -7.5457   17.8752 C   0  0  0  0  0  0  0  0  0  0  0  0
    6.1721   -8.2186   15.9886 N   0  0  0  0  0  0  0  0  0  0  0  0
   11.1764   -2.6600   19.5604 C   0  0  0  0  0  0  0  0  0  0  0  0
    9.5491   -0.6380   24.1912 C   0  0  0  0  0  0  0  0  0  0  0  0
    7.5337   -6.9256   16.9519 C   0  0  0  0  0  0  0  0  0  0  0  0
    9.6782    0.5671   23.5143 C   0  0  0  0  0  0  0  0  0  0  0  0
    8.4532    0.3482   26.0821 C   0  0  0  0  0  0  0  0  0  0  0  0
   10.4239   -1.7677   22.2230 N   0  0  0  0  0  0  0  0  0  0  0  0
    9.9468   -4.5953   20.1709 C   0  0  0  0  0  0  0  0  0  0  0  0
   10.0366   -3.0590   23.9864 N   0  0  0  0  0  0  0  0  0  0  0  0
    7.1191   -7.3636   15.7739 C   0  0  0  0  0  0  0  0  0  0  0  0
    5.9612   -8.3203   17.2732 N   0  0  0  0  0  0  0  0  0  0  0  0
    8.5296   -5.9814   17.1841 C   0  0  0  0  0  0  0  0  0  0  0  0
    9.1527   -5.2118   16.2116 C   0  0  0  0  0  0  0  0  0  0  0  0
   10.3364   -3.8368   22.9255 O   0  0  0  0  0  0  0  0  0  0  0  0
    9.6947   -4.8407   18.8534 C   0  0  0  0  0  0  0  0  0  0  0  0
    9.1596    1.7042   24.1381 C   0  0  0  0  0  0  0  0  0  0  0  0
   11.0456   -2.9774   18.2694 N   0  0  0  0  0  0  0  0  0  0  0  0
   10.4788   -3.0457   21.8593 C   0  0  0  0  0  0  0  0  0  0  0  0
    8.8693   -5.8099   18.4657 N   0  0  0  0  0  0  0  0  0  0  0  0
    8.9892   -0.7926   25.4573 C   0  0  0  0  0  0  0  0  0  0  0  0
   10.5677   -3.4462   20.5323 C   0  0  0  0  0  0  0  0  0  0  0  0
  1  8  1  0
  1 12  4  0
  1 14  4  0
  2  3  4  0
  2 18  4  0
  3 20  4  0
  3 22  4  0
  4 11  4  0
  4 21  4  0
  5  9  4  0
  5 16  4  0
  6 15  4  0
  6 16  4  0
  7 22  4  0
  7 26  4  0
  8 10  4  0
  8 25  4  0
  9 15  4  0
  9 17  1  0
 10 21  4  0
 11 25  4  0
 12 23  4  0
 13 20  4  0
 13 26  4  0
 14 19  4  0
 17 18  4  0
 17 24  4  0
 19 23  4  0
 20 24  4  0
 23 26  1  0
M  END
$$$$

 Created by Python create_sdf_string function

 26 30  0  0  0  0  0  0  0  0999 V2000
   10.0084   -1.8019   23.4945 C   0  0  0  0  0  0  0  0  0  0  0  0
   10.0005   -4.2520   16.5631 C   0  0  0  0  0  0  0  0  0  0  0  0
   10.2759   -4.0036   17.8845 C   0  0  0  0  0  0  0  0  0  0  0  0
    8.5652    1.5478   25.3778 N   0  0  0  0  0  0  0  0  0  0  0  0
    6.8048   -7.5457   17.8752 C   0  0  0  0  0  0  0  0  0  0  0  0
    6.1721   -8.2186   15.9886 N   0  0  0  0  0  0  0  0  0  0  0  0
   11.1764   -2.6600   19.5604 C   0  0  0  0  0  0  0  0  0  0  0  0
    9.5491   -0.6380   24.1912 C   0  0  0  0  0  0  0  0  0  0  0  0
    7.5337   -6.9256   16.9519 C   0  0  0  0  0  0  0  0  0  0  0  0
    9.6782    0.5671   23.5143 C   0  0  0  0  0  0  0  0  0  0  0  0
    8.4532    0.3482   26.0821 C   0  0  0  0  0  0  0  0  0  0  0  0
   10.4239   -1.7677   22.2230 N   0  0  0  0  0  0  0  0  0  0  0  0
    9.9468   -4.5953   20.1709 C   0  0  0  0  0  0  0  0  0  0  0  0
   10.0366   -3.0590   23.9864 N   0  0  0  0  0  0  0  0  0  0  0  0
    7.1191   -7.3636   15.7739 C   0  0  0  0  0  0  0  0  0  0  0  0
    5.9612   -8.3203   17.2732 N   0  0  0  0  0  0  0  0  0  0  0  0
    8.5296   -5.9814   17.1841 C   0  0  0  0  0  0  0  0  0  0  0  0
    9.1527   -5.2118   16.2116 C   0  0  0  0  0  0  0  0  0  0  0  0
   10.3364   -3.8368   22.9255 O   0  0  0  0  0  0  0  0  0  0  0  0
    9.6947   -4.8407   18.8534 C   0  0  0  0  0  0  0  0  0  0  0  0
    9.1596    1.7042   24.1381 C   0  0  0  0  0  0  0  0  0  0  0  0
   11.0456   -2.9774   18.2694 N   0  0  0  0  0  0  0  0  0  0  0  0
   10.4788   -3.0457   21.8593 C   0  0  0  0  0  0  0  0  0  0  0  0
    8.8693   -5.8099   18.4657 N   0  0  0  0  0  0  0  0  0  0  0  0
    8.9892   -0.7926   25.4573 C   0  0  0  0  0  0  0  0  0  0  0  0
   10.5677   -3.4462   20.5323 C   0  0  0  0  0  0  0  0  0  0  0  0
  1  8  1  0
  1 12  4  0
  1 14  4  0
  2  3  4  0
  2 18  4  0
  3 20  4  0
  3 22  4  0
  4 11  4  0
  4 21  4  0
  5  9  4  0
  5 16  4  0
  6 15  4  0
  6 16  4  0
  7 22  4  0
  7 26  4  0
  8 10  4  0
  8 25  4  0
  9 15  4  0
  9 17  1  0
 10 21  4  0
 11 25  4  0
 12 23  4  0
 13 20  4  0
 13 26  4  0
 14 19  4  0
 17 18  4  0
 17 24  4  0
 19 23  4  0
 20 24  4  0
 23 26  1  0
M  END
$$$$

 Created by Python create_sdf_string function

 26 30  0  0  0  0  0  0  0  0999 V2000
   10.0084   -1.8019   23.4945 C   0  0  0  0  0  0  0  0  0  0  0  0
   10.0005   -4.2520   16.5631 C   0  0  0  0  0  0  0  0  0  0  0  0
   10.2759   -4.0036   17.8845 C   0  0  0  0  0  0  0  0  0  0  0  0
    8.5652    1.5478   25.3778 N   0  0  0  0  0  0  0  0  0  0  0  0
    6.8048   -7.5457   17.8752 C   0  0  0  0  0  0  0  0  0  0  0  0
    6.1721   -8.2186   15.9886 N   0  0  0  0  0  0  0  0  0  0  0  0
   11.1764   -2.6600   19.5604 C   0  0  0  0  0  0  0  0  0  0  0  0
    9.5491   -0.6380   24.1912 C   0  0  0  0  0  0  0  0  0  0  0  0
    7.5337   -6.9256   16.9519 C   0  0  0  0  0  0  0  0  0  0  0  0
    9.6782    0.5671   23.5143 C   0  0  0  0  0  0  0  0  0  0  0  0
    8.4532    0.3482   26.0821 C   0  0  0  0  0  0  0  0  0  0  0  0
   10.4239   -1.7677   22.2230 N   0  0  0  0  0  0  0  0  0  0  0  0
    9.9468   -4.5953   20.1709 C   0  0  0  0  0  0  0  0  0  0  0  0
   10.0366   -3.0590   23.9864 N   0  0  0  0  0  0  0  0  0  0  0  0
    7.1191   -7.3636   15.7739 C   0  0  0  0  0  0  0  0  0  0  0  0
    5.9612   -8.3203   17.2732 N   0  0  0  0  0  0  0  0  0  0  0  0
    8.5296   -5.9814   17.1841 C   0  0  0  0  0  0  0  0  0  0  0  0
    9.1527   -5.2118   16.2116 C   0  0  0  0  0  0  0  0  0  0  0  0
   10.3364   -3.8368   22.9255 O   0  0  0  0  0  0  0  0  0  0  0  0
    9.6947   -4.8407   18.8534 C   0  0  0  0  0  0  0  0  0  0  0  0
    9.1596    1.7042   24.1381 C   0  0  0  0  0  0  0  0  0  0  0  0
   11.0456   -2.9774   18.2694 N   0  0  0  0  0  0  0  0  0  0  0  0
   10.4788   -3.0457   21.8593 C   0  0  0  0  0  0  0  0  0  0  0  0
    8.8693   -5.8099   18.4657 N   0  0  0  0  0  0  0  0  0  0  0  0
    8.9892   -0.7926   25.4573 C   0  0  0  0  0  0  0  0  0  0  0  0
   10.5677   -3.4462   20.5323 C   0  0  0  0  0  0  0  0  0  0  0  0
  1  8  1  0
  1 12  4  0
  1 14  4  0
  2  3  4  0
  2 18  4  0
  3 20  4  0
  3 22  4  0
  4 11  4  0
  4 21  4  0
  5  9  4  0
  5 16  4  0
  6 15  4  0
  6 16  4  0
  7 22  4  0
  7 26  4  0
  8 10  4  0
  8 25  4  0
  9 15  4  0
  9 17  1  0
 10 21  4  0
 11 25  4  0
 12 23  4  0
 13 20  4  0
 13 26  4  0
 14 19  4  0
 17 18  4  0
 17 24  4  0
 19 23  4  0
 20 24  4  0
 23 26  1  0
M  END
$$$$

 Created by Python create_sdf_string function

 26 30  0  0  0  0  0  0  0  0999 V2000
   10.0084   -1.8019   23.4945 C   0  0  0  0  0  0  0  0  0  0  0  0
   10.0005   -4.2520   16.5631 C   0  0  0  0  0  0  0  0  0  0  0  0
   10.2759   -4.0036   17.8845 C   0  0  0  0  0  0  0  0  0  0  0  0
    8.5652    1.5478   25.3778 N   0  0  0  0  0  0  0  0  0  0  0  0
    6.8048   -7.5457   17.8752 C   0  0  0  0  0  0  0  0  0  0  0  0
    6.1721   -8.2186   15.9886 N   0  0  0  0  0  0  0  0  0  0  0  0
   11.1764   -2.6600   19.5604 C   0  0  0  0  0  0  0  0  0  0  0  0
    9.5491   -0.6380   24.1912 C   0  0  0  0  0  0  0  0  0  0  0  0
    7.5337   -6.9256   16.9519 C   0  0  0  0  0  0  0  0  0  0  0  0
    9.6782    0.5671   23.5143 C   0  0  0  0  0  0  0  0  0  0  0  0
    8.4532    0.3482   26.0821 C   0  0  0  0  0  0  0  0  0  0  0  0
   10.4239   -1.7677   22.2230 N   0  0  0  0  0  0  0  0  0  0  0  0
    9.9468   -4.5953   20.1709 C   0  0  0  0  0  0  0  0  0  0  0  0
   10.0366   -3.0590   23.9864 N   0  0  0  0  0  0  0  0  0  0  0  0
    7.1191   -7.3636   15.7739 C   0  0  0  0  0  0  0  0  0  0  0  0
    5.9612   -8.3203   17.2732 N   0  0  0  0  0  0  0  0  0  0  0  0
    8.5296   -5.9814   17.1841 C   0  0  0  0  0  0  0  0  0  0  0  0
    9.1527   -5.2118   16.2116 C   0  0  0  0  0  0  0  0  0  0  0  0
   10.3364   -3.8368   22.9255 O   0  0  0  0  0  0  0  0  0  0  0  0
    9.6947   -4.8407   18.8534 C   0  0  0  0  0  0  0  0  0  0  0  0
    9.1596    1.7042   24.1381 C   0  0  0  0  0  0  0  0  0  0  0  0
   11.0456   -2.9774   18.2694 N   0  0  0  0  0  0  0  0  0  0  0  0
   10.4788   -3.0457   21.8593 C   0  0  0  0  0  0  0  0  0  0  0  0
    8.8693   -5.8099   18.4657 N   0  0  0  0  0  0  0  0  0  0  0  0
    8.9892   -0.7926   25.4573 C   0  0  0  0  0  0  0  0  0  0  0  0
   10.5677   -3.4462   20.5323 C   0  0  0  0  0  0  0  0  0  0  0  0
  1  8  1  0
  1 12  4  0
  1 14  4  0
  2  3  4  0
  2 18  4  0
  3 20  4  0
  3 22  4  0
  4 11  4  0
  4 21  4  0
  5  9  4  0
  5 16  4  0
  6 15  4  0
  6 16  4  0
  7 22  4  0
  7 26  4  0
  8 10  4  0
  8 25  4  0
  9 15  4  0
  9 17  1  0
 10 21  4  0
 11 25  4  0
 12 23  4  0
 13 20  4  0
 13 26  4  0
 14 19  4  0
 17 18  4  0
 17 24  4  0
 19 23  4  0
 20 24  4  0
 23 26  1  0
M  END
$$$$

 Created by Python create_sdf_string function

 26 30  0  0  0  0  0  0  0  0999 V2000
   10.0084   -1.8019   23.4945 C   0  0  0  0  0  0  0  0  0  0  0  0
   10.0005   -4.2520   16.5631 C   0  0  0  0  0  0  0  0  0  0  0  0
   10.2759   -4.0036   17.8845 C   0  0  0  0  0  0  0  0  0  0  0  0
    8.5652    1.5478   25.3778 N   0  0  0  0  0  0  0  0  0  0  0  0
    6.8048   -7.5457   17.8752 C   0  0  0  0  0  0  0  0  0  0  0  0
    6.1721   -8.2186   15.9886 N   0  0  0  0  0  0  0  0  0  0  0  0
   11.1764   -2.6600   19.5604 C   0  0  0  0  0  0  0  0  0  0  0  0
    9.5491   -0.6380   24.1912 C   0  0  0  0  0  0  0  0  0  0  0  0
    7.5337   -6.9256   16.9519 C   0  0  0  0  0  0  0  0  0  0  0  0
    9.6782    0.5671   23.5143 C   0  0  0  0  0  0  0  0  0  0  0  0
    8.4532    0.3482   26.0821 C   0  0  0  0  0  0  0  0  0  0  0  0
   10.4239   -1.7677   22.2230 N   0  0  0  0  0  0  0  0  0  0  0  0
    9.9468   -4.5953   20.1709 C   0  0  0  0  0  0  0  0  0  0  0  0
   10.0366   -3.0590   23.9864 N   0  0  0  0  0  0  0  0  0  0  0  0
    7.1191   -7.3636   15.7739 C   0  0  0  0  0  0  0  0  0  0  0  0
    5.9612   -8.3203   17.2732 N   0  0  0  0  0  0  0  0  0  0  0  0
    8.5296   -5.9814   17.1841 C   0  0  0  0  0  0  0  0  0  0  0  0
    9.1527   -5.2118   16.2116 C   0  0  0  0  0  0  0  0  0  0  0  0
   10.3364   -3.8368   22.9255 O   0  0  0  0  0  0  0  0  0  0  0  0
    9.6947   -4.8407   18.8534 C   0  0  0  0  0  0  0  0  0  0  0  0
    9.1596    1.7042   24.1381 C   0  0  0  0  0  0  0  0  0  0  0  0
   11.0456   -2.9774   18.2694 N   0  0  0  0  0  0  0  0  0  0  0  0
   10.4788   -3.0457   21.8593 C   0  0  0  0  0  0  0  0  0  0  0  0
    8.8693   -5.8099   18.4657 N   0  0  0  0  0  0  0  0  0  0  0  0
    8.9892   -0.7926   25.4573 C   0  0  0  0  0  0  0  0  0  0  0  0
   10.5677   -3.4462   20.5323 C   0  0  0  0  0  0  0  0  0  0  0  0
  1  8  1  0
  1 12  4  0
  1 14  4  0
  2  3  4  0
  2 18  4  0
  3 20  4  0
  3 22  4  0
  4 11  4  0
  4 21  4  0
  5  9  4  0
  5 16  4  0
  6 15  4  0
  6 16  4  0
  7 22  4  0
  7 26  4  0
  8 10  4  0
  8 25  4  0
  9 15  4  0
  9 17  1  0
 10 21  4  0
 11 25  4  0
 12 23  4  0
 13 20  4  0
 13 26  4  0
 14 19  4  0
 17 18  4  0
 17 24  4  0
 19 23  4  0
 20 24  4  0
 23 26  1  0
M  END
$$$$

 Created by Python create_sdf_string function

 26 30  0  0  0  0  0  0  0  0999 V2000
   10.0084   -1.8019   23.4945 C   0  0  0  0  0  0  0  0  0  0  0  0
   10.0005   -4.2520   16.5631 C   0  0  0  0  0  0  0  0  0  0  0  0
   10.2759   -4.0036   17.8845 C   0  0  0  0  0  0  0  0  0  0  0  0
    8.5652    1.5478   25.3778 N   0  0  0  0  0  0  0  0  0  0  0  0
    6.8048   -7.5457   17.8752 C   0  0  0  0  0  0  0  0  0  0  0  0
    6.1721   -8.2186   15.9886 N   0  0  0  0  0  0  0  0  0  0  0  0
   11.1764   -2.6600   19.5604 C   0  0  0  0  0  0  0  0  0  0  0  0
    9.5491   -0.6380   24.1912 C   0  0  0  0  0  0  0  0  0  0  0  0
    7.5337   -6.9256   16.9519 C   0  0  0  0  0  0  0  0  0  0  0  0
    9.6782    0.5671   23.5143 C   0  0  0  0  0  0  0  0  0  0  0  0
    8.4532    0.3482   26.0821 C   0  0  0  0  0  0  0  0  0  0  0  0
   10.4239   -1.7677   22.2230 N   0  0  0  0  0  0  0  0  0  0  0  0
    9.9468   -4.5953   20.1709 C   0  0  0  0  0  0  0  0  0  0  0  0
   10.0366   -3.0590   23.9864 N   0  0  0  0  0  0  0  0  0  0  0  0
    7.1191   -7.3636   15.7739 C   0  0  0  0  0  0  0  0  0  0  0  0
    5.9612   -8.3203   17.2732 N   0  0  0  0  0  0  0  0  0  0  0  0
    8.5296   -5.9814   17.1841 C   0  0  0  0  0  0  0  0  0  0  0  0
    9.1527   -5.2118   16.2116 C   0  0  0  0  0  0  0  0  0  0  0  0
   10.3364   -3.8368   22.9255 O   0  0  0  0  0  0  0  0  0  0  0  0
    9.6947   -4.8407   18.8534 C   0  0  0  0  0  0  0  0  0  0  0  0
    9.1596    1.7042   24.1381 C   0  0  0  0  0  0  0  0  0  0  0  0
   11.0456   -2.9774   18.2694 N   0  0  0  0  0  0  0  0  0  0  0  0
   10.4788   -3.0457   21.8593 C   0  0  0  0  0  0  0  0  0  0  0  0
    8.8693   -5.8099   18.4657 N   0  0  0  0  0  0  0  0  0  0  0  0
    8.9892   -0.7926   25.4573 C   0  0  0  0  0  0  0  0  0  0  0  0
   10.5677   -3.4462   20.5323 C   0  0  0  0  0  0  0  0  0  0  0  0
  1  8  1  0
  1 12  4  0
  1 14  4  0
  2  3  4  0
  2 18  4  0
  3 20  4  0
  3 22  4  0
  4 11  4  0
  4 21  4  0
  5  9  4  0
  5 16  4  0
  6 15  4  0
  6 16  4  0
  7 22  4  0
  7 26  4  0
  8 10  4  0
  8 25  4  0
  9 15  4  0
  9 17  1  0
 10 21  4  0
 11 25  4  0
 12 23  4  0
 13 20  4  0
 13 26  4  0
 14 19  4  0
 17 18  4  0
 17 24  4  0
 19 23  4  0
 20 24  4  0
 23 26  1  0
M  END
$$$$

 Created by Python create_sdf_string function

 26 30  0  0  0  0  0  0  0  0999 V2000
   10.0084   -1.8019   23.4945 C   0  0  0  0  0  0  0  0  0  0  0  0
   10.0005   -4.2520   16.5631 C   0  0  0  0  0  0  0  0  0  0  0  0
   10.2759   -4.0036   17.8845 C   0  0  0  0  0  0  0  0  0  0  0  0
    8.5652    1.5478   25.3778 N   0  0  0  0  0  0  0  0  0  0  0  0
    6.8048   -7.5457   17.8752 C   0  0  0  0  0  0  0  0  0  0  0  0
    6.1721   -8.2186   15.9886 N   0  0  0  0  0  0  0  0  0  0  0  0
   11.1764   -2.6600   19.5604 C   0  0  0  0  0  0  0  0  0  0  0  0
    9.5491   -0.6380   24.1912 C   0  0  0  0  0  0  0  0  0  0  0  0
    7.5337   -6.9256   16.9519 C   0  0  0  0  0  0  0  0  0  0  0  0
    9.6782    0.5671   23.5143 C   0  0  0  0  0  0  0  0  0  0  0  0
    8.4532    0.3482   26.0821 C   0  0  0  0  0  0  0  0  0  0  0  0
   10.4239   -1.7677   22.2230 N   0  0  0  0  0  0  0  0  0  0  0  0
    9.9468   -4.5953   20.1709 C   0  0  0  0  0  0  0  0  0  0  0  0
   10.0366   -3.0590   23.9864 N   0  0  0  0  0  0  0  0  0  0  0  0
    7.1191   -7.3636   15.7739 C   0  0  0  0  0  0  0  0  0  0  0  0
    5.9612   -8.3203   17.2732 N   0  0  0  0  0  0  0  0  0  0  0  0
    8.5296   -5.9814   17.1841 C   0  0  0  0  0  0  0  0  0  0  0  0
    9.1527   -5.2118   16.2116 C   0  0  0  0  0  0  0  0  0  0  0  0
   10.3364   -3.8368   22.9255 O   0  0  0  0  0  0  0  0  0  0  0  0
    9.6947   -4.8407   18.8534 C   0  0  0  0  0  0  0  0  0  0  0  0
    9.1596    1.7042   24.1381 C   0  0  0  0  0  0  0  0  0  0  0  0
   11.0456   -2.9774   18.2694 N   0  0  0  0  0  0  0  0  0  0  0  0
   10.4788   -3.0457   21.8593 C   0  0  0  0  0  0  0  0  0  0  0  0
    8.8693   -5.8099   18.4657 N   0  0  0  0  0  0  0  0  0  0  0  0
    8.9892   -0.7926   25.4573 C   0  0  0  0  0  0  0  0  0  0  0  0
   10.5677   -3.4462   20.5323 C   0  0  0  0  0  0  0  0  0  0  0  0
  1  8  1  0
  1 12  4  0
  1 14  4  0
  2  3  4  0
  2 18  4  0
  3 20  4  0
  3 22  4  0
  4 11  4  0
  4 21  4  0
  5  9  4  0
  5 16  4  0
  6 15  4  0
  6 16  4  0
  7 22  4  0
  7 26  4  0
  8 10  4  0
  8 25  4  0
  9 15  4  0
  9 17  1  0
 10 21  4  0
 11 25  4  0
 12 23  4  0
 13 20  4  0
 13 26  4  0
 14 19  4  0
 17 18  4  0
 17 24  4  0
 19 23  4  0
 20 24  4  0
 23 26  1  0
M  END
$$$$

 Created by Python create_sdf_string function

 26 30  0  0  0  0  0  0  0  0999 V2000
   10.0084   -1.8019   23.4945 C   0  0  0  0  0  0  0  0  0  0  0  0
   10.0005   -4.2520   16.5631 C   0  0  0  0  0  0  0  0  0  0  0  0
   10.2759   -4.0036   17.8845 C   0  0  0  0  0  0  0  0  0  0  0  0
    8.5652    1.5478   25.3778 N   0  0  0  0  0  0  0  0  0  0  0  0
    6.8048   -7.5457   17.8752 C   0  0  0  0  0  0  0  0  0  0  0  0
    6.1721   -8.2186   15.9886 N   0  0  0  0  0  0  0  0  0  0  0  0
   11.1764   -2.6600   19.5604 C   0  0  0  0  0  0  0  0  0  0  0  0
    9.5491   -0.6380   24.1912 C   0  0  0  0  0  0  0  0  0  0  0  0
    7.5337   -6.9256   16.9519 C   0  0  0  0  0  0  0  0  0  0  0  0
    9.6782    0.5671   23.5143 C   0  0  0  0  0  0  0  0  0  0  0  0
    8.4532    0.3482   26.0821 C   0  0  0  0  0  0  0  0  0  0  0  0
   10.4239   -1.7677   22.2230 N   0  0  0  0  0  0  0  0  0  0  0  0
    9.9468   -4.5953   20.1709 C   0  0  0  0  0  0  0  0  0  0  0  0
   10.0366   -3.0590   23.9864 N   0  0  0  0  0  0  0  0  0  0  0  0
    7.1191   -7.3636   15.7739 C   0  0  0  0  0  0  0  0  0  0  0  0
    5.9612   -8.3203   17.2732 N   0  0  0  0  0  0  0  0  0  0  0  0
    8.5296   -5.9814   17.1841 C   0  0  0  0  0  0  0  0  0  0  0  0
    9.1527   -5.2118   16.2116 C   0  0  0  0  0  0  0  0  0  0  0  0
   10.3364   -3.8368   22.9255 O   0  0  0  0  0  0  0  0  0  0  0  0
    9.6947   -4.8407   18.8534 C   0  0  0  0  0  0  0  0  0  0  0  0
    9.1596    1.7042   24.1381 C   0  0  0  0  0  0  0  0  0  0  0  0
   11.0456   -2.9774   18.2694 N   0  0  0  0  0  0  0  0  0  0  0  0
   10.4788   -3.0457   21.8593 C   0  0  0  0  0  0  0  0  0  0  0  0
    8.8693   -5.8099   18.4657 N   0  0  0  0  0  0  0  0  0  0  0  0
    8.9892   -0.7926   25.4573 C   0  0  0  0  0  0  0  0  0  0  0  0
   10.5677   -3.4462   20.5323 C   0  0  0  0  0  0  0  0  0  0  0  0
  1  8  1  0
  1 12  4  0
  1 14  4  0
  2  3  4  0
  2 18  4  0
  3 20  4  0
  3 22  4  0
  4 11  4  0
  4 21  4  0
  5  9  4  0
  5 16  4  0
  6 15  4  0
  6 16  4  0
  7 22  4  0
  7 26  4  0
  8 10  4  0
  8 25  4  0
  9 15  4  0
  9 17  1  0
 10 21  4  0
 11 25  4  0
 12 23  4  0
 13 20  4  0
 13 26  4  0
 14 19  4  0
 17 18  4  0
 17 24  4  0
 19 23  4  0
 20 24  4  0
 23 26  1  0
M  END
$$$$

 Created by Python create_sdf_string function

 26 30  0  0  0  0  0  0  0  0999 V2000
   10.0084   -1.8019   23.4945 C   0  0  0  0  0  0  0  0  0  0  0  0
   10.0005   -4.2520   16.5631 C   0  0  0  0  0  0  0  0  0  0  0  0
   10.2759   -4.0036   17.8845 C   0  0  0  0  0  0  0  0  0  0  0  0
    8.5652    1.5478   25.3778 N   0  0  0  0  0  0  0  0  0  0  0  0
    6.8048   -7.5457   17.8752 C   0  0  0  0  0  0  0  0  0  0  0  0
    6.1721   -8.2186   15.9886 N   0  0  0  0  0  0  0  0  0  0  0  0
   11.1764   -2.6600   19.5604 C   0  0  0  0  0  0  0  0  0  0  0  0
    9.5491   -0.6380   24.1912 C   0  0  0  0  0  0  0  0  0  0  0  0
    7.5337   -6.9256   16.9519 C   0  0  0  0  0  0  0  0  0  0  0  0
    9.6782    0.5671   23.5143 C   0  0  0  0  0  0  0  0  0  0  0  0
    8.4532    0.3482   26.0821 C   0  0  0  0  0  0  0  0  0  0  0  0
   10.4239   -1.7677   22.2230 N   0  0  0  0  0  0  0  0  0  0  0  0
    9.9468   -4.5953   20.1709 C   0  0  0  0  0  0  0  0  0  0  0  0
   10.0366   -3.0590   23.9864 N   0  0  0  0  0  0  0  0  0  0  0  0
    7.1191   -7.3636   15.7739 C   0  0  0  0  0  0  0  0  0  0  0  0
    5.9612   -8.3203   17.2732 N   0  0  0  0  0  0  0  0  0  0  0  0
    8.5296   -5.9814   17.1841 C   0  0  0  0  0  0  0  0  0  0  0  0
    9.1527   -5.2118   16.2116 C   0  0  0  0  0  0  0  0  0  0  0  0
   10.3364   -3.8368   22.9255 O   0  0  0  0  0  0  0  0  0  0  0  0
    9.6947   -4.8407   18.8534 C   0  0  0  0  0  0  0  0  0  0  0  0
    9.1596    1.7042   24.1381 C   0  0  0  0  0  0  0  0  0  0  0  0
   11.0456   -2.9774   18.2694 N   0  0  0  0  0  0  0  0  0  0  0  0
   10.4788   -3.0457   21.8593 C   0  0  0  0  0  0  0  0  0  0  0  0
    8.8693   -5.8099   18.4657 N   0  0  0  0  0  0  0  0  0  0  0  0
    8.9892   -0.7926   25.4573 C   0  0  0  0  0  0  0  0  0  0  0  0
   10.5677   -3.4462   20.5323 C   0  0  0  0  0  0  0  0  0  0  0  0
  1  8  1  0
  1 12  4  0
  1 14  4  0
  2  3  4  0
  2 18  4  0
  3 20  4  0
  3 22  4  0
  4 11  4  0
  4 21  4  0
  5  9  4  0
  5 16  4  0
  6 15  4  0
  6 16  4  0
  7 22  4  0
  7 26  4  0
  8 10  4  0
  8 25  4  0
  9 15  4  0
  9 17  1  0
 10 21  4  0
 11 25  4  0
 12 23  4  0
 13 20  4  0
 13 26  4  0
 14 19  4  0
 17 18  4  0
 17 24  4  0
 19 23  4  0
 20 24  4  0
 23 26  1  0
M  END
$$$$

 Created by Python create_sdf_string function

 26 30  0  0  0  0  0  0  0  0999 V2000
   10.0084   -1.8019   23.4945 C   0  0  0  0  0  0  0  0  0  0  0  0
   10.0005   -4.2520   16.5631 C   0  0  0  0  0  0  0  0  0  0  0  0
   10.2759   -4.0036   17.8845 C   0  0  0  0  0  0  0  0  0  0  0  0
    8.5652    1.5478   25.3778 N   0  0  0  0  0  0  0  0  0  0  0  0
    6.8048   -7.5457   17.8752 C   0  0  0  0  0  0  0  0  0  0  0  0
    6.1721   -8.2186   15.9886 N   0  0  0  0  0  0  0  0  0  0  0  0
   11.1764   -2.6600   19.5604 C   0  0  0  0  0  0  0  0  0  0  0  0
    9.5491   -0.6380   24.1912 C   0  0  0  0  0  0  0  0  0  0  0  0
    7.5337   -6.9256   16.9519 C   0  0  0  0  0  0  0  0  0  0  0  0
    9.6782    0.5671   23.5143 C   0  0  0  0  0  0  0  0  0  0  0  0
    8.4532    0.3482   26.0821 C   0  0  0  0  0  0  0  0  0  0  0  0
   10.4239   -1.7677   22.2230 N   0  0  0  0  0  0  0  0  0  0  0  0
    9.9468   -4.5953   20.1709 C   0  0  0  0  0  0  0  0  0  0  0  0
   10.0366   -3.0590   23.9864 N   0  0  0  0  0  0  0  0  0  0  0  0
    7.1191   -7.3636   15.7739 C   0  0  0  0  0  0  0  0  0  0  0  0
    5.9612   -8.3203   17.2732 N   0  0  0  0  0  0  0  0  0  0  0  0
    8.5296   -5.9814   17.1841 C   0  0  0  0  0  0  0  0  0  0  0  0
    9.1527   -5.2118   16.2116 C   0  0  0  0  0  0  0  0  0  0  0  0
   10.3364   -3.8368   22.9255 O   0  0  0  0  0  0  0  0  0  0  0  0
    9.6947   -4.8407   18.8534 C   0  0  0  0  0  0  0  0  0  0  0  0
    9.1596    1.7042   24.1381 C   0  0  0  0  0  0  0  0  0  0  0  0
   11.0456   -2.9774   18.2694 N   0  0  0  0  0  0  0  0  0  0  0  0
   10.4788   -3.0457   21.8593 C   0  0  0  0  0  0  0  0  0  0  0  0
    8.8693   -5.8099   18.4657 N   0  0  0  0  0  0  0  0  0  0  0  0
    8.9892   -0.7926   25.4573 C   0  0  0  0  0  0  0  0  0  0  0  0
   10.5677   -3.4462   20.5323 C   0  0  0  0  0  0  0  0  0  0  0  0
  1  8  1  0
  1 12  4  0
  1 14  4  0
  2  3  4  0
  2 18  4  0
  3 20  4  0
  3 22  4  0
  4 11  4  0
  4 21  4  0
  5  9  4  0
  5 16  4  0
  6 15  4  0
  6 16  4  0
  7 22  4  0
  7 26  4  0
  8 10  4  0
  8 25  4  0
  9 15  4  0
  9 17  1  0
 10 21  4  0
 11 25  4  0
 12 23  4  0
 13 20  4  0
 13 26  4  0
 14 19  4  0
 17 18  4  0
 17 24  4  0
 19 23  4  0
 20 24  4  0
 23 26  1  0
M  END
$$$$

 Created by Python create_sdf_string function

 26 30  0  0  0  0  0  0  0  0999 V2000
   10.0084   -1.8019   23.4945 C   0  0  0  0  0  0  0  0  0  0  0  0
   10.0005   -4.2520   16.5631 C   0  0  0  0  0  0  0  0  0  0  0  0
   10.2759   -4.0036   17.8845 C   0  0  0  0  0  0  0  0  0  0  0  0
    8.5652    1.5478   25.3778 N   0  0  0  0  0  0  0  0  0  0  0  0
    6.8048   -7.5457   17.8752 C   0  0  0  0  0  0  0  0  0  0  0  0
    6.1721   -8.2186   15.9886 N   0  0  0  0  0  0  0  0  0  0  0  0
   11.1764   -2.6600   19.5604 C   0  0  0  0  0  0  0  0  0  0  0  0
    9.5491   -0.6380   24.1912 C   0  0  0  0  0  0  0  0  0  0  0  0
    7.5337   -6.9256   16.9519 C   0  0  0  0  0  0  0  0  0  0  0  0
    9.6782    0.5671   23.5143 C   0  0  0  0  0  0  0  0  0  0  0  0
    8.4532    0.3482   26.0821 C   0  0  0  0  0  0  0  0  0  0  0  0
   10.4239   -1.7677   22.2230 N   0  0  0  0  0  0  0  0  0  0  0  0
    9.9468   -4.5953   20.1709 C   0  0  0  0  0  0  0  0  0  0  0  0
   10.0366   -3.0590   23.9864 N   0  0  0  0  0  0  0  0  0  0  0  0
    7.1191   -7.3636   15.7739 C   0  0  0  0  0  0  0  0  0  0  0  0
    5.9612   -8.3203   17.2732 N   0  0  0  0  0  0  0  0  0  0  0  0
    8.5296   -5.9814   17.1841 C   0  0  0  0  0  0  0  0  0  0  0  0
    9.1527   -5.2118   16.2116 C   0  0  0  0  0  0  0  0  0  0  0  0
   10.3364   -3.8368   22.9255 O   0  0  0  0  0  0  0  0  0  0  0  0
    9.6947   -4.8407   18.8534 C   0  0  0  0  0  0  0  0  0  0  0  0
    9.1596    1.7042   24.1381 C   0  0  0  0  0  0  0  0  0  0  0  0
   11.0456   -2.9774   18.2694 N   0  0  0  0  0  0  0  0  0  0  0  0
   10.4788   -3.0457   21.8593 C   0  0  0  0  0  0  0  0  0  0  0  0
    8.8693   -5.8099   18.4657 N   0  0  0  0  0  0  0  0  0  0  0  0
    8.9892   -0.7926   25.4573 C   0  0  0  0  0  0  0  0  0  0  0  0
   10.5677   -3.4462   20.5323 C   0  0  0  0  0  0  0  0  0  0  0  0
  1  8  1  0
  1 12  4  0
  1 14  4  0
  2  3  4  0
  2 18  4  0
  3 20  4  0
  3 22  4  0
  4 11  4  0
  4 21  4  0
  5  9  4  0
  5 16  4  0
  6 15  4  0
  6 16  4  0
  7 22  4  0
  7 26  4  0
  8 10  4  0
  8 25  4  0
  9 15  4  0
  9 17  1  0
 10 21  4  0
 11 25  4  0
 12 23  4  0
 13 20  4  0
 13 26  4  0
 14 19  4  0
 17 18  4  0
 17 24  4  0
 19 23  4  0
 20 24  4  0
 23 26  1  0
M  END
$$$$

 Created by Python create_sdf_string function

 26 30  0  0  0  0  0  0  0  0999 V2000
   10.0084   -1.8019   23.4945 C   0  0  0  0  0  0  0  0  0  0  0  0
   10.0005   -4.2520   16.5631 C   0  0  0  0  0  0  0  0  0  0  0  0
   10.2759   -4.0036   17.8845 C   0  0  0  0  0  0  0  0  0  0  0  0
    8.5652    1.5478   25.3778 N   0  0  0  0  0  0  0  0  0  0  0  0
    6.8048   -7.5457   17.8752 C   0  0  0  0  0  0  0  0  0  0  0  0
    6.1721   -8.2186   15.9886 N   0  0  0  0  0  0  0  0  0  0  0  0
   11.1764   -2.6600   19.5604 C   0  0  0  0  0  0  0  0  0  0  0  0
    9.5491   -0.6380   24.1912 C   0  0  0  0  0  0  0  0  0  0  0  0
    7.5337   -6.9256   16.9519 C   0  0  0  0  0  0  0  0  0  0  0  0
    9.6782    0.5671   23.5143 C   0  0  0  0  0  0  0  0  0  0  0  0
    8.4532    0.3482   26.0821 C   0  0  0  0  0  0  0  0  0  0  0  0
   10.4239   -1.7677   22.2230 N   0  0  0  0  0  0  0  0  0  0  0  0
    9.9468   -4.5953   20.1709 C   0  0  0  0  0  0  0  0  0  0  0  0
   10.0366   -3.0590   23.9864 N   0  0  0  0  0  0  0  0  0  0  0  0
    7.1191   -7.3636   15.7739 C   0  0  0  0  0  0  0  0  0  0  0  0
    5.9612   -8.3203   17.2732 N   0  0  0  0  0  0  0  0  0  0  0  0
    8.5296   -5.9814   17.1841 C   0  0  0  0  0  0  0  0  0  0  0  0
    9.1527   -5.2118   16.2116 C   0  0  0  0  0  0  0  0  0  0  0  0
   10.3364   -3.8368   22.9255 O   0  0  0  0  0  0  0  0  0  0  0  0
    9.6947   -4.8407   18.8534 C   0  0  0  0  0  0  0  0  0  0  0  0
    9.1596    1.7042   24.1381 C   0  0  0  0  0  0  0  0  0  0  0  0
   11.0456   -2.9774   18.2694 N   0  0  0  0  0  0  0  0  0  0  0  0
   10.4788   -3.0457   21.8593 C   0  0  0  0  0  0  0  0  0  0  0  0
    8.8693   -5.8099   18.4657 N   0  0  0  0  0  0  0  0  0  0  0  0
    8.9892   -0.7926   25.4573 C   0  0  0  0  0  0  0  0  0  0  0  0
   10.5677   -3.4462   20.5323 C   0  0  0  0  0  0  0  0  0  0  0  0
  1  8  1  0
  1 12  4  0
  1 14  4  0
  2  3  4  0
  2 18  4  0
  3 20  4  0
  3 22  4  0
  4 11  4  0
  4 21  4  0
  5  9  4  0
  5 16  4  0
  6 15  4  0
  6 16  4  0
  7 22  4  0
  7 26  4  0
  8 10  4  0
  8 25  4  0
  9 15  4  0
  9 17  1  0
 10 21  4  0
 11 25  4  0
 12 23  4  0
 13 20  4  0
 13 26  4  0
 14 19  4  0
 17 18  4  0
 17 24  4  0
 19 23  4  0
 20 24  4  0
 23 26  1  0
M  END
$$$$

 Created by Python create_sdf_string function

 26 30  0  0  0  0  0  0  0  0999 V2000
   10.0084   -1.8019   23.4945 C   0  0  0  0  0  0  0  0  0  0  0  0
   10.0005   -4.2520   16.5631 C   0  0  0  0  0  0  0  0  0  0  0  0
   10.2759   -4.0036   17.8845 C   0  0  0  0  0  0  0  0  0  0  0  0
    8.5652    1.5478   25.3778 N   0  0  0  0  0  0  0  0  0  0  0  0
    6.8048   -7.5457   17.8752 C   0  0  0  0  0  0  0  0  0  0  0  0
    6.1721   -8.2186   15.9886 N   0  0  0  0  0  0  0  0  0  0  0  0
   11.1764   -2.6600   19.5604 C   0  0  0  0  0  0  0  0  0  0  0  0
    9.5491   -0.6380   24.1912 C   0  0  0  0  0  0  0  0  0  0  0  0
    7.5337   -6.9256   16.9519 C   0  0  0  0  0  0  0  0  0  0  0  0
    9.6782    0.5671   23.5143 C   0  0  0  0  0  0  0  0  0  0  0  0
    8.4532    0.3482   26.0821 C   0  0  0  0  0  0  0  0  0  0  0  0
   10.4239   -1.7677   22.2230 N   0  0  0  0  0  0  0  0  0  0  0  0
    9.9468   -4.5953   20.1709 C   0  0  0  0  0  0  0  0  0  0  0  0
   10.0366   -3.0590   23.9864 N   0  0  0  0  0  0  0  0  0  0  0  0
    7.1191   -7.3636   15.7739 C   0  0  0  0  0  0  0  0  0  0  0  0
    5.9612   -8.3203   17.2732 N   0  0  0  0  0  0  0  0  0  0  0  0
    8.5296   -5.9814   17.1841 C   0  0  0  0  0  0  0  0  0  0  0  0
    9.1527   -5.2118   16.2116 C   0  0  0  0  0  0  0  0  0  0  0  0
   10.3364   -3.8368   22.9255 O   0  0  0  0  0  0  0  0  0  0  0  0
    9.6947   -4.8407   18.8534 C   0  0  0  0  0  0  0  0  0  0  0  0
    9.1596    1.7042   24.1381 C   0  0  0  0  0  0  0  0  0  0  0  0
   11.0456   -2.9774   18.2694 N   0  0  0  0  0  0  0  0  0  0  0  0
   10.4788   -3.0457   21.8593 C   0  0  0  0  0  0  0  0  0  0  0  0
    8.8693   -5.8099   18.4657 N   0  0  0  0  0  0  0  0  0  0  0  0
    8.9892   -0.7926   25.4573 C   0  0  0  0  0  0  0  0  0  0  0  0
   10.5677   -3.4462   20.5323 C   0  0  0  0  0  0  0  0  0  0  0  0
  1  8  1  0
  1 12  4  0
  1 14  4  0
  2  3  4  0
  2 18  4  0
  3 20  4  0
  3 22  4  0
  4 11  4  0
  4 21  4  0
  5  9  4  0
  5 16  4  0
  6 15  4  0
  6 16  4  0
  7 22  4  0
  7 26  4  0
  8 10  4  0
  8 25  4  0
  9 15  4  0
  9 17  1  0
 10 21  4  0
 11 25  4  0
 12 23  4  0
 13 20  4  0
 13 26  4  0
 14 19  4  0
 17 18  4  0
 17 24  4  0
 19 23  4  0
 20 24  4  0
 23 26  1  0
M  END
$$$$

 Created by Python create_sdf_string function

 26 30  0  0  0  0  0  0  0  0999 V2000
   10.0084   -1.8019   23.4945 C   0  0  0  0  0  0  0  0  0  0  0  0
   10.0005   -4.2520   16.5631 C   0  0  0  0  0  0  0  0  0  0  0  0
   10.2759   -4.0036   17.8845 C   0  0  0  0  0  0  0  0  0  0  0  0
    8.5652    1.5478   25.3778 N   0  0  0  0  0  0  0  0  0  0  0  0
    6.8048   -7.5457   17.8752 C   0  0  0  0  0  0  0  0  0  0  0  0
    6.1721   -8.2186   15.9886 N   0  0  0  0  0  0  0  0  0  0  0  0
   11.1764   -2.6600   19.5604 C   0  0  0  0  0  0  0  0  0  0  0  0
    9.5491   -0.6380   24.1912 C   0  0  0  0  0  0  0  0  0  0  0  0
    7.5337   -6.9256   16.9519 C   0  0  0  0  0  0  0  0  0  0  0  0
    9.6782    0.5671   23.5143 C   0  0  0  0  0  0  0  0  0  0  0  0
    8.4532    0.3482   26.0821 C   0  0  0  0  0  0  0  0  0  0  0  0
   10.4239   -1.7677   22.2230 N   0  0  0  0  0  0  0  0  0  0  0  0
    9.9468   -4.5953   20.1709 C   0  0  0  0  0  0  0  0  0  0  0  0
   10.0366   -3.0590   23.9864 N   0  0  0  0  0  0  0  0  0  0  0  0
    7.1191   -7.3636   15.7739 C   0  0  0  0  0  0  0  0  0  0  0  0
    5.9612   -8.3203   17.2732 N   0  0  0  0  0  0  0  0  0  0  0  0
    8.5296   -5.9814   17.1841 C   0  0  0  0  0  0  0  0  0  0  0  0
    9.1527   -5.2118   16.2116 C   0  0  0  0  0  0  0  0  0  0  0  0
   10.3364   -3.8368   22.9255 O   0  0  0  0  0  0  0  0  0  0  0  0
    9.6947   -4.8407   18.8534 C   0  0  0  0  0  0  0  0  0  0  0  0
    9.1596    1.7042   24.1381 C   0  0  0  0  0  0  0  0  0  0  0  0
   11.0456   -2.9774   18.2694 N   0  0  0  0  0  0  0  0  0  0  0  0
   10.4788   -3.0457   21.8593 C   0  0  0  0  0  0  0  0  0  0  0  0
    8.8693   -5.8099   18.4657 N   0  0  0  0  0  0  0  0  0  0  0  0
    8.9892   -0.7926   25.4573 C   0  0  0  0  0  0  0  0  0  0  0  0
   10.5677   -3.4462   20.5323 C   0  0  0  0  0  0  0  0  0  0  0  0
  1  8  1  0
  1 12  4  0
  1 14  4  0
  2  3  4  0
  2 18  4  0
  3 20  4  0
  3 22  4  0
  4 11  4  0
  4 21  4  0
  5  9  4  0
  5 16  4  0
  6 15  4  0
  6 16  4  0
  7 22  4  0
  7 26  4  0
  8 10  4  0
  8 25  4  0
  9 15  4  0
  9 17  1  0
 10 21  4  0
 11 25  4  0
 12 23  4  0
 13 20  4  0
 13 26  4  0
 14 19  4  0
 17 18  4  0
 17 24  4  0
 19 23  4  0
 20 24  4  0
 23 26  1  0
M  END
$$$$

 Created by Python create_sdf_string function

 26 30  0  0  0  0  0  0  0  0999 V2000
   10.0084   -1.8019   23.4945 C   0  0  0  0  0  0  0  0  0  0  0  0
   10.0005   -4.2520   16.5631 C   0  0  0  0  0  0  0  0  0  0  0  0
   10.2759   -4.0036   17.8845 C   0  0  0  0  0  0  0  0  0  0  0  0
    8.5652    1.5478   25.3778 N   0  0  0  0  0  0  0  0  0  0  0  0
    6.8048   -7.5457   17.8752 C   0  0  0  0  0  0  0  0  0  0  0  0
    6.1721   -8.2186   15.9886 N   0  0  0  0  0  0  0  0  0  0  0  0
   11.1764   -2.6600   19.5604 C   0  0  0  0  0  0  0  0  0  0  0  0
    9.5491   -0.6380   24.1912 C   0  0  0  0  0  0  0  0  0  0  0  0
    7.5337   -6.9256   16.9519 C   0  0  0  0  0  0  0  0  0  0  0  0
    9.6782    0.5671   23.5143 C   0  0  0  0  0  0  0  0  0  0  0  0
    8.4532    0.3482   26.0821 C   0  0  0  0  0  0  0  0  0  0  0  0
   10.4239   -1.7677   22.2230 N   0  0  0  0  0  0  0  0  0  0  0  0
    9.9468   -4.5953   20.1709 C   0  0  0  0  0  0  0  0  0  0  0  0
   10.0366   -3.0590   23.9864 N   0  0  0  0  0  0  0  0  0  0  0  0
    7.1191   -7.3636   15.7739 C   0  0  0  0  0  0  0  0  0  0  0  0
    5.9612   -8.3203   17.2732 N   0  0  0  0  0  0  0  0  0  0  0  0
    8.5296   -5.9814   17.1841 C   0  0  0  0  0  0  0  0  0  0  0  0
    9.1527   -5.2118   16.2116 C   0  0  0  0  0  0  0  0  0  0  0  0
   10.3364   -3.8368   22.9255 O   0  0  0  0  0  0  0  0  0  0  0  0
    9.6947   -4.8407   18.8534 C   0  0  0  0  0  0  0  0  0  0  0  0
    9.1596    1.7042   24.1381 C   0  0  0  0  0  0  0  0  0  0  0  0
   11.0456   -2.9774   18.2694 N   0  0  0  0  0  0  0  0  0  0  0  0
   10.4788   -3.0457   21.8593 C   0  0  0  0  0  0  0  0  0  0  0  0
    8.8693   -5.8099   18.4657 N   0  0  0  0  0  0  0  0  0  0  0  0
    8.9892   -0.7926   25.4573 C   0  0  0  0  0  0  0  0  0  0  0  0
   10.5677   -3.4462   20.5323 C   0  0  0  0  0  0  0  0  0  0  0  0
  1  8  1  0
  1 12  4  0
  1 14  4  0
  2  3  4  0
  2 18  4  0
  3 20  4  0
  3 22  4  0
  4 11  4  0
  4 21  4  0
  5  9  4  0
  5 16  4  0
  6 15  4  0
  6 16  4  0
  7 22  4  0
  7 26  4  0
  8 10  4  0
  8 25  4  0
  9 15  4  0
  9 17  1  0
 10 21  4  0
 11 25  4  0
 12 23  4  0
 13 20  4  0
 13 26  4  0
 14 19  4  0
 17 18  4  0
 17 24  4  0
 19 23  4  0
 20 24  4  0
 23 26  1  0
M  END
$$$$

 Created by Python create_sdf_string function

 26 30  0  0  0  0  0  0  0  0999 V2000
   10.0084   -1.8019   23.4945 C   0  0  0  0  0  0  0  0  0  0  0  0
   10.0005   -4.2520   16.5631 C   0  0  0  0  0  0  0  0  0  0  0  0
   10.2759   -4.0036   17.8845 C   0  0  0  0  0  0  0  0  0  0  0  0
    8.5652    1.5478   25.3778 N   0  0  0  0  0  0  0  0  0  0  0  0
    6.8048   -7.5457   17.8752 C   0  0  0  0  0  0  0  0  0  0  0  0
    6.1721   -8.2186   15.9886 N   0  0  0  0  0  0  0  0  0  0  0  0
   11.1764   -2.6600   19.5604 C   0  0  0  0  0  0  0  0  0  0  0  0
    9.5491   -0.6380   24.1912 C   0  0  0  0  0  0  0  0  0  0  0  0
    7.5337   -6.9256   16.9519 C   0  0  0  0  0  0  0  0  0  0  0  0
    9.6782    0.5671   23.5143 C   0  0  0  0  0  0  0  0  0  0  0  0
    8.4532    0.3482   26.0821 C   0  0  0  0  0  0  0  0  0  0  0  0
   10.4239   -1.7677   22.2230 N   0  0  0  0  0  0  0  0  0  0  0  0
    9.9468   -4.5953   20.1709 C   0  0  0  0  0  0  0  0  0  0  0  0
   10.0366   -3.0590   23.9864 N   0  0  0  0  0  0  0  0  0  0  0  0
    7.1191   -7.3636   15.7739 C   0  0  0  0  0  0  0  0  0  0  0  0
    5.9612   -8.3203   17.2732 N   0  0  0  0  0  0  0  0  0  0  0  0
    8.5296   -5.9814   17.1841 C   0  0  0  0  0  0  0  0  0  0  0  0
    9.1527   -5.2118   16.2116 C   0  0  0  0  0  0  0  0  0  0  0  0
   10.3364   -3.8368   22.9255 O   0  0  0  0  0  0  0  0  0  0  0  0
    9.6947   -4.8407   18.8534 C   0  0  0  0  0  0  0  0  0  0  0  0
    9.1596    1.7042   24.1381 C   0  0  0  0  0  0  0  0  0  0  0  0
   11.0456   -2.9774   18.2694 N   0  0  0  0  0  0  0  0  0  0  0  0
   10.4788   -3.0457   21.8593 C   0  0  0  0  0  0  0  0  0  0  0  0
    8.8693   -5.8099   18.4657 N   0  0  0  0  0  0  0  0  0  0  0  0
    8.9892   -0.7926   25.4573 C   0  0  0  0  0  0  0  0  0  0  0  0
   10.5677   -3.4462   20.5323 C   0  0  0  0  0  0  0  0  0  0  0  0
  1  8  1  0
  1 12  4  0
  1 14  4  0
  2  3  4  0
  2 18  4  0
  3 20  4  0
  3 22  4  0
  4 11  4  0
  4 21  4  0
  5  9  4  0
  5 16  4  0
  6 15  4  0
  6 16  4  0
  7 22  4  0
  7 26  4  0
  8 10  4  0
  8 25  4  0
  9 15  4  0
  9 17  1  0
 10 21  4  0
 11 25  4  0
 12 23  4  0
 13 20  4  0
 13 26  4  0
 14 19  4  0
 17 18  4  0
 17 24  4  0
 19 23  4  0
 20 24  4  0
 23 26  1  0
M  END
$$$$

 Created by Python create_sdf_string function

 26 30  0  0  0  0  0  0  0  0999 V2000
   10.0084   -1.8019   23.4945 C   0  0  0  0  0  0  0  0  0  0  0  0
   10.0005   -4.2520   16.5631 C   0  0  0  0  0  0  0  0  0  0  0  0
   10.2759   -4.0036   17.8845 C   0  0  0  0  0  0  0  0  0  0  0  0
    8.5652    1.5478   25.3778 N   0  0  0  0  0  0  0  0  0  0  0  0
    6.8048   -7.5457   17.8752 C   0  0  0  0  0  0  0  0  0  0  0  0
    6.1721   -8.2186   15.9886 N   0  0  0  0  0  0  0  0  0  0  0  0
   11.1764   -2.6600   19.5604 C   0  0  0  0  0  0  0  0  0  0  0  0
    9.5491   -0.6380   24.1912 C   0  0  0  0  0  0  0  0  0  0  0  0
    7.5337   -6.9256   16.9519 C   0  0  0  0  0  0  0  0  0  0  0  0
    9.6782    0.5671   23.5143 C   0  0  0  0  0  0  0  0  0  0  0  0
    8.4532    0.3482   26.0821 C   0  0  0  0  0  0  0  0  0  0  0  0
   10.4239   -1.7677   22.2230 N   0  0  0  0  0  0  0  0  0  0  0  0
    9.9468   -4.5953   20.1709 C   0  0  0  0  0  0  0  0  0  0  0  0
   10.0366   -3.0590   23.9864 N   0  0  0  0  0  0  0  0  0  0  0  0
    7.1191   -7.3636   15.7739 C   0  0  0  0  0  0  0  0  0  0  0  0
    5.9612   -8.3203   17.2732 N   0  0  0  0  0  0  0  0  0  0  0  0
    8.5296   -5.9814   17.1841 C   0  0  0  0  0  0  0  0  0  0  0  0
    9.1527   -5.2118   16.2116 C   0  0  0  0  0  0  0  0  0  0  0  0
   10.3364   -3.8368   22.9255 O   0  0  0  0  0  0  0  0  0  0  0  0
    9.6947   -4.8407   18.8534 C   0  0  0  0  0  0  0  0  0  0  0  0
    9.1596    1.7042   24.1381 C   0  0  0  0  0  0  0  0  0  0  0  0
   11.0456   -2.9774   18.2694 N   0  0  0  0  0  0  0  0  0  0  0  0
   10.4788   -3.0457   21.8593 C   0  0  0  0  0  0  0  0  0  0  0  0
    8.8693   -5.8099   18.4657 N   0  0  0  0  0  0  0  0  0  0  0  0
    8.9892   -0.7926   25.4573 C   0  0  0  0  0  0  0  0  0  0  0  0
   10.5677   -3.4462   20.5323 C   0  0  0  0  0  0  0  0  0  0  0  0
  1  8  1  0
  1 12  4  0
  1 14  4  0
  2  3  4  0
  2 18  4  0
  3 20  4  0
  3 22  4  0
  4 11  4  0
  4 21  4  0
  5  9  4  0
  5 16  4  0
  6 15  4  0
  6 16  4  0
  7 22  4  0
  7 26  4  0
  8 10  4  0
  8 25  4  0
  9 15  4  0
  9 17  1  0
 10 21  4  0
 11 25  4  0
 12 23  4  0
 13 20  4  0
 13 26  4  0
 14 19  4  0
 17 18  4  0
 17 24  4  0
 19 23  4  0
 20 24  4  0
 23 26  1  0
M  END
$$$$

 Created by Python create_sdf_string function

 26 30  0  0  0  0  0  0  0  0999 V2000
   10.0084   -1.8019   23.4945 C   0  0  0  0  0  0  0  0  0  0  0  0
   10.0005   -4.2520   16.5631 C   0  0  0  0  0  0  0  0  0  0  0  0
   10.2759   -4.0036   17.8845 C   0  0  0  0  0  0  0  0  0  0  0  0
    8.5652    1.5478   25.3778 N   0  0  0  0  0  0  0  0  0  0  0  0
    6.8048   -7.5457   17.8752 C   0  0  0  0  0  0  0  0  0  0  0  0
    6.1721   -8.2186   15.9886 N   0  0  0  0  0  0  0  0  0  0  0  0
   11.1764   -2.6600   19.5604 C   0  0  0  0  0  0  0  0  0  0  0  0
    9.5491   -0.6380   24.1912 C   0  0  0  0  0  0  0  0  0  0  0  0
    7.5337   -6.9256   16.9519 C   0  0  0  0  0  0  0  0  0  0  0  0
    9.6782    0.5671   23.5143 C   0  0  0  0  0  0  0  0  0  0  0  0
    8.4532    0.3482   26.0821 C   0  0  0  0  0  0  0  0  0  0  0  0
   10.4239   -1.7677   22.2230 N   0  0  0  0  0  0  0  0  0  0  0  0
    9.9468   -4.5953   20.1709 C   0  0  0  0  0  0  0  0  0  0  0  0
   10.0366   -3.0590   23.9864 N   0  0  0  0  0  0  0  0  0  0  0  0
    7.1191   -7.3636   15.7739 C   0  0  0  0  0  0  0  0  0  0  0  0
    5.9612   -8.3203   17.2732 N   0  0  0  0  0  0  0  0  0  0  0  0
    8.5296   -5.9814   17.1841 C   0  0  0  0  0  0  0  0  0  0  0  0
    9.1527   -5.2118   16.2116 C   0  0  0  0  0  0  0  0  0  0  0  0
   10.3364   -3.8368   22.9255 O   0  0  0  0  0  0  0  0  0  0  0  0
    9.6947   -4.8407   18.8534 C   0  0  0  0  0  0  0  0  0  0  0  0
    9.1596    1.7042   24.1381 C   0  0  0  0  0  0  0  0  0  0  0  0
   11.0456   -2.9774   18.2694 N   0  0  0  0  0  0  0  0  0  0  0  0
   10.4788   -3.0457   21.8593 C   0  0  0  0  0  0  0  0  0  0  0  0
    8.8693   -5.8099   18.4657 N   0  0  0  0  0  0  0  0  0  0  0  0
    8.9892   -0.7926   25.4573 C   0  0  0  0  0  0  0  0  0  0  0  0
   10.5677   -3.4462   20.5323 C   0  0  0  0  0  0  0  0  0  0  0  0
  1  8  1  0
  1 12  4  0
  1 14  4  0
  2  3  4  0
  2 18  4  0
  3 20  4  0
  3 22  4  0
  4 11  4  0
  4 21  4  0
  5  9  4  0
  5 16  4  0
  6 15  4  0
  6 16  4  0
  7 22  4  0
  7 26  4  0
  8 10  4  0
  8 25  4  0
  9 15  4  0
  9 17  1  0
 10 21  4  0
 11 25  4  0
 12 23  4  0
 13 20  4  0
 13 26  4  0
 14 19  4  0
 17 18  4  0
 17 24  4  0
 19 23  4  0
 20 24  4  0
 23 26  1  0
M  END
$$$$

 Created by Python create_sdf_string function

 26 30  0  0  0  0  0  0  0  0999 V2000
   10.0084   -1.8019   23.4945 C   0  0  0  0  0  0  0  0  0  0  0  0
   10.0005   -4.2520   16.5631 C   0  0  0  0  0  0  0  0  0  0  0  0
   10.2759   -4.0036   17.8845 C   0  0  0  0  0  0  0  0  0  0  0  0
    8.5652    1.5478   25.3778 N   0  0  0  0  0  0  0  0  0  0  0  0
    6.8048   -7.5457   17.8752 C   0  0  0  0  0  0  0  0  0  0  0  0
    6.1721   -8.2186   15.9886 N   0  0  0  0  0  0  0  0  0  0  0  0
   11.1764   -2.6600   19.5604 C   0  0  0  0  0  0  0  0  0  0  0  0
    9.5491   -0.6380   24.1912 C   0  0  0  0  0  0  0  0  0  0  0  0
    7.5337   -6.9256   16.9519 C   0  0  0  0  0  0  0  0  0  0  0  0
    9.6782    0.5671   23.5143 C   0  0  0  0  0  0  0  0  0  0  0  0
    8.4532    0.3482   26.0821 C   0  0  0  0  0  0  0  0  0  0  0  0
   10.4239   -1.7677   22.2230 N   0  0  0  0  0  0  0  0  0  0  0  0
    9.9468   -4.5953   20.1709 C   0  0  0  0  0  0  0  0  0  0  0  0
   10.0366   -3.0590   23.9864 N   0  0  0  0  0  0  0  0  0  0  0  0
    7.1191   -7.3636   15.7739 C   0  0  0  0  0  0  0  0  0  0  0  0
    5.9612   -8.3203   17.2732 N   0  0  0  0  0  0  0  0  0  0  0  0
    8.5296   -5.9814   17.1841 C   0  0  0  0  0  0  0  0  0  0  0  0
    9.1527   -5.2118   16.2116 C   0  0  0  0  0  0  0  0  0  0  0  0
   10.3364   -3.8368   22.9255 O   0  0  0  0  0  0  0  0  0  0  0  0
    9.6947   -4.8407   18.8534 C   0  0  0  0  0  0  0  0  0  0  0  0
    9.1596    1.7042   24.1381 C   0  0  0  0  0  0  0  0  0  0  0  0
   11.0456   -2.9774   18.2694 N   0  0  0  0  0  0  0  0  0  0  0  0
   10.4788   -3.0457   21.8593 C   0  0  0  0  0  0  0  0  0  0  0  0
    8.8693   -5.8099   18.4657 N   0  0  0  0  0  0  0  0  0  0  0  0
    8.9892   -0.7926   25.4573 C   0  0  0  0  0  0  0  0  0  0  0  0
   10.5677   -3.4462   20.5323 C   0  0  0  0  0  0  0  0  0  0  0  0
  1  8  1  0
  1 12  4  0
  1 14  4  0
  2  3  4  0
  2 18  4  0
  3 20  4  0
  3 22  4  0
  4 11  4  0
  4 21  4  0
  5  9  4  0
  5 16  4  0
  6 15  4  0
  6 16  4  0
  7 22  4  0
  7 26  4  0
  8 10  4  0
  8 25  4  0
  9 15  4  0
  9 17  1  0
 10 21  4  0
 11 25  4  0
 12 23  4  0
 13 20  4  0
 13 26  4  0
 14 19  4  0
 17 18  4  0
 17 24  4  0
 19 23  4  0
 20 24  4  0
 23 26  1  0
M  END
$$$$

 Created by Python create_sdf_string function

 26 30  0  0  0  0  0  0  0  0999 V2000
   10.0084   -1.8019   23.4945 C   0  0  0  0  0  0  0  0  0  0  0  0
   10.0005   -4.2520   16.5631 C   0  0  0  0  0  0  0  0  0  0  0  0
   10.2759   -4.0036   17.8845 C   0  0  0  0  0  0  0  0  0  0  0  0
    8.5652    1.5478   25.3778 N   0  0  0  0  0  0  0  0  0  0  0  0
    6.8048   -7.5457   17.8752 C   0  0  0  0  0  0  0  0  0  0  0  0
    6.1721   -8.2186   15.9886 N   0  0  0  0  0  0  0  0  0  0  0  0
   11.1764   -2.6600   19.5604 C   0  0  0  0  0  0  0  0  0  0  0  0
    9.5491   -0.6380   24.1912 C   0  0  0  0  0  0  0  0  0  0  0  0
    7.5337   -6.9256   16.9519 C   0  0  0  0  0  0  0  0  0  0  0  0
    9.6782    0.5671   23.5143 C   0  0  0  0  0  0  0  0  0  0  0  0
    8.4532    0.3482   26.0821 C   0  0  0  0  0  0  0  0  0  0  0  0
   10.4239   -1.7677   22.2230 N   0  0  0  0  0  0  0  0  0  0  0  0
    9.9468   -4.5953   20.1709 C   0  0  0  0  0  0  0  0  0  0  0  0
   10.0366   -3.0590   23.9864 N   0  0  0  0  0  0  0  0  0  0  0  0
    7.1191   -7.3636   15.7739 C   0  0  0  0  0  0  0  0  0  0  0  0
    5.9612   -8.3203   17.2732 N   0  0  0  0  0  0  0  0  0  0  0  0
    8.5296   -5.9814   17.1841 C   0  0  0  0  0  0  0  0  0  0  0  0
    9.1527   -5.2118   16.2116 C   0  0  0  0  0  0  0  0  0  0  0  0
   10.3364   -3.8368   22.9255 O   0  0  0  0  0  0  0  0  0  0  0  0
    9.6947   -4.8407   18.8534 C   0  0  0  0  0  0  0  0  0  0  0  0
    9.1596    1.7042   24.1381 C   0  0  0  0  0  0  0  0  0  0  0  0
   11.0456   -2.9774   18.2694 N   0  0  0  0  0  0  0  0  0  0  0  0
   10.4788   -3.0457   21.8593 C   0  0  0  0  0  0  0  0  0  0  0  0
    8.8693   -5.8099   18.4657 N   0  0  0  0  0  0  0  0  0  0  0  0
    8.9892   -0.7926   25.4573 C   0  0  0  0  0  0  0  0  0  0  0  0
   10.5677   -3.4462   20.5323 C   0  0  0  0  0  0  0  0  0  0  0  0
  1  8  1  0
  1 12  4  0
  1 14  4  0
  2  3  4  0
  2 18  4  0
  3 20  4  0
  3 22  4  0
  4 11  4  0
  4 21  4  0
  5  9  4  0
  5 16  4  0
  6 15  4  0
  6 16  4  0
  7 22  4  0
  7 26  4  0
  8 10  4  0
  8 25  4  0
  9 15  4  0
  9 17  1  0
 10 21  4  0
 11 25  4  0
 12 23  4  0
 13 20  4  0
 13 26  4  0
 14 19  4  0
 17 18  4  0
 17 24  4  0
 19 23  4  0
 20 24  4  0
 23 26  1  0
M  END
$$$$

 Created by Python create_sdf_string function

 26 30  0  0  0  0  0  0  0  0999 V2000
   10.0084   -1.8019   23.4945 C   0  0  0  0  0  0  0  0  0  0  0  0
   10.0005   -4.2520   16.5631 C   0  0  0  0  0  0  0  0  0  0  0  0
   10.2759   -4.0036   17.8845 C   0  0  0  0  0  0  0  0  0  0  0  0
    8.5652    1.5478   25.3778 N   0  0  0  0  0  0  0  0  0  0  0  0
    6.8048   -7.5457   17.8752 C   0  0  0  0  0  0  0  0  0  0  0  0
    6.1721   -8.2186   15.9886 N   0  0  0  0  0  0  0  0  0  0  0  0
   11.1764   -2.6600   19.5604 C   0  0  0  0  0  0  0  0  0  0  0  0
    9.5491   -0.6380   24.1912 C   0  0  0  0  0  0  0  0  0  0  0  0
    7.5337   -6.9256   16.9519 C   0  0  0  0  0  0  0  0  0  0  0  0
    9.6782    0.5671   23.5143 C   0  0  0  0  0  0  0  0  0  0  0  0
    8.4532    0.3482   26.0821 C   0  0  0  0  0  0  0  0  0  0  0  0
   10.4239   -1.7677   22.2230 N   0  0  0  0  0  0  0  0  0  0  0  0
    9.9468   -4.5953   20.1709 C   0  0  0  0  0  0  0  0  0  0  0  0
   10.0366   -3.0590   23.9864 N   0  0  0  0  0  0  0  0  0  0  0  0
    7.1191   -7.3636   15.7739 C   0  0  0  0  0  0  0  0  0  0  0  0
    5.9612   -8.3203   17.2732 N   0  0  0  0  0  0  0  0  0  0  0  0
    8.5296   -5.9814   17.1841 C   0  0  0  0  0  0  0  0  0  0  0  0
    9.1527   -5.2118   16.2116 C   0  0  0  0  0  0  0  0  0  0  0  0
   10.3364   -3.8368   22.9255 O   0  0  0  0  0  0  0  0  0  0  0  0
    9.6947   -4.8407   18.8534 C   0  0  0  0  0  0  0  0  0  0  0  0
    9.1596    1.7042   24.1381 C   0  0  0  0  0  0  0  0  0  0  0  0
   11.0456   -2.9774   18.2694 N   0  0  0  0  0  0  0  0  0  0  0  0
   10.4788   -3.0457   21.8593 C   0  0  0  0  0  0  0  0  0  0  0  0
    8.8693   -5.8099   18.4657 N   0  0  0  0  0  0  0  0  0  0  0  0
    8.9892   -0.7926   25.4573 C   0  0  0  0  0  0  0  0  0  0  0  0
   10.5677   -3.4462   20.5323 C   0  0  0  0  0  0  0  0  0  0  0  0
  1  8  1  0
  1 12  4  0
  1 14  4  0
  2  3  4  0
  2 18  4  0
  3 20  4  0
  3 22  4  0
  4 11  4  0
  4 21  4  0
  5  9  4  0
  5 16  4  0
  6 15  4  0
  6 16  4  0
  7 22  4  0
  7 26  4  0
  8 10  4  0
  8 25  4  0
  9 15  4  0
  9 17  1  0
 10 21  4  0
 11 25  4  0
 12 23  4  0
 13 20  4  0
 13 26  4  0
 14 19  4  0
 17 18  4  0
 17 24  4  0
 19 23  4  0
 20 24  4  0
 23 26  1  0
M  END
$$$$

 Created by Python create_sdf_string function

 26 30  0  0  0  0  0  0  0  0999 V2000
   10.0084   -1.8019   23.4945 C   0  0  0  0  0  0  0  0  0  0  0  0
   10.0005   -4.2520   16.5631 C   0  0  0  0  0  0  0  0  0  0  0  0
   10.2759   -4.0036   17.8845 C   0  0  0  0  0  0  0  0  0  0  0  0
    8.5652    1.5478   25.3778 N   0  0  0  0  0  0  0  0  0  0  0  0
    6.8048   -7.5457   17.8752 C   0  0  0  0  0  0  0  0  0  0  0  0
    6.1721   -8.2186   15.9886 N   0  0  0  0  0  0  0  0  0  0  0  0
   11.1764   -2.6600   19.5604 C   0  0  0  0  0  0  0  0  0  0  0  0
    9.5491   -0.6380   24.1912 C   0  0  0  0  0  0  0  0  0  0  0  0
    7.5337   -6.9256   16.9519 C   0  0  0  0  0  0  0  0  0  0  0  0
    9.6782    0.5671   23.5143 C   0  0  0  0  0  0  0  0  0  0  0  0
    8.4532    0.3482   26.0821 C   0  0  0  0  0  0  0  0  0  0  0  0
   10.4239   -1.7677   22.2230 N   0  0  0  0  0  0  0  0  0  0  0  0
    9.9468   -4.5953   20.1709 C   0  0  0  0  0  0  0  0  0  0  0  0
   10.0366   -3.0590   23.9864 N   0  0  0  0  0  0  0  0  0  0  0  0
    7.1191   -7.3636   15.7739 C   0  0  0  0  0  0  0  0  0  0  0  0
    5.9612   -8.3203   17.2732 N   0  0  0  0  0  0  0  0  0  0  0  0
    8.5296   -5.9814   17.1841 C   0  0  0  0  0  0  0  0  0  0  0  0
    9.1527   -5.2118   16.2116 C   0  0  0  0  0  0  0  0  0  0  0  0
   10.3364   -3.8368   22.9255 O   0  0  0  0  0  0  0  0  0  0  0  0
    9.6947   -4.8407   18.8534 C   0  0  0  0  0  0  0  0  0  0  0  0
    9.1596    1.7042   24.1381 C   0  0  0  0  0  0  0  0  0  0  0  0
   11.0456   -2.9774   18.2694 N   0  0  0  0  0  0  0  0  0  0  0  0
   10.4788   -3.0457   21.8593 C   0  0  0  0  0  0  0  0  0  0  0  0
    8.8693   -5.8099   18.4657 N   0  0  0  0  0  0  0  0  0  0  0  0
    8.9892   -0.7926   25.4573 C   0  0  0  0  0  0  0  0  0  0  0  0
   10.5677   -3.4462   20.5323 C   0  0  0  0  0  0  0  0  0  0  0  0
  1  8  1  0
  1 12  4  0
  1 14  4  0
  2  3  4  0
  2 18  4  0
  3 20  4  0
  3 22  4  0
  4 11  4  0
  4 21  4  0
  5  9  4  0
  5 16  4  0
  6 15  4  0
  6 16  4  0
  7 22  4  0
  7 26  4  0
  8 10  4  0
  8 25  4  0
  9 15  4  0
  9 17  1  0
 10 21  4  0
 11 25  4  0
 12 23  4  0
 13 20  4  0
 13 26  4  0
 14 19  4  0
 17 18  4  0
 17 24  4  0
 19 23  4  0
 20 24  4  0
 23 26  1  0
M  END
$$$$

 Created by Python create_sdf_string function

 26 30  0  0  0  0  0  0  0  0999 V2000
   10.0084   -1.8019   23.4945 C   0  0  0  0  0  0  0  0  0  0  0  0
   10.0005   -4.2520   16.5631 C   0  0  0  0  0  0  0  0  0  0  0  0
   10.2759   -4.0036   17.8845 C   0  0  0  0  0  0  0  0  0  0  0  0
    8.5652    1.5478   25.3778 N   0  0  0  0  0  0  0  0  0  0  0  0
    6.8048   -7.5457   17.8752 C   0  0  0  0  0  0  0  0  0  0  0  0
    6.1721   -8.2186   15.9886 N   0  0  0  0  0  0  0  0  0  0  0  0
   11.1764   -2.6600   19.5604 C   0  0  0  0  0  0  0  0  0  0  0  0
    9.5491   -0.6380   24.1912 C   0  0  0  0  0  0  0  0  0  0  0  0
    7.5337   -6.9256   16.9519 C   0  0  0  0  0  0  0  0  0  0  0  0
    9.6782    0.5671   23.5143 C   0  0  0  0  0  0  0  0  0  0  0  0
    8.4532    0.3482   26.0821 C   0  0  0  0  0  0  0  0  0  0  0  0
   10.4239   -1.7677   22.2230 N   0  0  0  0  0  0  0  0  0  0  0  0
    9.9468   -4.5953   20.1709 C   0  0  0  0  0  0  0  0  0  0  0  0
   10.0366   -3.0590   23.9864 N   0  0  0  0  0  0  0  0  0  0  0  0
    7.1191   -7.3636   15.7739 C   0  0  0  0  0  0  0  0  0  0  0  0
    5.9612   -8.3203   17.2732 N   0  0  0  0  0  0  0  0  0  0  0  0
    8.5296   -5.9814   17.1841 C   0  0  0  0  0  0  0  0  0  0  0  0
    9.1527   -5.2118   16.2116 C   0  0  0  0  0  0  0  0  0  0  0  0
   10.3364   -3.8368   22.9255 O   0  0  0  0  0  0  0  0  0  0  0  0
    9.6947   -4.8407   18.8534 C   0  0  0  0  0  0  0  0  0  0  0  0
    9.1596    1.7042   24.1381 C   0  0  0  0  0  0  0  0  0  0  0  0
   11.0456   -2.9774   18.2694 N   0  0  0  0  0  0  0  0  0  0  0  0
   10.4788   -3.0457   21.8593 C   0  0  0  0  0  0  0  0  0  0  0  0
    8.8693   -5.8099   18.4657 N   0  0  0  0  0  0  0  0  0  0  0  0
    8.9892   -0.7926   25.4573 C   0  0  0  0  0  0  0  0  0  0  0  0
   10.5677   -3.4462   20.5323 C   0  0  0  0  0  0  0  0  0  0  0  0
  1  8  1  0
  1 12  4  0
  1 14  4  0
  2  3  4  0
  2 18  4  0
  3 20  4  0
  3 22  4  0
  4 11  4  0
  4 21  4  0
  5  9  4  0
  5 16  4  0
  6 15  4  0
  6 16  4  0
  7 22  4  0
  7 26  4  0
  8 10  4  0
  8 25  4  0
  9 15  4  0
  9 17  1  0
 10 21  4  0
 11 25  4  0
 12 23  4  0
 13 20  4  0
 13 26  4  0
 14 19  4  0
 17 18  4  0
 17 24  4  0
 19 23  4  0
 20 24  4  0
 23 26  1  0
M  END
$$$$

 Created by Python create_sdf_string function

 26 30  0  0  0  0  0  0  0  0999 V2000
   10.0084   -1.8019   23.4945 C   0  0  0  0  0  0  0  0  0  0  0  0
   10.0005   -4.2520   16.5631 C   0  0  0  0  0  0  0  0  0  0  0  0
   10.2759   -4.0036   17.8845 C   0  0  0  0  0  0  0  0  0  0  0  0
    8.5652    1.5478   25.3778 N   0  0  0  0  0  0  0  0  0  0  0  0
    6.8048   -7.5457   17.8752 C   0  0  0  0  0  0  0  0  0  0  0  0
    6.1721   -8.2186   15.9886 N   0  0  0  0  0  0  0  0  0  0  0  0
   11.1764   -2.6600   19.5604 C   0  0  0  0  0  0  0  0  0  0  0  0
    9.5491   -0.6380   24.1912 C   0  0  0  0  0  0  0  0  0  0  0  0
    7.5337   -6.9256   16.9519 C   0  0  0  0  0  0  0  0  0  0  0  0
    9.6782    0.5671   23.5143 C   0  0  0  0  0  0  0  0  0  0  0  0
    8.4532    0.3482   26.0821 C   0  0  0  0  0  0  0  0  0  0  0  0
   10.4239   -1.7677   22.2230 N   0  0  0  0  0  0  0  0  0  0  0  0
    9.9468   -4.5953   20.1709 C   0  0  0  0  0  0  0  0  0  0  0  0
   10.0366   -3.0590   23.9864 N   0  0  0  0  0  0  0  0  0  0  0  0
    7.1191   -7.3636   15.7739 C   0  0  0  0  0  0  0  0  0  0  0  0
    5.9612   -8.3203   17.2732 N   0  0  0  0  0  0  0  0  0  0  0  0
    8.5296   -5.9814   17.1841 C   0  0  0  0  0  0  0  0  0  0  0  0
    9.1527   -5.2118   16.2116 C   0  0  0  0  0  0  0  0  0  0  0  0
   10.3364   -3.8368   22.9255 O   0  0  0  0  0  0  0  0  0  0  0  0
    9.6947   -4.8407   18.8534 C   0  0  0  0  0  0  0  0  0  0  0  0
    9.1596    1.7042   24.1381 C   0  0  0  0  0  0  0  0  0  0  0  0
   11.0456   -2.9774   18.2694 N   0  0  0  0  0  0  0  0  0  0  0  0
   10.4788   -3.0457   21.8593 C   0  0  0  0  0  0  0  0  0  0  0  0
    8.8693   -5.8099   18.4657 N   0  0  0  0  0  0  0  0  0  0  0  0
    8.9892   -0.7926   25.4573 C   0  0  0  0  0  0  0  0  0  0  0  0
   10.5677   -3.4462   20.5323 C   0  0  0  0  0  0  0  0  0  0  0  0
  1  8  1  0
  1 12  4  0
  1 14  4  0
  2  3  4  0
  2 18  4  0
  3 20  4  0
  3 22  4  0
  4 11  4  0
  4 21  4  0
  5  9  4  0
  5 16  4  0
  6 15  4  0
  6 16  4  0
  7 22  4  0
  7 26  4  0
  8 10  4  0
  8 25  4  0
  9 15  4  0
  9 17  1  0
 10 21  4  0
 11 25  4  0
 12 23  4  0
 13 20  4  0
 13 26  4  0
 14 19  4  0
 17 18  4  0
 17 24  4  0
 19 23  4  0
 20 24  4  0
 23 26  1  0
M  END
$$$$

 Created by Python create_sdf_string function

 26 30  0  0  0  0  0  0  0  0999 V2000
   10.0084   -1.8019   23.4945 C   0  0  0  0  0  0  0  0  0  0  0  0
   10.0005   -4.2520   16.5631 C   0  0  0  0  0  0  0  0  0  0  0  0
   10.2759   -4.0036   17.8845 C   0  0  0  0  0  0  0  0  0  0  0  0
    8.5652    1.5478   25.3778 N   0  0  0  0  0  0  0  0  0  0  0  0
    6.8048   -7.5457   17.8752 C   0  0  0  0  0  0  0  0  0  0  0  0
    6.1721   -8.2186   15.9886 N   0  0  0  0  0  0  0  0  0  0  0  0
   11.1764   -2.6600   19.5604 C   0  0  0  0  0  0  0  0  0  0  0  0
    9.5491   -0.6380   24.1912 C   0  0  0  0  0  0  0  0  0  0  0  0
    7.5337   -6.9256   16.9519 C   0  0  0  0  0  0  0  0  0  0  0  0
    9.6782    0.5671   23.5143 C   0  0  0  0  0  0  0  0  0  0  0  0
    8.4532    0.3482   26.0821 C   0  0  0  0  0  0  0  0  0  0  0  0
   10.4239   -1.7677   22.2230 N   0  0  0  0  0  0  0  0  0  0  0  0
    9.9468   -4.5953   20.1709 C   0  0  0  0  0  0  0  0  0  0  0  0
   10.0366   -3.0590   23.9864 N   0  0  0  0  0  0  0  0  0  0  0  0
    7.1191   -7.3636   15.7739 C   0  0  0  0  0  0  0  0  0  0  0  0
    5.9612   -8.3203   17.2732 N   0  0  0  0  0  0  0  0  0  0  0  0
    8.5296   -5.9814   17.1841 C   0  0  0  0  0  0  0  0  0  0  0  0
    9.1527   -5.2118   16.2116 C   0  0  0  0  0  0  0  0  0  0  0  0
   10.3364   -3.8368   22.9255 O   0  0  0  0  0  0  0  0  0  0  0  0
    9.6947   -4.8407   18.8534 C   0  0  0  0  0  0  0  0  0  0  0  0
    9.1596    1.7042   24.1381 C   0  0  0  0  0  0  0  0  0  0  0  0
   11.0456   -2.9774   18.2694 N   0  0  0  0  0  0  0  0  0  0  0  0
   10.4788   -3.0457   21.8593 C   0  0  0  0  0  0  0  0  0  0  0  0
    8.8693   -5.8099   18.4657 N   0  0  0  0  0  0  0  0  0  0  0  0
    8.9892   -0.7926   25.4573 C   0  0  0  0  0  0  0  0  0  0  0  0
   10.5677   -3.4462   20.5323 C   0  0  0  0  0  0  0  0  0  0  0  0
  1  8  1  0
  1 12  4  0
  1 14  4  0
  2  3  4  0
  2 18  4  0
  3 20  4  0
  3 22  4  0
  4 11  4  0
  4 21  4  0
  5  9  4  0
  5 16  4  0
  6 15  4  0
  6 16  4  0
  7 22  4  0
  7 26  4  0
  8 10  4  0
  8 25  4  0
  9 15  4  0
  9 17  1  0
 10 21  4  0
 11 25  4  0
 12 23  4  0
 13 20  4  0
 13 26  4  0
 14 19  4  0
 17 18  4  0
 17 24  4  0
 19 23  4  0
 20 24  4  0
 23 26  1  0
M  END
$$$$

 Created by Python create_sdf_string function

 26 30  0  0  0  0  0  0  0  0999 V2000
   10.0084   -1.8019   23.4945 C   0  0  0  0  0  0  0  0  0  0  0  0
   10.0005   -4.2520   16.5631 C   0  0  0  0  0  0  0  0  0  0  0  0
   10.2759   -4.0036   17.8845 C   0  0  0  0  0  0  0  0  0  0  0  0
    8.5652    1.5478   25.3778 N   0  0  0  0  0  0  0  0  0  0  0  0
    6.8048   -7.5457   17.8752 C   0  0  0  0  0  0  0  0  0  0  0  0
    6.1721   -8.2186   15.9886 N   0  0  0  0  0  0  0  0  0  0  0  0
   11.1764   -2.6600   19.5604 C   0  0  0  0  0  0  0  0  0  0  0  0
    9.5491   -0.6380   24.1912 C   0  0  0  0  0  0  0  0  0  0  0  0
    7.5337   -6.9256   16.9519 C   0  0  0  0  0  0  0  0  0  0  0  0
    9.6782    0.5671   23.5143 C   0  0  0  0  0  0  0  0  0  0  0  0
    8.4532    0.3482   26.0821 C   0  0  0  0  0  0  0  0  0  0  0  0
   10.4239   -1.7677   22.2230 N   0  0  0  0  0  0  0  0  0  0  0  0
    9.9468   -4.5953   20.1709 C   0  0  0  0  0  0  0  0  0  0  0  0
   10.0366   -3.0590   23.9864 N   0  0  0  0  0  0  0  0  0  0  0  0
    7.1191   -7.3636   15.7739 C   0  0  0  0  0  0  0  0  0  0  0  0
    5.9612   -8.3203   17.2732 N   0  0  0  0  0  0  0  0  0  0  0  0
    8.5296   -5.9814   17.1841 C   0  0  0  0  0  0  0  0  0  0  0  0
    9.1527   -5.2118   16.2116 C   0  0  0  0  0  0  0  0  0  0  0  0
   10.3364   -3.8368   22.9255 O   0  0  0  0  0  0  0  0  0  0  0  0
    9.6947   -4.8407   18.8534 C   0  0  0  0  0  0  0  0  0  0  0  0
    9.1596    1.7042   24.1381 C   0  0  0  0  0  0  0  0  0  0  0  0
   11.0456   -2.9774   18.2694 N   0  0  0  0  0  0  0  0  0  0  0  0
   10.4788   -3.0457   21.8593 C   0  0  0  0  0  0  0  0  0  0  0  0
    8.8693   -5.8099   18.4657 N   0  0  0  0  0  0  0  0  0  0  0  0
    8.9892   -0.7926   25.4573 C   0  0  0  0  0  0  0  0  0  0  0  0
   10.5677   -3.4462   20.5323 C   0  0  0  0  0  0  0  0  0  0  0  0
  1  8  1  0
  1 12  4  0
  1 14  4  0
  2  3  4  0
  2 18  4  0
  3 20  4  0
  3 22  4  0
  4 11  4  0
  4 21  4  0
  5  9  4  0
  5 16  4  0
  6 15  4  0
  6 16  4  0
  7 22  4  0
  7 26  4  0
  8 10  4  0
  8 25  4  0
  9 15  4  0
  9 17  1  0
 10 21  4  0
 11 25  4  0
 12 23  4  0
 13 20  4  0
 13 26  4  0
 14 19  4  0
 17 18  4  0
 17 24  4  0
 19 23  4  0
 20 24  4  0
 23 26  1  0
M  END
$$$$

 Created by Python create_sdf_string function

 26 30  0  0  0  0  0  0  0  0999 V2000
   10.0084   -1.8019   23.4945 C   0  0  0  0  0  0  0  0  0  0  0  0
   10.0005   -4.2520   16.5631 C   0  0  0  0  0  0  0  0  0  0  0  0
   10.2759   -4.0036   17.8845 C   0  0  0  0  0  0  0  0  0  0  0  0
    8.5652    1.5478   25.3778 N   0  0  0  0  0  0  0  0  0  0  0  0
    6.8048   -7.5457   17.8752 C   0  0  0  0  0  0  0  0  0  0  0  0
    6.1721   -8.2186   15.9886 N   0  0  0  0  0  0  0  0  0  0  0  0
   11.1764   -2.6600   19.5604 C   0  0  0  0  0  0  0  0  0  0  0  0
    9.5491   -0.6380   24.1912 C   0  0  0  0  0  0  0  0  0  0  0  0
    7.5337   -6.9256   16.9519 C   0  0  0  0  0  0  0  0  0  0  0  0
    9.6782    0.5671   23.5143 C   0  0  0  0  0  0  0  0  0  0  0  0
    8.4532    0.3482   26.0821 C   0  0  0  0  0  0  0  0  0  0  0  0
   10.4239   -1.7677   22.2230 N   0  0  0  0  0  0  0  0  0  0  0  0
    9.9468   -4.5953   20.1709 C   0  0  0  0  0  0  0  0  0  0  0  0
   10.0366   -3.0590   23.9864 N   0  0  0  0  0  0  0  0  0  0  0  0
    7.1191   -7.3636   15.7739 C   0  0  0  0  0  0  0  0  0  0  0  0
    5.9612   -8.3203   17.2732 N   0  0  0  0  0  0  0  0  0  0  0  0
    8.5296   -5.9814   17.1841 C   0  0  0  0  0  0  0  0  0  0  0  0
    9.1527   -5.2118   16.2116 C   0  0  0  0  0  0  0  0  0  0  0  0
   10.3364   -3.8368   22.9255 O   0  0  0  0  0  0  0  0  0  0  0  0
    9.6947   -4.8407   18.8534 C   0  0  0  0  0  0  0  0  0  0  0  0
    9.1596    1.7042   24.1381 C   0  0  0  0  0  0  0  0  0  0  0  0
   11.0456   -2.9774   18.2694 N   0  0  0  0  0  0  0  0  0  0  0  0
   10.4788   -3.0457   21.8593 C   0  0  0  0  0  0  0  0  0  0  0  0
    8.8693   -5.8099   18.4657 N   0  0  0  0  0  0  0  0  0  0  0  0
    8.9892   -0.7926   25.4573 C   0  0  0  0  0  0  0  0  0  0  0  0
   10.5677   -3.4462   20.5323 C   0  0  0  0  0  0  0  0  0  0  0  0
  1  8  1  0
  1 12  4  0
  1 14  4  0
  2  3  4  0
  2 18  4  0
  3 20  4  0
  3 22  4  0
  4 11  4  0
  4 21  4  0
  5  9  4  0
  5 16  4  0
  6 15  4  0
  6 16  4  0
  7 22  4  0
  7 26  4  0
  8 10  4  0
  8 25  4  0
  9 15  4  0
  9 17  1  0
 10 21  4  0
 11 25  4  0
 12 23  4  0
 13 20  4  0
 13 26  4  0
 14 19  4  0
 17 18  4  0
 17 24  4  0
 19 23  4  0
 20 24  4  0
 23 26  1  0
M  END
$$$$

 Created by Python create_sdf_string function

 26 30  0  0  0  0  0  0  0  0999 V2000
   10.0084   -1.8019   23.4945 C   0  0  0  0  0  0  0  0  0  0  0  0
   10.0005   -4.2520   16.5631 C   0  0  0  0  0  0  0  0  0  0  0  0
   10.2759   -4.0036   17.8845 C   0  0  0  0  0  0  0  0  0  0  0  0
    8.5652    1.5478   25.3778 N   0  0  0  0  0  0  0  0  0  0  0  0
    6.8048   -7.5457   17.8752 C   0  0  0  0  0  0  0  0  0  0  0  0
    6.1721   -8.2186   15.9886 N   0  0  0  0  0  0  0  0  0  0  0  0
   11.1764   -2.6600   19.5604 C   0  0  0  0  0  0  0  0  0  0  0  0
    9.5491   -0.6380   24.1912 C   0  0  0  0  0  0  0  0  0  0  0  0
    7.5337   -6.9256   16.9519 C   0  0  0  0  0  0  0  0  0  0  0  0
    9.6782    0.5671   23.5143 C   0  0  0  0  0  0  0  0  0  0  0  0
    8.4532    0.3482   26.0821 C   0  0  0  0  0  0  0  0  0  0  0  0
   10.4239   -1.7677   22.2230 N   0  0  0  0  0  0  0  0  0  0  0  0
    9.9468   -4.5953   20.1709 C   0  0  0  0  0  0  0  0  0  0  0  0
   10.0366   -3.0590   23.9864 N   0  0  0  0  0  0  0  0  0  0  0  0
    7.1191   -7.3636   15.7739 C   0  0  0  0  0  0  0  0  0  0  0  0
    5.9612   -8.3203   17.2732 N   0  0  0  0  0  0  0  0  0  0  0  0
    8.5296   -5.9814   17.1841 C   0  0  0  0  0  0  0  0  0  0  0  0
    9.1527   -5.2118   16.2116 C   0  0  0  0  0  0  0  0  0  0  0  0
   10.3364   -3.8368   22.9255 O   0  0  0  0  0  0  0  0  0  0  0  0
    9.6947   -4.8407   18.8534 C   0  0  0  0  0  0  0  0  0  0  0  0
    9.1596    1.7042   24.1381 C   0  0  0  0  0  0  0  0  0  0  0  0
   11.0456   -2.9774   18.2694 N   0  0  0  0  0  0  0  0  0  0  0  0
   10.4788   -3.0457   21.8593 C   0  0  0  0  0  0  0  0  0  0  0  0
    8.8693   -5.8099   18.4657 N   0  0  0  0  0  0  0  0  0  0  0  0
    8.9892   -0.7926   25.4573 C   0  0  0  0  0  0  0  0  0  0  0  0
   10.5677   -3.4462   20.5323 C   0  0  0  0  0  0  0  0  0  0  0  0
  1  8  1  0
  1 12  4  0
  1 14  4  0
  2  3  4  0
  2 18  4  0
  3 20  4  0
  3 22  4  0
  4 11  4  0
  4 21  4  0
  5  9  4  0
  5 16  4  0
  6 15  4  0
  6 16  4  0
  7 22  4  0
  7 26  4  0
  8 10  4  0
  8 25  4  0
  9 15  4  0
  9 17  1  0
 10 21  4  0
 11 25  4  0
 12 23  4  0
 13 20  4  0
 13 26  4  0
 14 19  4  0
 17 18  4  0
 17 24  4  0
 19 23  4  0
 20 24  4  0
 23 26  1  0
M  END
$$$$

 Created by Python create_sdf_string function

 26 30  0  0  0  0  0  0  0  0999 V2000
   10.0084   -1.8019   23.4945 C   0  0  0  0  0  0  0  0  0  0  0  0
   10.0005   -4.2520   16.5631 C   0  0  0  0  0  0  0  0  0  0  0  0
   10.2759   -4.0036   17.8845 C   0  0  0  0  0  0  0  0  0  0  0  0
    8.5652    1.5478   25.3778 N   0  0  0  0  0  0  0  0  0  0  0  0
    6.8048   -7.5457   17.8752 C   0  0  0  0  0  0  0  0  0  0  0  0
    6.1721   -8.2186   15.9886 N   0  0  0  0  0  0  0  0  0  0  0  0
   11.1764   -2.6600   19.5604 C   0  0  0  0  0  0  0  0  0  0  0  0
    9.5491   -0.6380   24.1912 C   0  0  0  0  0  0  0  0  0  0  0  0
    7.5337   -6.9256   16.9519 C   0  0  0  0  0  0  0  0  0  0  0  0
    9.6782    0.5671   23.5143 C   0  0  0  0  0  0  0  0  0  0  0  0
    8.4532    0.3482   26.0821 C   0  0  0  0  0  0  0  0  0  0  0  0
   10.4239   -1.7677   22.2230 N   0  0  0  0  0  0  0  0  0  0  0  0
    9.9468   -4.5953   20.1709 C   0  0  0  0  0  0  0  0  0  0  0  0
   10.0366   -3.0590   23.9864 N   0  0  0  0  0  0  0  0  0  0  0  0
    7.1191   -7.3636   15.7739 C   0  0  0  0  0  0  0  0  0  0  0  0
    5.9612   -8.3203   17.2732 N   0  0  0  0  0  0  0  0  0  0  0  0
    8.5296   -5.9814   17.1841 C   0  0  0  0  0  0  0  0  0  0  0  0
    9.1527   -5.2118   16.2116 C   0  0  0  0  0  0  0  0  0  0  0  0
   10.3364   -3.8368   22.9255 O   0  0  0  0  0  0  0  0  0  0  0  0
    9.6947   -4.8407   18.8534 C   0  0  0  0  0  0  0  0  0  0  0  0
    9.1596    1.7042   24.1381 C   0  0  0  0  0  0  0  0  0  0  0  0
   11.0456   -2.9774   18.2694 N   0  0  0  0  0  0  0  0  0  0  0  0
   10.4788   -3.0457   21.8593 C   0  0  0  0  0  0  0  0  0  0  0  0
    8.8693   -5.8099   18.4657 N   0  0  0  0  0  0  0  0  0  0  0  0
    8.9892   -0.7926   25.4573 C   0  0  0  0  0  0  0  0  0  0  0  0
   10.5677   -3.4462   20.5323 C   0  0  0  0  0  0  0  0  0  0  0  0
  1  8  1  0
  1 12  4  0
  1 14  4  0
  2  3  4  0
  2 18  4  0
  3 20  4  0
  3 22  4  0
  4 11  4  0
  4 21  4  0
  5  9  4  0
  5 16  4  0
  6 15  4  0
  6 16  4  0
  7 22  4  0
  7 26  4  0
  8 10  4  0
  8 25  4  0
  9 15  4  0
  9 17  1  0
 10 21  4  0
 11 25  4  0
 12 23  4  0
 13 20  4  0
 13 26  4  0
 14 19  4  0
 17 18  4  0
 17 24  4  0
 19 23  4  0
 20 24  4  0
 23 26  1  0
M  END
$$$$

 Created by Python create_sdf_string function

 26 30  0  0  0  0  0  0  0  0999 V2000
   10.0084   -1.8019   23.4945 C   0  0  0  0  0  0  0  0  0  0  0  0
   10.0005   -4.2520   16.5631 C   0  0  0  0  0  0  0  0  0  0  0  0
   10.2759   -4.0036   17.8845 C   0  0  0  0  0  0  0  0  0  0  0  0
    8.5652    1.5478   25.3778 N   0  0  0  0  0  0  0  0  0  0  0  0
    6.8048   -7.5457   17.8752 C   0  0  0  0  0  0  0  0  0  0  0  0
    6.1721   -8.2186   15.9886 N   0  0  0  0  0  0  0  0  0  0  0  0
   11.1764   -2.6600   19.5604 C   0  0  0  0  0  0  0  0  0  0  0  0
    9.5491   -0.6380   24.1912 C   0  0  0  0  0  0  0  0  0  0  0  0
    7.5337   -6.9256   16.9519 C   0  0  0  0  0  0  0  0  0  0  0  0
    9.6782    0.5671   23.5143 C   0  0  0  0  0  0  0  0  0  0  0  0
    8.4532    0.3482   26.0821 C   0  0  0  0  0  0  0  0  0  0  0  0
   10.4239   -1.7677   22.2230 N   0  0  0  0  0  0  0  0  0  0  0  0
    9.9468   -4.5953   20.1709 C   0  0  0  0  0  0  0  0  0  0  0  0
   10.0366   -3.0590   23.9864 N   0  0  0  0  0  0  0  0  0  0  0  0
    7.1191   -7.3636   15.7739 C   0  0  0  0  0  0  0  0  0  0  0  0
    5.9612   -8.3203   17.2732 N   0  0  0  0  0  0  0  0  0  0  0  0
    8.5296   -5.9814   17.1841 C   0  0  0  0  0  0  0  0  0  0  0  0
    9.1527   -5.2118   16.2116 C   0  0  0  0  0  0  0  0  0  0  0  0
   10.3364   -3.8368   22.9255 O   0  0  0  0  0  0  0  0  0  0  0  0
    9.6947   -4.8407   18.8534 C   0  0  0  0  0  0  0  0  0  0  0  0
    9.1596    1.7042   24.1381 C   0  0  0  0  0  0  0  0  0  0  0  0
   11.0456   -2.9774   18.2694 N   0  0  0  0  0  0  0  0  0  0  0  0
   10.4788   -3.0457   21.8593 C   0  0  0  0  0  0  0  0  0  0  0  0
    8.8693   -5.8099   18.4657 N   0  0  0  0  0  0  0  0  0  0  0  0
    8.9892   -0.7926   25.4573 C   0  0  0  0  0  0  0  0  0  0  0  0
   10.5677   -3.4462   20.5323 C   0  0  0  0  0  0  0  0  0  0  0  0
  1  8  1  0
  1 12  4  0
  1 14  4  0
  2  3  4  0
  2 18  4  0
  3 20  4  0
  3 22  4  0
  4 11  4  0
  4 21  4  0
  5  9  4  0
  5 16  4  0
  6 15  4  0
  6 16  4  0
  7 22  4  0
  7 26  4  0
  8 10  4  0
  8 25  4  0
  9 15  4  0
  9 17  1  0
 10 21  4  0
 11 25  4  0
 12 23  4  0
 13 20  4  0
 13 26  4  0
 14 19  4  0
 17 18  4  0
 17 24  4  0
 19 23  4  0
 20 24  4  0
 23 26  1  0
M  END
$$$$

 Created by Python create_sdf_string function

 26 30  0  0  0  0  0  0  0  0999 V2000
   10.0084   -1.8019   23.4945 C   0  0  0  0  0  0  0  0  0  0  0  0
   10.0005   -4.2520   16.5631 C   0  0  0  0  0  0  0  0  0  0  0  0
   10.2759   -4.0036   17.8845 C   0  0  0  0  0  0  0  0  0  0  0  0
    8.5652    1.5478   25.3778 N   0  0  0  0  0  0  0  0  0  0  0  0
    6.8048   -7.5457   17.8752 C   0  0  0  0  0  0  0  0  0  0  0  0
    6.1721   -8.2186   15.9886 N   0  0  0  0  0  0  0  0  0  0  0  0
   11.1764   -2.6600   19.5604 C   0  0  0  0  0  0  0  0  0  0  0  0
    9.5491   -0.6380   24.1912 C   0  0  0  0  0  0  0  0  0  0  0  0
    7.5337   -6.9256   16.9519 C   0  0  0  0  0  0  0  0  0  0  0  0
    9.6782    0.5671   23.5143 C   0  0  0  0  0  0  0  0  0  0  0  0
    8.4532    0.3482   26.0821 C   0  0  0  0  0  0  0  0  0  0  0  0
   10.4239   -1.7677   22.2230 N   0  0  0  0  0  0  0  0  0  0  0  0
    9.9468   -4.5953   20.1709 C   0  0  0  0  0  0  0  0  0  0  0  0
   10.0366   -3.0590   23.9864 N   0  0  0  0  0  0  0  0  0  0  0  0
    7.1191   -7.3636   15.7739 C   0  0  0  0  0  0  0  0  0  0  0  0
    5.9612   -8.3203   17.2732 N   0  0  0  0  0  0  0  0  0  0  0  0
    8.5296   -5.9814   17.1841 C   0  0  0  0  0  0  0  0  0  0  0  0
    9.1527   -5.2118   16.2116 C   0  0  0  0  0  0  0  0  0  0  0  0
   10.3364   -3.8368   22.9255 O   0  0  0  0  0  0  0  0  0  0  0  0
    9.6947   -4.8407   18.8534 C   0  0  0  0  0  0  0  0  0  0  0  0
    9.1596    1.7042   24.1381 C   0  0  0  0  0  0  0  0  0  0  0  0
   11.0456   -2.9774   18.2694 N   0  0  0  0  0  0  0  0  0  0  0  0
   10.4788   -3.0457   21.8593 C   0  0  0  0  0  0  0  0  0  0  0  0
    8.8693   -5.8099   18.4657 N   0  0  0  0  0  0  0  0  0  0  0  0
    8.9892   -0.7926   25.4573 C   0  0  0  0  0  0  0  0  0  0  0  0
   10.5677   -3.4462   20.5323 C   0  0  0  0  0  0  0  0  0  0  0  0
  1  8  1  0
  1 12  4  0
  1 14  4  0
  2  3  4  0
  2 18  4  0
  3 20  4  0
  3 22  4  0
  4 11  4  0
  4 21  4  0
  5  9  4  0
  5 16  4  0
  6 15  4  0
  6 16  4  0
  7 22  4  0
  7 26  4  0
  8 10  4  0
  8 25  4  0
  9 15  4  0
  9 17  1  0
 10 21  4  0
 11 25  4  0
 12 23  4  0
 13 20  4  0
 13 26  4  0
 14 19  4  0
 17 18  4  0
 17 24  4  0
 19 23  4  0
 20 24  4  0
 23 26  1  0
M  END
$$$$

 Created by Python create_sdf_string function

 26 30  0  0  0  0  0  0  0  0999 V2000
   10.0084   -1.8019   23.4945 C   0  0  0  0  0  0  0  0  0  0  0  0
   10.0005   -4.2520   16.5631 C   0  0  0  0  0  0  0  0  0  0  0  0
   10.2759   -4.0036   17.8845 C   0  0  0  0  0  0  0  0  0  0  0  0
    8.5652    1.5478   25.3778 N   0  0  0  0  0  0  0  0  0  0  0  0
    6.8048   -7.5457   17.8752 C   0  0  0  0  0  0  0  0  0  0  0  0
    6.1721   -8.2186   15.9886 N   0  0  0  0  0  0  0  0  0  0  0  0
   11.1764   -2.6600   19.5604 C   0  0  0  0  0  0  0  0  0  0  0  0
    9.5491   -0.6380   24.1912 C   0  0  0  0  0  0  0  0  0  0  0  0
    7.5337   -6.9256   16.9519 C   0  0  0  0  0  0  0  0  0  0  0  0
    9.6782    0.5671   23.5143 C   0  0  0  0  0  0  0  0  0  0  0  0
    8.4532    0.3482   26.0821 C   0  0  0  0  0  0  0  0  0  0  0  0
   10.4239   -1.7677   22.2230 N   0  0  0  0  0  0  0  0  0  0  0  0
    9.9468   -4.5953   20.1709 C   0  0  0  0  0  0  0  0  0  0  0  0
   10.0366   -3.0590   23.9864 N   0  0  0  0  0  0  0  0  0  0  0  0
    7.1191   -7.3636   15.7739 C   0  0  0  0  0  0  0  0  0  0  0  0
    5.9612   -8.3203   17.2732 N   0  0  0  0  0  0  0  0  0  0  0  0
    8.5296   -5.9814   17.1841 C   0  0  0  0  0  0  0  0  0  0  0  0
    9.1527   -5.2118   16.2116 C   0  0  0  0  0  0  0  0  0  0  0  0
   10.3364   -3.8368   22.9255 O   0  0  0  0  0  0  0  0  0  0  0  0
    9.6947   -4.8407   18.8534 C   0  0  0  0  0  0  0  0  0  0  0  0
    9.1596    1.7042   24.1381 C   0  0  0  0  0  0  0  0  0  0  0  0
   11.0456   -2.9774   18.2694 N   0  0  0  0  0  0  0  0  0  0  0  0
   10.4788   -3.0457   21.8593 C   0  0  0  0  0  0  0  0  0  0  0  0
    8.8693   -5.8099   18.4657 N   0  0  0  0  0  0  0  0  0  0  0  0
    8.9892   -0.7926   25.4573 C   0  0  0  0  0  0  0  0  0  0  0  0
   10.5677   -3.4462   20.5323 C   0  0  0  0  0  0  0  0  0  0  0  0
  1  8  1  0
  1 12  4  0
  1 14  4  0
  2  3  4  0
  2 18  4  0
  3 20  4  0
  3 22  4  0
  4 11  4  0
  4 21  4  0
  5  9  4  0
  5 16  4  0
  6 15  4  0
  6 16  4  0
  7 22  4  0
  7 26  4  0
  8 10  4  0
  8 25  4  0
  9 15  4  0
  9 17  1  0
 10 21  4  0
 11 25  4  0
 12 23  4  0
 13 20  4  0
 13 26  4  0
 14 19  4  0
 17 18  4  0
 17 24  4  0
 19 23  4  0
 20 24  4  0
 23 26  1  0
M  END
$$$$

 Created by Python create_sdf_string function

 26 30  0  0  0  0  0  0  0  0999 V2000
   10.0084   -1.8019   23.4945 C   0  0  0  0  0  0  0  0  0  0  0  0
   10.0005   -4.2520   16.5631 C   0  0  0  0  0  0  0  0  0  0  0  0
   10.2759   -4.0036   17.8845 C   0  0  0  0  0  0  0  0  0  0  0  0
    8.5652    1.5478   25.3778 N   0  0  0  0  0  0  0  0  0  0  0  0
    6.8048   -7.5457   17.8752 C   0  0  0  0  0  0  0  0  0  0  0  0
    6.1721   -8.2186   15.9886 N   0  0  0  0  0  0  0  0  0  0  0  0
   11.1764   -2.6600   19.5604 C   0  0  0  0  0  0  0  0  0  0  0  0
    9.5491   -0.6380   24.1912 C   0  0  0  0  0  0  0  0  0  0  0  0
    7.5337   -6.9256   16.9519 C   0  0  0  0  0  0  0  0  0  0  0  0
    9.6782    0.5671   23.5143 C   0  0  0  0  0  0  0  0  0  0  0  0
    8.4532    0.3482   26.0821 C   0  0  0  0  0  0  0  0  0  0  0  0
   10.4239   -1.7677   22.2230 N   0  0  0  0  0  0  0  0  0  0  0  0
    9.9468   -4.5953   20.1709 C   0  0  0  0  0  0  0  0  0  0  0  0
   10.0366   -3.0590   23.9864 N   0  0  0  0  0  0  0  0  0  0  0  0
    7.1191   -7.3636   15.7739 C   0  0  0  0  0  0  0  0  0  0  0  0
    5.9612   -8.3203   17.2732 N   0  0  0  0  0  0  0  0  0  0  0  0
    8.5296   -5.9814   17.1841 C   0  0  0  0  0  0  0  0  0  0  0  0
    9.1527   -5.2118   16.2116 C   0  0  0  0  0  0  0  0  0  0  0  0
   10.3364   -3.8368   22.9255 O   0  0  0  0  0  0  0  0  0  0  0  0
    9.6947   -4.8407   18.8534 C   0  0  0  0  0  0  0  0  0  0  0  0
    9.1596    1.7042   24.1381 C   0  0  0  0  0  0  0  0  0  0  0  0
   11.0456   -2.9774   18.2694 N   0  0  0  0  0  0  0  0  0  0  0  0
   10.4788   -3.0457   21.8593 C   0  0  0  0  0  0  0  0  0  0  0  0
    8.8693   -5.8099   18.4657 N   0  0  0  0  0  0  0  0  0  0  0  0
    8.9892   -0.7926   25.4573 C   0  0  0  0  0  0  0  0  0  0  0  0
   10.5677   -3.4462   20.5323 C   0  0  0  0  0  0  0  0  0  0  0  0
  1  8  1  0
  1 12  4  0
  1 14  4  0
  2  3  4  0
  2 18  4  0
  3 20  4  0
  3 22  4  0
  4 11  4  0
  4 21  4  0
  5  9  4  0
  5 16  4  0
  6 15  4  0
  6 16  4  0
  7 22  4  0
  7 26  4  0
  8 10  4  0
  8 25  4  0
  9 15  4  0
  9 17  1  0
 10 21  4  0
 11 25  4  0
 12 23  4  0
 13 20  4  0
 13 26  4  0
 14 19  4  0
 17 18  4  0
 17 24  4  0
 19 23  4  0
 20 24  4  0
 23 26  1  0
M  END
$$$$

 Created by Python create_sdf_string function

 26 30  0  0  0  0  0  0  0  0999 V2000
   10.0084   -1.8019   23.4945 C   0  0  0  0  0  0  0  0  0  0  0  0
   10.0005   -4.2520   16.5631 C   0  0  0  0  0  0  0  0  0  0  0  0
   10.2759   -4.0036   17.8845 C   0  0  0  0  0  0  0  0  0  0  0  0
    8.5652    1.5478   25.3778 N   0  0  0  0  0  0  0  0  0  0  0  0
    6.8048   -7.5457   17.8752 C   0  0  0  0  0  0  0  0  0  0  0  0
    6.1721   -8.2186   15.9886 N   0  0  0  0  0  0  0  0  0  0  0  0
   11.1764   -2.6600   19.5604 C   0  0  0  0  0  0  0  0  0  0  0  0
    9.5491   -0.6380   24.1912 C   0  0  0  0  0  0  0  0  0  0  0  0
    7.5337   -6.9256   16.9519 C   0  0  0  0  0  0  0  0  0  0  0  0
    9.6782    0.5671   23.5143 C   0  0  0  0  0  0  0  0  0  0  0  0
    8.4532    0.3482   26.0821 C   0  0  0  0  0  0  0  0  0  0  0  0
   10.4239   -1.7677   22.2230 N   0  0  0  0  0  0  0  0  0  0  0  0
    9.9468   -4.5953   20.1709 C   0  0  0  0  0  0  0  0  0  0  0  0
   10.0366   -3.0590   23.9864 N   0  0  0  0  0  0  0  0  0  0  0  0
    7.1191   -7.3636   15.7739 C   0  0  0  0  0  0  0  0  0  0  0  0
    5.9612   -8.3203   17.2732 N   0  0  0  0  0  0  0  0  0  0  0  0
    8.5296   -5.9814   17.1841 C   0  0  0  0  0  0  0  0  0  0  0  0
    9.1527   -5.2118   16.2116 C   0  0  0  0  0  0  0  0  0  0  0  0
   10.3364   -3.8368   22.9255 O   0  0  0  0  0  0  0  0  0  0  0  0
    9.6947   -4.8407   18.8534 C   0  0  0  0  0  0  0  0  0  0  0  0
    9.1596    1.7042   24.1381 C   0  0  0  0  0  0  0  0  0  0  0  0
   11.0456   -2.9774   18.2694 N   0  0  0  0  0  0  0  0  0  0  0  0
   10.4788   -3.0457   21.8593 C   0  0  0  0  0  0  0  0  0  0  0  0
    8.8693   -5.8099   18.4657 N   0  0  0  0  0  0  0  0  0  0  0  0
    8.9892   -0.7926   25.4573 C   0  0  0  0  0  0  0  0  0  0  0  0
   10.5677   -3.4462   20.5323 C   0  0  0  0  0  0  0  0  0  0  0  0
  1  8  1  0
  1 12  4  0
  1 14  4  0
  2  3  4  0
  2 18  4  0
  3 20  4  0
  3 22  4  0
  4 11  4  0
  4 21  4  0
  5  9  4  0
  5 16  4  0
  6 15  4  0
  6 16  4  0
  7 22  4  0
  7 26  4  0
  8 10  4  0
  8 25  4  0
  9 15  4  0
  9 17  1  0
 10 21  4  0
 11 25  4  0
 12 23  4  0
 13 20  4  0
 13 26  4  0
 14 19  4  0
 17 18  4  0
 17 24  4  0
 19 23  4  0
 20 24  4  0
 23 26  1  0
M  END
$$$$

 Created by Python create_sdf_string function

 26 30  0  0  0  0  0  0  0  0999 V2000
   10.0084   -1.8019   23.4945 C   0  0  0  0  0  0  0  0  0  0  0  0
   10.0005   -4.2520   16.5631 C   0  0  0  0  0  0  0  0  0  0  0  0
   10.2759   -4.0036   17.8845 C   0  0  0  0  0  0  0  0  0  0  0  0
    8.5652    1.5478   25.3778 N   0  0  0  0  0  0  0  0  0  0  0  0
    6.8048   -7.5457   17.8752 C   0  0  0  0  0  0  0  0  0  0  0  0
    6.1721   -8.2186   15.9886 N   0  0  0  0  0  0  0  0  0  0  0  0
   11.1764   -2.6600   19.5604 C   0  0  0  0  0  0  0  0  0  0  0  0
    9.5491   -0.6380   24.1912 C   0  0  0  0  0  0  0  0  0  0  0  0
    7.5337   -6.9256   16.9519 C   0  0  0  0  0  0  0  0  0  0  0  0
    9.6782    0.5671   23.5143 C   0  0  0  0  0  0  0  0  0  0  0  0
    8.4532    0.3482   26.0821 C   0  0  0  0  0  0  0  0  0  0  0  0
   10.4239   -1.7677   22.2230 N   0  0  0  0  0  0  0  0  0  0  0  0
    9.9468   -4.5953   20.1709 C   0  0  0  0  0  0  0  0  0  0  0  0
   10.0366   -3.0590   23.9864 N   0  0  0  0  0  0  0  0  0  0  0  0
    7.1191   -7.3636   15.7739 C   0  0  0  0  0  0  0  0  0  0  0  0
    5.9612   -8.3203   17.2732 N   0  0  0  0  0  0  0  0  0  0  0  0
    8.5296   -5.9814   17.1841 C   0  0  0  0  0  0  0  0  0  0  0  0
    9.1527   -5.2118   16.2116 C   0  0  0  0  0  0  0  0  0  0  0  0
   10.3364   -3.8368   22.9255 O   0  0  0  0  0  0  0  0  0  0  0  0
    9.6947   -4.8407   18.8534 C   0  0  0  0  0  0  0  0  0  0  0  0
    9.1596    1.7042   24.1381 C   0  0  0  0  0  0  0  0  0  0  0  0
   11.0456   -2.9774   18.2694 N   0  0  0  0  0  0  0  0  0  0  0  0
   10.4788   -3.0457   21.8593 C   0  0  0  0  0  0  0  0  0  0  0  0
    8.8693   -5.8099   18.4657 N   0  0  0  0  0  0  0  0  0  0  0  0
    8.9892   -0.7926   25.4573 C   0  0  0  0  0  0  0  0  0  0  0  0
   10.5677   -3.4462   20.5323 C   0  0  0  0  0  0  0  0  0  0  0  0
  1  8  1  0
  1 12  4  0
  1 14  4  0
  2  3  4  0
  2 18  4  0
  3 20  4  0
  3 22  4  0
  4 11  4  0
  4 21  4  0
  5  9  4  0
  5 16  4  0
  6 15  4  0
  6 16  4  0
  7 22  4  0
  7 26  4  0
  8 10  4  0
  8 25  4  0
  9 15  4  0
  9 17  1  0
 10 21  4  0
 11 25  4  0
 12 23  4  0
 13 20  4  0
 13 26  4  0
 14 19  4  0
 17 18  4  0
 17 24  4  0
 19 23  4  0
 20 24  4  0
 23 26  1  0
M  END
$$$$

 Created by Python create_sdf_string function

 26 30  0  0  0  0  0  0  0  0999 V2000
   10.0084   -1.8019   23.4945 C   0  0  0  0  0  0  0  0  0  0  0  0
   10.0005   -4.2520   16.5631 C   0  0  0  0  0  0  0  0  0  0  0  0
   10.2759   -4.0036   17.8845 C   0  0  0  0  0  0  0  0  0  0  0  0
    8.5652    1.5478   25.3778 N   0  0  0  0  0  0  0  0  0  0  0  0
    6.8048   -7.5457   17.8752 C   0  0  0  0  0  0  0  0  0  0  0  0
    6.1721   -8.2186   15.9886 N   0  0  0  0  0  0  0  0  0  0  0  0
   11.1764   -2.6600   19.5604 C   0  0  0  0  0  0  0  0  0  0  0  0
    9.5491   -0.6380   24.1912 C   0  0  0  0  0  0  0  0  0  0  0  0
    7.5337   -6.9256   16.9519 C   0  0  0  0  0  0  0  0  0  0  0  0
    9.6782    0.5671   23.5143 C   0  0  0  0  0  0  0  0  0  0  0  0
    8.4532    0.3482   26.0821 C   0  0  0  0  0  0  0  0  0  0  0  0
   10.4239   -1.7677   22.2230 N   0  0  0  0  0  0  0  0  0  0  0  0
    9.9468   -4.5953   20.1709 C   0  0  0  0  0  0  0  0  0  0  0  0
   10.0366   -3.0590   23.9864 N   0  0  0  0  0  0  0  0  0  0  0  0
    7.1191   -7.3636   15.7739 C   0  0  0  0  0  0  0  0  0  0  0  0
    5.9612   -8.3203   17.2732 N   0  0  0  0  0  0  0  0  0  0  0  0
    8.5296   -5.9814   17.1841 C   0  0  0  0  0  0  0  0  0  0  0  0
    9.1527   -5.2118   16.2116 C   0  0  0  0  0  0  0  0  0  0  0  0
   10.3364   -3.8368   22.9255 O   0  0  0  0  0  0  0  0  0  0  0  0
    9.6947   -4.8407   18.8534 C   0  0  0  0  0  0  0  0  0  0  0  0
    9.1596    1.7042   24.1381 C   0  0  0  0  0  0  0  0  0  0  0  0
   11.0456   -2.9774   18.2694 N   0  0  0  0  0  0  0  0  0  0  0  0
   10.4788   -3.0457   21.8593 C   0  0  0  0  0  0  0  0  0  0  0  0
    8.8693   -5.8099   18.4657 N   0  0  0  0  0  0  0  0  0  0  0  0
    8.9892   -0.7926   25.4573 C   0  0  0  0  0  0  0  0  0  0  0  0
   10.5677   -3.4462   20.5323 C   0  0  0  0  0  0  0  0  0  0  0  0
  1  8  1  0
  1 12  4  0
  1 14  4  0
  2  3  4  0
  2 18  4  0
  3 20  4  0
  3 22  4  0
  4 11  4  0
  4 21  4  0
  5  9  4  0
  5 16  4  0
  6 15  4  0
  6 16  4  0
  7 22  4  0
  7 26  4  0
  8 10  4  0
  8 25  4  0
  9 15  4  0
  9 17  1  0
 10 21  4  0
 11 25  4  0
 12 23  4  0
 13 20  4  0
 13 26  4  0
 14 19  4  0
 17 18  4  0
 17 24  4  0
 19 23  4  0
 20 24  4  0
 23 26  1  0
M  END
$$$$

 Created by Python create_sdf_string function

 26 30  0  0  0  0  0  0  0  0999 V2000
   10.0084   -1.8019   23.4945 C   0  0  0  0  0  0  0  0  0  0  0  0
   10.0005   -4.2520   16.5631 C   0  0  0  0  0  0  0  0  0  0  0  0
   10.2759   -4.0036   17.8845 C   0  0  0  0  0  0  0  0  0  0  0  0
    8.5652    1.5478   25.3778 N   0  0  0  0  0  0  0  0  0  0  0  0
    6.8048   -7.5457   17.8752 C   0  0  0  0  0  0  0  0  0  0  0  0
    6.1721   -8.2186   15.9886 N   0  0  0  0  0  0  0  0  0  0  0  0
   11.1764   -2.6600   19.5604 C   0  0  0  0  0  0  0  0  0  0  0  0
    9.5491   -0.6380   24.1912 C   0  0  0  0  0  0  0  0  0  0  0  0
    7.5337   -6.9256   16.9519 C   0  0  0  0  0  0  0  0  0  0  0  0
    9.6782    0.5671   23.5143 C   0  0  0  0  0  0  0  0  0  0  0  0
    8.4532    0.3482   26.0821 C   0  0  0  0  0  0  0  0  0  0  0  0
   10.4239   -1.7677   22.2230 N   0  0  0  0  0  0  0  0  0  0  0  0
    9.9468   -4.5953   20.1709 C   0  0  0  0  0  0  0  0  0  0  0  0
   10.0366   -3.0590   23.9864 N   0  0  0  0  0  0  0  0  0  0  0  0
    7.1191   -7.3636   15.7739 C   0  0  0  0  0  0  0  0  0  0  0  0
    5.9612   -8.3203   17.2732 N   0  0  0  0  0  0  0  0  0  0  0  0
    8.5296   -5.9814   17.1841 C   0  0  0  0  0  0  0  0  0  0  0  0
    9.1527   -5.2118   16.2116 C   0  0  0  0  0  0  0  0  0  0  0  0
   10.3364   -3.8368   22.9255 O   0  0  0  0  0  0  0  0  0  0  0  0
    9.6947   -4.8407   18.8534 C   0  0  0  0  0  0  0  0  0  0  0  0
    9.1596    1.7042   24.1381 C   0  0  0  0  0  0  0  0  0  0  0  0
   11.0456   -2.9774   18.2694 N   0  0  0  0  0  0  0  0  0  0  0  0
   10.4788   -3.0457   21.8593 C   0  0  0  0  0  0  0  0  0  0  0  0
    8.8693   -5.8099   18.4657 N   0  0  0  0  0  0  0  0  0  0  0  0
    8.9892   -0.7926   25.4573 C   0  0  0  0  0  0  0  0  0  0  0  0
   10.5677   -3.4462   20.5323 C   0  0  0  0  0  0  0  0  0  0  0  0
  1  8  1  0
  1 12  4  0
  1 14  4  0
  2  3  4  0
  2 18  4  0
  3 20  4  0
  3 22  4  0
  4 11  4  0
  4 21  4  0
  5  9  4  0
  5 16  4  0
  6 15  4  0
  6 16  4  0
  7 22  4  0
  7 26  4  0
  8 10  4  0
  8 25  4  0
  9 15  4  0
  9 17  1  0
 10 21  4  0
 11 25  4  0
 12 23  4  0
 13 20  4  0
 13 26  4  0
 14 19  4  0
 17 18  4  0
 17 24  4  0
 19 23  4  0
 20 24  4  0
 23 26  1  0
M  END
$$$$

 Created by Python create_sdf_string function

 26 30  0  0  0  0  0  0  0  0999 V2000
   10.0084   -1.8019   23.4945 C   0  0  0  0  0  0  0  0  0  0  0  0
   10.0005   -4.2520   16.5631 C   0  0  0  0  0  0  0  0  0  0  0  0
   10.2759   -4.0036   17.8845 C   0  0  0  0  0  0  0  0  0  0  0  0
    8.5652    1.5478   25.3778 N   0  0  0  0  0  0  0  0  0  0  0  0
    6.8048   -7.5457   17.8752 C   0  0  0  0  0  0  0  0  0  0  0  0
    6.1721   -8.2186   15.9886 N   0  0  0  0  0  0  0  0  0  0  0  0
   11.1764   -2.6600   19.5604 C   0  0  0  0  0  0  0  0  0  0  0  0
    9.5491   -0.6380   24.1912 C   0  0  0  0  0  0  0  0  0  0  0  0
    7.5337   -6.9256   16.9519 C   0  0  0  0  0  0  0  0  0  0  0  0
    9.6782    0.5671   23.5143 C   0  0  0  0  0  0  0  0  0  0  0  0
    8.4532    0.3482   26.0821 C   0  0  0  0  0  0  0  0  0  0  0  0
   10.4239   -1.7677   22.2230 N   0  0  0  0  0  0  0  0  0  0  0  0
    9.9468   -4.5953   20.1709 C   0  0  0  0  0  0  0  0  0  0  0  0
   10.0366   -3.0590   23.9864 N   0  0  0  0  0  0  0  0  0  0  0  0
    7.1191   -7.3636   15.7739 C   0  0  0  0  0  0  0  0  0  0  0  0
    5.9612   -8.3203   17.2732 N   0  0  0  0  0  0  0  0  0  0  0  0
    8.5296   -5.9814   17.1841 C   0  0  0  0  0  0  0  0  0  0  0  0
    9.1527   -5.2118   16.2116 C   0  0  0  0  0  0  0  0  0  0  0  0
   10.3364   -3.8368   22.9255 O   0  0  0  0  0  0  0  0  0  0  0  0
    9.6947   -4.8407   18.8534 C   0  0  0  0  0  0  0  0  0  0  0  0
    9.1596    1.7042   24.1381 C   0  0  0  0  0  0  0  0  0  0  0  0
   11.0456   -2.9774   18.2694 N   0  0  0  0  0  0  0  0  0  0  0  0
   10.4788   -3.0457   21.8593 C   0  0  0  0  0  0  0  0  0  0  0  0
    8.8693   -5.8099   18.4657 N   0  0  0  0  0  0  0  0  0  0  0  0
    8.9892   -0.7926   25.4573 C   0  0  0  0  0  0  0  0  0  0  0  0
   10.5677   -3.4462   20.5323 C   0  0  0  0  0  0  0  0  0  0  0  0
  1  8  1  0
  1 12  4  0
  1 14  4  0
  2  3  4  0
  2 18  4  0
  3 20  4  0
  3 22  4  0
  4 11  4  0
  4 21  4  0
  5  9  4  0
  5 16  4  0
  6 15  4  0
  6 16  4  0
  7 22  4  0
  7 26  4  0
  8 10  4  0
  8 25  4  0
  9 15  4  0
  9 17  1  0
 10 21  4  0
 11 25  4  0
 12 23  4  0
 13 20  4  0
 13 26  4  0
 14 19  4  0
 17 18  4  0
 17 24  4  0
 19 23  4  0
 20 24  4  0
 23 26  1  0
M  END
$$$$

 Created by Python create_sdf_string function

 26 30  0  0  0  0  0  0  0  0999 V2000
   10.0084   -1.8019   23.4945 C   0  0  0  0  0  0  0  0  0  0  0  0
   10.0005   -4.2520   16.5631 C   0  0  0  0  0  0  0  0  0  0  0  0
   10.2759   -4.0036   17.8845 C   0  0  0  0  0  0  0  0  0  0  0  0
    8.5652    1.5478   25.3778 N   0  0  0  0  0  0  0  0  0  0  0  0
    6.8048   -7.5457   17.8752 C   0  0  0  0  0  0  0  0  0  0  0  0
    6.1721   -8.2186   15.9886 N   0  0  0  0  0  0  0  0  0  0  0  0
   11.1764   -2.6600   19.5604 C   0  0  0  0  0  0  0  0  0  0  0  0
    9.5491   -0.6380   24.1912 C   0  0  0  0  0  0  0  0  0  0  0  0
    7.5337   -6.9256   16.9519 C   0  0  0  0  0  0  0  0  0  0  0  0
    9.6782    0.5671   23.5143 C   0  0  0  0  0  0  0  0  0  0  0  0
    8.4532    0.3482   26.0821 C   0  0  0  0  0  0  0  0  0  0  0  0
   10.4239   -1.7677   22.2230 N   0  0  0  0  0  0  0  0  0  0  0  0
    9.9468   -4.5953   20.1709 C   0  0  0  0  0  0  0  0  0  0  0  0
   10.0366   -3.0590   23.9864 N   0  0  0  0  0  0  0  0  0  0  0  0
    7.1191   -7.3636   15.7739 C   0  0  0  0  0  0  0  0  0  0  0  0
    5.9612   -8.3203   17.2732 N   0  0  0  0  0  0  0  0  0  0  0  0
    8.5296   -5.9814   17.1841 C   0  0  0  0  0  0  0  0  0  0  0  0
    9.1527   -5.2118   16.2116 C   0  0  0  0  0  0  0  0  0  0  0  0
   10.3364   -3.8368   22.9255 O   0  0  0  0  0  0  0  0  0  0  0  0
    9.6947   -4.8407   18.8534 C   0  0  0  0  0  0  0  0  0  0  0  0
    9.1596    1.7042   24.1381 C   0  0  0  0  0  0  0  0  0  0  0  0
   11.0456   -2.9774   18.2694 N   0  0  0  0  0  0  0  0  0  0  0  0
   10.4788   -3.0457   21.8593 C   0  0  0  0  0  0  0  0  0  0  0  0
    8.8693   -5.8099   18.4657 N   0  0  0  0  0  0  0  0  0  0  0  0
    8.9892   -0.7926   25.4573 C   0  0  0  0  0  0  0  0  0  0  0  0
   10.5677   -3.4462   20.5323 C   0  0  0  0  0  0  0  0  0  0  0  0
  1  8  1  0
  1 12  4  0
  1 14  4  0
  2  3  4  0
  2 18  4  0
  3 20  4  0
  3 22  4  0
  4 11  4  0
  4 21  4  0
  5  9  4  0
  5 16  4  0
  6 15  4  0
  6 16  4  0
  7 22  4  0
  7 26  4  0
  8 10  4  0
  8 25  4  0
  9 15  4  0
  9 17  1  0
 10 21  4  0
 11 25  4  0
 12 23  4  0
 13 20  4  0
 13 26  4  0
 14 19  4  0
 17 18  4  0
 17 24  4  0
 19 23  4  0
 20 24  4  0
 23 26  1  0
M  END
$$$$

 Created by Python create_sdf_string function

 26 30  0  0  0  0  0  0  0  0999 V2000
   10.0084   -1.8019   23.4945 C   0  0  0  0  0  0  0  0  0  0  0  0
   10.0005   -4.2520   16.5631 C   0  0  0  0  0  0  0  0  0  0  0  0
   10.2759   -4.0036   17.8845 C   0  0  0  0  0  0  0  0  0  0  0  0
    8.5652    1.5478   25.3778 N   0  0  0  0  0  0  0  0  0  0  0  0
    6.8048   -7.5457   17.8752 C   0  0  0  0  0  0  0  0  0  0  0  0
    6.1721   -8.2186   15.9886 N   0  0  0  0  0  0  0  0  0  0  0  0
   11.1764   -2.6600   19.5604 C   0  0  0  0  0  0  0  0  0  0  0  0
    9.5491   -0.6380   24.1912 C   0  0  0  0  0  0  0  0  0  0  0  0
    7.5337   -6.9256   16.9519 C   0  0  0  0  0  0  0  0  0  0  0  0
    9.6782    0.5671   23.5143 C   0  0  0  0  0  0  0  0  0  0  0  0
    8.4532    0.3482   26.0821 C   0  0  0  0  0  0  0  0  0  0  0  0
   10.4239   -1.7677   22.2230 N   0  0  0  0  0  0  0  0  0  0  0  0
    9.9468   -4.5953   20.1709 C   0  0  0  0  0  0  0  0  0  0  0  0
   10.0366   -3.0590   23.9864 N   0  0  0  0  0  0  0  0  0  0  0  0
    7.1191   -7.3636   15.7739 C   0  0  0  0  0  0  0  0  0  0  0  0
    5.9612   -8.3203   17.2732 N   0  0  0  0  0  0  0  0  0  0  0  0
    8.5296   -5.9814   17.1841 C   0  0  0  0  0  0  0  0  0  0  0  0
    9.1527   -5.2118   16.2116 C   0  0  0  0  0  0  0  0  0  0  0  0
   10.3364   -3.8368   22.9255 O   0  0  0  0  0  0  0  0  0  0  0  0
    9.6947   -4.8407   18.8534 C   0  0  0  0  0  0  0  0  0  0  0  0
    9.1596    1.7042   24.1381 C   0  0  0  0  0  0  0  0  0  0  0  0
   11.0456   -2.9774   18.2694 N   0  0  0  0  0  0  0  0  0  0  0  0
   10.4788   -3.0457   21.8593 C   0  0  0  0  0  0  0  0  0  0  0  0
    8.8693   -5.8099   18.4657 N   0  0  0  0  0  0  0  0  0  0  0  0
    8.9892   -0.7926   25.4573 C   0  0  0  0  0  0  0  0  0  0  0  0
   10.5677   -3.4462   20.5323 C   0  0  0  0  0  0  0  0  0  0  0  0
  1  8  1  0
  1 12  4  0
  1 14  4  0
  2  3  4  0
  2 18  4  0
  3 20  4  0
  3 22  4  0
  4 11  4  0
  4 21  4  0
  5  9  4  0
  5 16  4  0
  6 15  4  0
  6 16  4  0
  7 22  4  0
  7 26  4  0
  8 10  4  0
  8 25  4  0
  9 15  4  0
  9 17  1  0
 10 21  4  0
 11 25  4  0
 12 23  4  0
 13 20  4  0
 13 26  4  0
 14 19  4  0
 17 18  4  0
 17 24  4  0
 19 23  4  0
 20 24  4  0
 23 26  1  0
M  END
$$$$

 Created by Python create_sdf_string function

 26 30  0  0  0  0  0  0  0  0999 V2000
   10.0084   -1.8019   23.4945 C   0  0  0  0  0  0  0  0  0  0  0  0
   10.0005   -4.2520   16.5631 C   0  0  0  0  0  0  0  0  0  0  0  0
   10.2759   -4.0036   17.8845 C   0  0  0  0  0  0  0  0  0  0  0  0
    8.5652    1.5478   25.3778 N   0  0  0  0  0  0  0  0  0  0  0  0
    6.8048   -7.5457   17.8752 C   0  0  0  0  0  0  0  0  0  0  0  0
    6.1721   -8.2186   15.9886 N   0  0  0  0  0  0  0  0  0  0  0  0
   11.1764   -2.6600   19.5604 C   0  0  0  0  0  0  0  0  0  0  0  0
    9.5491   -0.6380   24.1912 C   0  0  0  0  0  0  0  0  0  0  0  0
    7.5337   -6.9256   16.9519 C   0  0  0  0  0  0  0  0  0  0  0  0
    9.6782    0.5671   23.5143 C   0  0  0  0  0  0  0  0  0  0  0  0
    8.4532    0.3482   26.0821 C   0  0  0  0  0  0  0  0  0  0  0  0
   10.4239   -1.7677   22.2230 N   0  0  0  0  0  0  0  0  0  0  0  0
    9.9468   -4.5953   20.1709 C   0  0  0  0  0  0  0  0  0  0  0  0
   10.0366   -3.0590   23.9864 N   0  0  0  0  0  0  0  0  0  0  0  0
    7.1191   -7.3636   15.7739 C   0  0  0  0  0  0  0  0  0  0  0  0
    5.9612   -8.3203   17.2732 N   0  0  0  0  0  0  0  0  0  0  0  0
    8.5296   -5.9814   17.1841 C   0  0  0  0  0  0  0  0  0  0  0  0
    9.1527   -5.2118   16.2116 C   0  0  0  0  0  0  0  0  0  0  0  0
   10.3364   -3.8368   22.9255 O   0  0  0  0  0  0  0  0  0  0  0  0
    9.6947   -4.8407   18.8534 C   0  0  0  0  0  0  0  0  0  0  0  0
    9.1596    1.7042   24.1381 C   0  0  0  0  0  0  0  0  0  0  0  0
   11.0456   -2.9774   18.2694 N   0  0  0  0  0  0  0  0  0  0  0  0
   10.4788   -3.0457   21.8593 C   0  0  0  0  0  0  0  0  0  0  0  0
    8.8693   -5.8099   18.4657 N   0  0  0  0  0  0  0  0  0  0  0  0
    8.9892   -0.7926   25.4573 C   0  0  0  0  0  0  0  0  0  0  0  0
   10.5677   -3.4462   20.5323 C   0  0  0  0  0  0  0  0  0  0  0  0
  1  8  1  0
  1 12  4  0
  1 14  4  0
  2  3  4  0
  2 18  4  0
  3 20  4  0
  3 22  4  0
  4 11  4  0
  4 21  4  0
  5  9  4  0
  5 16  4  0
  6 15  4  0
  6 16  4  0
  7 22  4  0
  7 26  4  0
  8 10  4  0
  8 25  4  0
  9 15  4  0
  9 17  1  0
 10 21  4  0
 11 25  4  0
 12 23  4  0
 13 20  4  0
 13 26  4  0
 14 19  4  0
 17 18  4  0
 17 24  4  0
 19 23  4  0
 20 24  4  0
 23 26  1  0
M  END
$$$$

 Created by Python create_sdf_string function

 26 30  0  0  0  0  0  0  0  0999 V2000
   10.0084   -1.8019   23.4945 C   0  0  0  0  0  0  0  0  0  0  0  0
   10.0005   -4.2520   16.5631 C   0  0  0  0  0  0  0  0  0  0  0  0
   10.2759   -4.0036   17.8845 C   0  0  0  0  0  0  0  0  0  0  0  0
    8.5652    1.5478   25.3778 N   0  0  0  0  0  0  0  0  0  0  0  0
    6.8048   -7.5457   17.8752 C   0  0  0  0  0  0  0  0  0  0  0  0
    6.1721   -8.2186   15.9886 N   0  0  0  0  0  0  0  0  0  0  0  0
   11.1764   -2.6600   19.5604 C   0  0  0  0  0  0  0  0  0  0  0  0
    9.5491   -0.6380   24.1912 C   0  0  0  0  0  0  0  0  0  0  0  0
    7.5337   -6.9256   16.9519 C   0  0  0  0  0  0  0  0  0  0  0  0
    9.6782    0.5671   23.5143 C   0  0  0  0  0  0  0  0  0  0  0  0
    8.4532    0.3482   26.0821 C   0  0  0  0  0  0  0  0  0  0  0  0
   10.4239   -1.7677   22.2230 N   0  0  0  0  0  0  0  0  0  0  0  0
    9.9468   -4.5953   20.1709 C   0  0  0  0  0  0  0  0  0  0  0  0
   10.0366   -3.0590   23.9864 N   0  0  0  0  0  0  0  0  0  0  0  0
    7.1191   -7.3636   15.7739 C   0  0  0  0  0  0  0  0  0  0  0  0
    5.9612   -8.3203   17.2732 N   0  0  0  0  0  0  0  0  0  0  0  0
    8.5296   -5.9814   17.1841 C   0  0  0  0  0  0  0  0  0  0  0  0
    9.1527   -5.2118   16.2116 C   0  0  0  0  0  0  0  0  0  0  0  0
   10.3364   -3.8368   22.9255 O   0  0  0  0  0  0  0  0  0  0  0  0
    9.6947   -4.8407   18.8534 C   0  0  0  0  0  0  0  0  0  0  0  0
    9.1596    1.7042   24.1381 C   0  0  0  0  0  0  0  0  0  0  0  0
   11.0456   -2.9774   18.2694 N   0  0  0  0  0  0  0  0  0  0  0  0
   10.4788   -3.0457   21.8593 C   0  0  0  0  0  0  0  0  0  0  0  0
    8.8693   -5.8099   18.4657 N   0  0  0  0  0  0  0  0  0  0  0  0
    8.9892   -0.7926   25.4573 C   0  0  0  0  0  0  0  0  0  0  0  0
   10.5677   -3.4462   20.5323 C   0  0  0  0  0  0  0  0  0  0  0  0
  1  8  1  0
  1 12  4  0
  1 14  4  0
  2  3  4  0
  2 18  4  0
  3 20  4  0
  3 22  4  0
  4 11  4  0
  4 21  4  0
  5  9  4  0
  5 16  4  0
  6 15  4  0
  6 16  4  0
  7 22  4  0
  7 26  4  0
  8 10  4  0
  8 25  4  0
  9 15  4  0
  9 17  1  0
 10 21  4  0
 11 25  4  0
 12 23  4  0
 13 20  4  0
 13 26  4  0
 14 19  4  0
 17 18  4  0
 17 24  4  0
 19 23  4  0
 20 24  4  0
 23 26  1  0
M  END
$$$$

 Created by Python create_sdf_string function

 26 30  0  0  0  0  0  0  0  0999 V2000
   10.0084   -1.8019   23.4945 C   0  0  0  0  0  0  0  0  0  0  0  0
   10.0005   -4.2520   16.5631 C   0  0  0  0  0  0  0  0  0  0  0  0
   10.2759   -4.0036   17.8845 C   0  0  0  0  0  0  0  0  0  0  0  0
    8.5652    1.5478   25.3778 N   0  0  0  0  0  0  0  0  0  0  0  0
    6.8048   -7.5457   17.8752 C   0  0  0  0  0  0  0  0  0  0  0  0
    6.1721   -8.2186   15.9886 N   0  0  0  0  0  0  0  0  0  0  0  0
   11.1764   -2.6600   19.5604 C   0  0  0  0  0  0  0  0  0  0  0  0
    9.5491   -0.6380   24.1912 C   0  0  0  0  0  0  0  0  0  0  0  0
    7.5337   -6.9256   16.9519 C   0  0  0  0  0  0  0  0  0  0  0  0
    9.6782    0.5671   23.5143 C   0  0  0  0  0  0  0  0  0  0  0  0
    8.4532    0.3482   26.0821 C   0  0  0  0  0  0  0  0  0  0  0  0
   10.4239   -1.7677   22.2230 N   0  0  0  0  0  0  0  0  0  0  0  0
    9.9468   -4.5953   20.1709 C   0  0  0  0  0  0  0  0  0  0  0  0
   10.0366   -3.0590   23.9864 N   0  0  0  0  0  0  0  0  0  0  0  0
    7.1191   -7.3636   15.7739 C   0  0  0  0  0  0  0  0  0  0  0  0
    5.9612   -8.3203   17.2732 N   0  0  0  0  0  0  0  0  0  0  0  0
    8.5296   -5.9814   17.1841 C   0  0  0  0  0  0  0  0  0  0  0  0
    9.1527   -5.2118   16.2116 C   0  0  0  0  0  0  0  0  0  0  0  0
   10.3364   -3.8368   22.9255 O   0  0  0  0  0  0  0  0  0  0  0  0
    9.6947   -4.8407   18.8534 C   0  0  0  0  0  0  0  0  0  0  0  0
    9.1596    1.7042   24.1381 C   0  0  0  0  0  0  0  0  0  0  0  0
   11.0456   -2.9774   18.2694 N   0  0  0  0  0  0  0  0  0  0  0  0
   10.4788   -3.0457   21.8593 C   0  0  0  0  0  0  0  0  0  0  0  0
    8.8693   -5.8099   18.4657 N   0  0  0  0  0  0  0  0  0  0  0  0
    8.9892   -0.7926   25.4573 C   0  0  0  0  0  0  0  0  0  0  0  0
   10.5677   -3.4462   20.5323 C   0  0  0  0  0  0  0  0  0  0  0  0
  1  8  1  0
  1 12  4  0
  1 14  4  0
  2  3  4  0
  2 18  4  0
  3 20  4  0
  3 22  4  0
  4 11  4  0
  4 21  4  0
  5  9  4  0
  5 16  4  0
  6 15  4  0
  6 16  4  0
  7 22  4  0
  7 26  4  0
  8 10  4  0
  8 25  4  0
  9 15  4  0
  9 17  1  0
 10 21  4  0
 11 25  4  0
 12 23  4  0
 13 20  4  0
 13 26  4  0
 14 19  4  0
 17 18  4  0
 17 24  4  0
 19 23  4  0
 20 24  4  0
 23 26  1  0
M  END
$$$$

 Created by Python create_sdf_string function

 26 30  0  0  0  0  0  0  0  0999 V2000
   10.0084   -1.8019   23.4945 C   0  0  0  0  0  0  0  0  0  0  0  0
   10.0005   -4.2520   16.5631 C   0  0  0  0  0  0  0  0  0  0  0  0
   10.2759   -4.0036   17.8845 C   0  0  0  0  0  0  0  0  0  0  0  0
    8.5652    1.5478   25.3778 N   0  0  0  0  0  0  0  0  0  0  0  0
    6.8048   -7.5457   17.8752 C   0  0  0  0  0  0  0  0  0  0  0  0
    6.1721   -8.2186   15.9886 N   0  0  0  0  0  0  0  0  0  0  0  0
   11.1764   -2.6600   19.5604 C   0  0  0  0  0  0  0  0  0  0  0  0
    9.5491   -0.6380   24.1912 C   0  0  0  0  0  0  0  0  0  0  0  0
    7.5337   -6.9256   16.9519 C   0  0  0  0  0  0  0  0  0  0  0  0
    9.6782    0.5671   23.5143 C   0  0  0  0  0  0  0  0  0  0  0  0
    8.4532    0.3482   26.0821 C   0  0  0  0  0  0  0  0  0  0  0  0
   10.4239   -1.7677   22.2230 N   0  0  0  0  0  0  0  0  0  0  0  0
    9.9468   -4.5953   20.1709 C   0  0  0  0  0  0  0  0  0  0  0  0
   10.0366   -3.0590   23.9864 N   0  0  0  0  0  0  0  0  0  0  0  0
    7.1191   -7.3636   15.7739 C   0  0  0  0  0  0  0  0  0  0  0  0
    5.9612   -8.3203   17.2732 N   0  0  0  0  0  0  0  0  0  0  0  0
    8.5296   -5.9814   17.1841 C   0  0  0  0  0  0  0  0  0  0  0  0
    9.1527   -5.2118   16.2116 C   0  0  0  0  0  0  0  0  0  0  0  0
   10.3364   -3.8368   22.9255 O   0  0  0  0  0  0  0  0  0  0  0  0
    9.6947   -4.8407   18.8534 C   0  0  0  0  0  0  0  0  0  0  0  0
    9.1596    1.7042   24.1381 C   0  0  0  0  0  0  0  0  0  0  0  0
   11.0456   -2.9774   18.2694 N   0  0  0  0  0  0  0  0  0  0  0  0
   10.4788   -3.0457   21.8593 C   0  0  0  0  0  0  0  0  0  0  0  0
    8.8693   -5.8099   18.4657 N   0  0  0  0  0  0  0  0  0  0  0  0
    8.9892   -0.7926   25.4573 C   0  0  0  0  0  0  0  0  0  0  0  0
   10.5677   -3.4462   20.5323 C   0  0  0  0  0  0  0  0  0  0  0  0
  1  8  1  0
  1 12  4  0
  1 14  4  0
  2  3  4  0
  2 18  4  0
  3 20  4  0
  3 22  4  0
  4 11  4  0
  4 21  4  0
  5  9  4  0
  5 16  4  0
  6 15  4  0
  6 16  4  0
  7 22  4  0
  7 26  4  0
  8 10  4  0
  8 25  4  0
  9 15  4  0
  9 17  1  0
 10 21  4  0
 11 25  4  0
 12 23  4  0
 13 20  4  0
 13 26  4  0
 14 19  4  0
 17 18  4  0
 17 24  4  0
 19 23  4  0
 20 24  4  0
 23 26  1  0
M  END
$$$$

 Created by Python create_sdf_string function

 26 30  0  0  0  0  0  0  0  0999 V2000
   10.0084   -1.8019   23.4945 C   0  0  0  0  0  0  0  0  0  0  0  0
   10.0005   -4.2520   16.5631 C   0  0  0  0  0  0  0  0  0  0  0  0
   10.2759   -4.0036   17.8845 C   0  0  0  0  0  0  0  0  0  0  0  0
    8.5652    1.5478   25.3778 N   0  0  0  0  0  0  0  0  0  0  0  0
    6.8048   -7.5457   17.8752 C   0  0  0  0  0  0  0  0  0  0  0  0
    6.1721   -8.2186   15.9886 N   0  0  0  0  0  0  0  0  0  0  0  0
   11.1764   -2.6600   19.5604 C   0  0  0  0  0  0  0  0  0  0  0  0
    9.5491   -0.6380   24.1912 C   0  0  0  0  0  0  0  0  0  0  0  0
    7.5337   -6.9256   16.9519 C   0  0  0  0  0  0  0  0  0  0  0  0
    9.6782    0.5671   23.5143 C   0  0  0  0  0  0  0  0  0  0  0  0
    8.4532    0.3482   26.0821 C   0  0  0  0  0  0  0  0  0  0  0  0
   10.4239   -1.7677   22.2230 N   0  0  0  0  0  0  0  0  0  0  0  0
    9.9468   -4.5953   20.1709 C   0  0  0  0  0  0  0  0  0  0  0  0
   10.0366   -3.0590   23.9864 N   0  0  0  0  0  0  0  0  0  0  0  0
    7.1191   -7.3636   15.7739 C   0  0  0  0  0  0  0  0  0  0  0  0
    5.9612   -8.3203   17.2732 N   0  0  0  0  0  0  0  0  0  0  0  0
    8.5296   -5.9814   17.1841 C   0  0  0  0  0  0  0  0  0  0  0  0
    9.1527   -5.2118   16.2116 C   0  0  0  0  0  0  0  0  0  0  0  0
   10.3364   -3.8368   22.9255 O   0  0  0  0  0  0  0  0  0  0  0  0
    9.6947   -4.8407   18.8534 C   0  0  0  0  0  0  0  0  0  0  0  0
    9.1596    1.7042   24.1381 C   0  0  0  0  0  0  0  0  0  0  0  0
   11.0456   -2.9774   18.2694 N   0  0  0  0  0  0  0  0  0  0  0  0
   10.4788   -3.0457   21.8593 C   0  0  0  0  0  0  0  0  0  0  0  0
    8.8693   -5.8099   18.4657 N   0  0  0  0  0  0  0  0  0  0  0  0
    8.9892   -0.7926   25.4573 C   0  0  0  0  0  0  0  0  0  0  0  0
   10.5677   -3.4462   20.5323 C   0  0  0  0  0  0  0  0  0  0  0  0
  1  8  1  0
  1 12  4  0
  1 14  4  0
  2  3  4  0
  2 18  4  0
  3 20  4  0
  3 22  4  0
  4 11  4  0
  4 21  4  0
  5  9  4  0
  5 16  4  0
  6 15  4  0
  6 16  4  0
  7 22  4  0
  7 26  4  0
  8 10  4  0
  8 25  4  0
  9 15  4  0
  9 17  1  0
 10 21  4  0
 11 25  4  0
 12 23  4  0
 13 20  4  0
 13 26  4  0
 14 19  4  0
 17 18  4  0
 17 24  4  0
 19 23  4  0
 20 24  4  0
 23 26  1  0
M  END
$$$$

 Created by Python create_sdf_string function

 26 30  0  0  0  0  0  0  0  0999 V2000
   10.0084   -1.8019   23.4945 C   0  0  0  0  0  0  0  0  0  0  0  0
   10.0005   -4.2520   16.5631 C   0  0  0  0  0  0  0  0  0  0  0  0
   10.2759   -4.0036   17.8845 C   0  0  0  0  0  0  0  0  0  0  0  0
    8.5652    1.5478   25.3778 N   0  0  0  0  0  0  0  0  0  0  0  0
    6.8048   -7.5457   17.8752 C   0  0  0  0  0  0  0  0  0  0  0  0
    6.1721   -8.2186   15.9886 N   0  0  0  0  0  0  0  0  0  0  0  0
   11.1764   -2.6600   19.5604 C   0  0  0  0  0  0  0  0  0  0  0  0
    9.5491   -0.6380   24.1912 C   0  0  0  0  0  0  0  0  0  0  0  0
    7.5337   -6.9256   16.9519 C   0  0  0  0  0  0  0  0  0  0  0  0
    9.6782    0.5671   23.5143 C   0  0  0  0  0  0  0  0  0  0  0  0
    8.4532    0.3482   26.0821 C   0  0  0  0  0  0  0  0  0  0  0  0
   10.4239   -1.7677   22.2230 N   0  0  0  0  0  0  0  0  0  0  0  0
    9.9468   -4.5953   20.1709 C   0  0  0  0  0  0  0  0  0  0  0  0
   10.0366   -3.0590   23.9864 N   0  0  0  0  0  0  0  0  0  0  0  0
    7.1191   -7.3636   15.7739 C   0  0  0  0  0  0  0  0  0  0  0  0
    5.9612   -8.3203   17.2732 N   0  0  0  0  0  0  0  0  0  0  0  0
    8.5296   -5.9814   17.1841 C   0  0  0  0  0  0  0  0  0  0  0  0
    9.1527   -5.2118   16.2116 C   0  0  0  0  0  0  0  0  0  0  0  0
   10.3364   -3.8368   22.9255 O   0  0  0  0  0  0  0  0  0  0  0  0
    9.6947   -4.8407   18.8534 C   0  0  0  0  0  0  0  0  0  0  0  0
    9.1596    1.7042   24.1381 C   0  0  0  0  0  0  0  0  0  0  0  0
   11.0456   -2.9774   18.2694 N   0  0  0  0  0  0  0  0  0  0  0  0
   10.4788   -3.0457   21.8593 C   0  0  0  0  0  0  0  0  0  0  0  0
    8.8693   -5.8099   18.4657 N   0  0  0  0  0  0  0  0  0  0  0  0
    8.9892   -0.7926   25.4573 C   0  0  0  0  0  0  0  0  0  0  0  0
   10.5677   -3.4462   20.5323 C   0  0  0  0  0  0  0  0  0  0  0  0
  1  8  1  0
  1 12  4  0
  1 14  4  0
  2  3  4  0
  2 18  4  0
  3 20  4  0
  3 22  4  0
  4 11  4  0
  4 21  4  0
  5  9  4  0
  5 16  4  0
  6 15  4  0
  6 16  4  0
  7 22  4  0
  7 26  4  0
  8 10  4  0
  8 25  4  0
  9 15  4  0
  9 17  1  0
 10 21  4  0
 11 25  4  0
 12 23  4  0
 13 20  4  0
 13 26  4  0
 14 19  4  0
 17 18  4  0
 17 24  4  0
 19 23  4  0
 20 24  4  0
 23 26  1  0
M  END
$$$$

 Created by Python create_sdf_string function

 26 30  0  0  0  0  0  0  0  0999 V2000
   10.0084   -1.8019   23.4945 C   0  0  0  0  0  0  0  0  0  0  0  0
   10.0005   -4.2520   16.5631 C   0  0  0  0  0  0  0  0  0  0  0  0
   10.2759   -4.0036   17.8845 C   0  0  0  0  0  0  0  0  0  0  0  0
    8.5652    1.5478   25.3778 N   0  0  0  0  0  0  0  0  0  0  0  0
    6.8048   -7.5457   17.8752 C   0  0  0  0  0  0  0  0  0  0  0  0
    6.1721   -8.2186   15.9886 N   0  0  0  0  0  0  0  0  0  0  0  0
   11.1764   -2.6600   19.5604 C   0  0  0  0  0  0  0  0  0  0  0  0
    9.5491   -0.6380   24.1912 C   0  0  0  0  0  0  0  0  0  0  0  0
    7.5337   -6.9256   16.9519 C   0  0  0  0  0  0  0  0  0  0  0  0
    9.6782    0.5671   23.5143 C   0  0  0  0  0  0  0  0  0  0  0  0
    8.4532    0.3482   26.0821 C   0  0  0  0  0  0  0  0  0  0  0  0
   10.4239   -1.7677   22.2230 N   0  0  0  0  0  0  0  0  0  0  0  0
    9.9468   -4.5953   20.1709 C   0  0  0  0  0  0  0  0  0  0  0  0
   10.0366   -3.0590   23.9864 N   0  0  0  0  0  0  0  0  0  0  0  0
    7.1191   -7.3636   15.7739 C   0  0  0  0  0  0  0  0  0  0  0  0
    5.9612   -8.3203   17.2732 N   0  0  0  0  0  0  0  0  0  0  0  0
    8.5296   -5.9814   17.1841 C   0  0  0  0  0  0  0  0  0  0  0  0
    9.1527   -5.2118   16.2116 C   0  0  0  0  0  0  0  0  0  0  0  0
   10.3364   -3.8368   22.9255 O   0  0  0  0  0  0  0  0  0  0  0  0
    9.6947   -4.8407   18.8534 C   0  0  0  0  0  0  0  0  0  0  0  0
    9.1596    1.7042   24.1381 C   0  0  0  0  0  0  0  0  0  0  0  0
   11.0456   -2.9774   18.2694 N   0  0  0  0  0  0  0  0  0  0  0  0
   10.4788   -3.0457   21.8593 C   0  0  0  0  0  0  0  0  0  0  0  0
    8.8693   -5.8099   18.4657 N   0  0  0  0  0  0  0  0  0  0  0  0
    8.9892   -0.7926   25.4573 C   0  0  0  0  0  0  0  0  0  0  0  0
   10.5677   -3.4462   20.5323 C   0  0  0  0  0  0  0  0  0  0  0  0
  1  8  1  0
  1 12  4  0
  1 14  4  0
  2  3  4  0
  2 18  4  0
  3 20  4  0
  3 22  4  0
  4 11  4  0
  4 21  4  0
  5  9  4  0
  5 16  4  0
  6 15  4  0
  6 16  4  0
  7 22  4  0
  7 26  4  0
  8 10  4  0
  8 25  4  0
  9 15  4  0
  9 17  1  0
 10 21  4  0
 11 25  4  0
 12 23  4  0
 13 20  4  0
 13 26  4  0
 14 19  4  0
 17 18  4  0
 17 24  4  0
 19 23  4  0
 20 24  4  0
 23 26  1  0
M  END
$$$$

 Created by Python create_sdf_string function

 26 30  0  0  0  0  0  0  0  0999 V2000
   10.0084   -1.8019   23.4945 C   0  0  0  0  0  0  0  0  0  0  0  0
   10.0005   -4.2520   16.5631 C   0  0  0  0  0  0  0  0  0  0  0  0
   10.2759   -4.0036   17.8845 C   0  0  0  0  0  0  0  0  0  0  0  0
    8.5652    1.5478   25.3778 N   0  0  0  0  0  0  0  0  0  0  0  0
    6.8048   -7.5457   17.8752 C   0  0  0  0  0  0  0  0  0  0  0  0
    6.1721   -8.2186   15.9886 N   0  0  0  0  0  0  0  0  0  0  0  0
   11.1764   -2.6600   19.5604 C   0  0  0  0  0  0  0  0  0  0  0  0
    9.5491   -0.6380   24.1912 C   0  0  0  0  0  0  0  0  0  0  0  0
    7.5337   -6.9256   16.9519 C   0  0  0  0  0  0  0  0  0  0  0  0
    9.6782    0.5671   23.5143 C   0  0  0  0  0  0  0  0  0  0  0  0
    8.4532    0.3482   26.0821 C   0  0  0  0  0  0  0  0  0  0  0  0
   10.4239   -1.7677   22.2230 N   0  0  0  0  0  0  0  0  0  0  0  0
    9.9468   -4.5953   20.1709 C   0  0  0  0  0  0  0  0  0  0  0  0
   10.0366   -3.0590   23.9864 N   0  0  0  0  0  0  0  0  0  0  0  0
    7.1191   -7.3636   15.7739 C   0  0  0  0  0  0  0  0  0  0  0  0
    5.9612   -8.3203   17.2732 N   0  0  0  0  0  0  0  0  0  0  0  0
    8.5296   -5.9814   17.1841 C   0  0  0  0  0  0  0  0  0  0  0  0
    9.1527   -5.2118   16.2116 C   0  0  0  0  0  0  0  0  0  0  0  0
   10.3364   -3.8368   22.9255 O   0  0  0  0  0  0  0  0  0  0  0  0
    9.6947   -4.8407   18.8534 C   0  0  0  0  0  0  0  0  0  0  0  0
    9.1596    1.7042   24.1381 C   0  0  0  0  0  0  0  0  0  0  0  0
   11.0456   -2.9774   18.2694 N   0  0  0  0  0  0  0  0  0  0  0  0
   10.4788   -3.0457   21.8593 C   0  0  0  0  0  0  0  0  0  0  0  0
    8.8693   -5.8099   18.4657 N   0  0  0  0  0  0  0  0  0  0  0  0
    8.9892   -0.7926   25.4573 C   0  0  0  0  0  0  0  0  0  0  0  0
   10.5677   -3.4462   20.5323 C   0  0  0  0  0  0  0  0  0  0  0  0
  1  8  1  0
  1 12  4  0
  1 14  4  0
  2  3  4  0
  2 18  4  0
  3 20  4  0
  3 22  4  0
  4 11  4  0
  4 21  4  0
  5  9  4  0
  5 16  4  0
  6 15  4  0
  6 16  4  0
  7 22  4  0
  7 26  4  0
  8 10  4  0
  8 25  4  0
  9 15  4  0
  9 17  1  0
 10 21  4  0
 11 25  4  0
 12 23  4  0
 13 20  4  0
 13 26  4  0
 14 19  4  0
 17 18  4  0
 17 24  4  0
 19 23  4  0
 20 24  4  0
 23 26  1  0
M  END
$$$$

 Created by Python create_sdf_string function

 26 30  0  0  0  0  0  0  0  0999 V2000
   10.0084   -1.8019   23.4945 C   0  0  0  0  0  0  0  0  0  0  0  0
   10.0005   -4.2520   16.5631 C   0  0  0  0  0  0  0  0  0  0  0  0
   10.2759   -4.0036   17.8845 C   0  0  0  0  0  0  0  0  0  0  0  0
    8.5652    1.5478   25.3778 N   0  0  0  0  0  0  0  0  0  0  0  0
    6.8048   -7.5457   17.8752 C   0  0  0  0  0  0  0  0  0  0  0  0
    6.1721   -8.2186   15.9886 N   0  0  0  0  0  0  0  0  0  0  0  0
   11.1764   -2.6600   19.5604 C   0  0  0  0  0  0  0  0  0  0  0  0
    9.5491   -0.6380   24.1912 C   0  0  0  0  0  0  0  0  0  0  0  0
    7.5337   -6.9256   16.9519 C   0  0  0  0  0  0  0  0  0  0  0  0
    9.6782    0.5671   23.5143 C   0  0  0  0  0  0  0  0  0  0  0  0
    8.4532    0.3482   26.0821 C   0  0  0  0  0  0  0  0  0  0  0  0
   10.4239   -1.7677   22.2230 N   0  0  0  0  0  0  0  0  0  0  0  0
    9.9468   -4.5953   20.1709 C   0  0  0  0  0  0  0  0  0  0  0  0
   10.0366   -3.0590   23.9864 N   0  0  0  0  0  0  0  0  0  0  0  0
    7.1191   -7.3636   15.7739 C   0  0  0  0  0  0  0  0  0  0  0  0
    5.9612   -8.3203   17.2732 N   0  0  0  0  0  0  0  0  0  0  0  0
    8.5296   -5.9814   17.1841 C   0  0  0  0  0  0  0  0  0  0  0  0
    9.1527   -5.2118   16.2116 C   0  0  0  0  0  0  0  0  0  0  0  0
   10.3364   -3.8368   22.9255 O   0  0  0  0  0  0  0  0  0  0  0  0
    9.6947   -4.8407   18.8534 C   0  0  0  0  0  0  0  0  0  0  0  0
    9.1596    1.7042   24.1381 C   0  0  0  0  0  0  0  0  0  0  0  0
   11.0456   -2.9774   18.2694 N   0  0  0  0  0  0  0  0  0  0  0  0
   10.4788   -3.0457   21.8593 C   0  0  0  0  0  0  0  0  0  0  0  0
    8.8693   -5.8099   18.4657 N   0  0  0  0  0  0  0  0  0  0  0  0
    8.9892   -0.7926   25.4573 C   0  0  0  0  0  0  0  0  0  0  0  0
   10.5677   -3.4462   20.5323 C   0  0  0  0  0  0  0  0  0  0  0  0
  1  8  1  0
  1 12  4  0
  1 14  4  0
  2  3  4  0
  2 18  4  0
  3 20  4  0
  3 22  4  0
  4 11  4  0
  4 21  4  0
  5  9  4  0
  5 16  4  0
  6 15  4  0
  6 16  4  0
  7 22  4  0
  7 26  4  0
  8 10  4  0
  8 25  4  0
  9 15  4  0
  9 17  1  0
 10 21  4  0
 11 25  4  0
 12 23  4  0
 13 20  4  0
 13 26  4  0
 14 19  4  0
 17 18  4  0
 17 24  4  0
 19 23  4  0
 20 24  4  0
 23 26  1  0
M  END
$$$$

 Created by Python create_sdf_string function

 26 30  0  0  0  0  0  0  0  0999 V2000
   10.0084   -1.8019   23.4945 C   0  0  0  0  0  0  0  0  0  0  0  0
   10.0005   -4.2520   16.5631 C   0  0  0  0  0  0  0  0  0  0  0  0
   10.2759   -4.0036   17.8845 C   0  0  0  0  0  0  0  0  0  0  0  0
    8.5652    1.5478   25.3778 N   0  0  0  0  0  0  0  0  0  0  0  0
    6.8048   -7.5457   17.8752 C   0  0  0  0  0  0  0  0  0  0  0  0
    6.1721   -8.2186   15.9886 N   0  0  0  0  0  0  0  0  0  0  0  0
   11.1764   -2.6600   19.5604 C   0  0  0  0  0  0  0  0  0  0  0  0
    9.5491   -0.6380   24.1912 C   0  0  0  0  0  0  0  0  0  0  0  0
    7.5337   -6.9256   16.9519 C   0  0  0  0  0  0  0  0  0  0  0  0
    9.6782    0.5671   23.5143 C   0  0  0  0  0  0  0  0  0  0  0  0
    8.4532    0.3482   26.0821 C   0  0  0  0  0  0  0  0  0  0  0  0
   10.4239   -1.7677   22.2230 N   0  0  0  0  0  0  0  0  0  0  0  0
    9.9468   -4.5953   20.1709 C   0  0  0  0  0  0  0  0  0  0  0  0
   10.0366   -3.0590   23.9864 N   0  0  0  0  0  0  0  0  0  0  0  0
    7.1191   -7.3636   15.7739 C   0  0  0  0  0  0  0  0  0  0  0  0
    5.9612   -8.3203   17.2732 N   0  0  0  0  0  0  0  0  0  0  0  0
    8.5296   -5.9814   17.1841 C   0  0  0  0  0  0  0  0  0  0  0  0
    9.1527   -5.2118   16.2116 C   0  0  0  0  0  0  0  0  0  0  0  0
   10.3364   -3.8368   22.9255 O   0  0  0  0  0  0  0  0  0  0  0  0
    9.6947   -4.8407   18.8534 C   0  0  0  0  0  0  0  0  0  0  0  0
    9.1596    1.7042   24.1381 C   0  0  0  0  0  0  0  0  0  0  0  0
   11.0456   -2.9774   18.2694 N   0  0  0  0  0  0  0  0  0  0  0  0
   10.4788   -3.0457   21.8593 C   0  0  0  0  0  0  0  0  0  0  0  0
    8.8693   -5.8099   18.4657 N   0  0  0  0  0  0  0  0  0  0  0  0
    8.9892   -0.7926   25.4573 C   0  0  0  0  0  0  0  0  0  0  0  0
   10.5677   -3.4462   20.5323 C   0  0  0  0  0  0  0  0  0  0  0  0
  1  8  1  0
  1 12  4  0
  1 14  4  0
  2  3  4  0
  2 18  4  0
  3 20  4  0
  3 22  4  0
  4 11  4  0
  4 21  4  0
  5  9  4  0
  5 16  4  0
  6 15  4  0
  6 16  4  0
  7 22  4  0
  7 26  4  0
  8 10  4  0
  8 25  4  0
  9 15  4  0
  9 17  1  0
 10 21  4  0
 11 25  4  0
 12 23  4  0
 13 20  4  0
 13 26  4  0
 14 19  4  0
 17 18  4  0
 17 24  4  0
 19 23  4  0
 20 24  4  0
 23 26  1  0
M  END
$$$$

 Created by Python create_sdf_string function

 26 30  0  0  0  0  0  0  0  0999 V2000
   10.0084   -1.8019   23.4945 C   0  0  0  0  0  0  0  0  0  0  0  0
   10.0005   -4.2520   16.5631 C   0  0  0  0  0  0  0  0  0  0  0  0
   10.2759   -4.0036   17.8845 C   0  0  0  0  0  0  0  0  0  0  0  0
    8.5652    1.5478   25.3778 N   0  0  0  0  0  0  0  0  0  0  0  0
    6.8048   -7.5457   17.8752 C   0  0  0  0  0  0  0  0  0  0  0  0
    6.1721   -8.2186   15.9886 N   0  0  0  0  0  0  0  0  0  0  0  0
   11.1764   -2.6600   19.5604 C   0  0  0  0  0  0  0  0  0  0  0  0
    9.5491   -0.6380   24.1912 C   0  0  0  0  0  0  0  0  0  0  0  0
    7.5337   -6.9256   16.9519 C   0  0  0  0  0  0  0  0  0  0  0  0
    9.6782    0.5671   23.5143 C   0  0  0  0  0  0  0  0  0  0  0  0
    8.4532    0.3482   26.0821 C   0  0  0  0  0  0  0  0  0  0  0  0
   10.4239   -1.7677   22.2230 N   0  0  0  0  0  0  0  0  0  0  0  0
    9.9468   -4.5953   20.1709 C   0  0  0  0  0  0  0  0  0  0  0  0
   10.0366   -3.0590   23.9864 N   0  0  0  0  0  0  0  0  0  0  0  0
    7.1191   -7.3636   15.7739 C   0  0  0  0  0  0  0  0  0  0  0  0
    5.9612   -8.3203   17.2732 N   0  0  0  0  0  0  0  0  0  0  0  0
    8.5296   -5.9814   17.1841 C   0  0  0  0  0  0  0  0  0  0  0  0
    9.1527   -5.2118   16.2116 C   0  0  0  0  0  0  0  0  0  0  0  0
   10.3364   -3.8368   22.9255 O   0  0  0  0  0  0  0  0  0  0  0  0
    9.6947   -4.8407   18.8534 C   0  0  0  0  0  0  0  0  0  0  0  0
    9.1596    1.7042   24.1381 C   0  0  0  0  0  0  0  0  0  0  0  0
   11.0456   -2.9774   18.2694 N   0  0  0  0  0  0  0  0  0  0  0  0
   10.4788   -3.0457   21.8593 C   0  0  0  0  0  0  0  0  0  0  0  0
    8.8693   -5.8099   18.4657 N   0  0  0  0  0  0  0  0  0  0  0  0
    8.9892   -0.7926   25.4573 C   0  0  0  0  0  0  0  0  0  0  0  0
   10.5677   -3.4462   20.5323 C   0  0  0  0  0  0  0  0  0  0  0  0
  1  8  1  0
  1 12  4  0
  1 14  4  0
  2  3  4  0
  2 18  4  0
  3 20  4  0
  3 22  4  0
  4 11  4  0
  4 21  4  0
  5  9  4  0
  5 16  4  0
  6 15  4  0
  6 16  4  0
  7 22  4  0
  7 26  4  0
  8 10  4  0
  8 25  4  0
  9 15  4  0
  9 17  1  0
 10 21  4  0
 11 25  4  0
 12 23  4  0
 13 20  4  0
 13 26  4  0
 14 19  4  0
 17 18  4  0
 17 24  4  0
 19 23  4  0
 20 24  4  0
 23 26  1  0
M  END
$$$$

 Created by Python create_sdf_string function

 26 30  0  0  0  0  0  0  0  0999 V2000
   10.0084   -1.8019   23.4945 C   0  0  0  0  0  0  0  0  0  0  0  0
   10.0005   -4.2520   16.5631 C   0  0  0  0  0  0  0  0  0  0  0  0
   10.2759   -4.0036   17.8845 C   0  0  0  0  0  0  0  0  0  0  0  0
    8.5652    1.5478   25.3778 N   0  0  0  0  0  0  0  0  0  0  0  0
    6.8048   -7.5457   17.8752 C   0  0  0  0  0  0  0  0  0  0  0  0
    6.1721   -8.2186   15.9886 N   0  0  0  0  0  0  0  0  0  0  0  0
   11.1764   -2.6600   19.5604 C   0  0  0  0  0  0  0  0  0  0  0  0
    9.5491   -0.6380   24.1912 C   0  0  0  0  0  0  0  0  0  0  0  0
    7.5337   -6.9256   16.9519 C   0  0  0  0  0  0  0  0  0  0  0  0
    9.6782    0.5671   23.5143 C   0  0  0  0  0  0  0  0  0  0  0  0
    8.4532    0.3482   26.0821 C   0  0  0  0  0  0  0  0  0  0  0  0
   10.4239   -1.7677   22.2230 N   0  0  0  0  0  0  0  0  0  0  0  0
    9.9468   -4.5953   20.1709 C   0  0  0  0  0  0  0  0  0  0  0  0
   10.0366   -3.0590   23.9864 N   0  0  0  0  0  0  0  0  0  0  0  0
    7.1191   -7.3636   15.7739 C   0  0  0  0  0  0  0  0  0  0  0  0
    5.9612   -8.3203   17.2732 N   0  0  0  0  0  0  0  0  0  0  0  0
    8.5296   -5.9814   17.1841 C   0  0  0  0  0  0  0  0  0  0  0  0
    9.1527   -5.2118   16.2116 C   0  0  0  0  0  0  0  0  0  0  0  0
   10.3364   -3.8368   22.9255 O   0  0  0  0  0  0  0  0  0  0  0  0
    9.6947   -4.8407   18.8534 C   0  0  0  0  0  0  0  0  0  0  0  0
    9.1596    1.7042   24.1381 C   0  0  0  0  0  0  0  0  0  0  0  0
   11.0456   -2.9774   18.2694 N   0  0  0  0  0  0  0  0  0  0  0  0
   10.4788   -3.0457   21.8593 C   0  0  0  0  0  0  0  0  0  0  0  0
    8.8693   -5.8099   18.4657 N   0  0  0  0  0  0  0  0  0  0  0  0
    8.9892   -0.7926   25.4573 C   0  0  0  0  0  0  0  0  0  0  0  0
   10.5677   -3.4462   20.5323 C   0  0  0  0  0  0  0  0  0  0  0  0
  1  8  1  0
  1 12  4  0
  1 14  4  0
  2  3  4  0
  2 18  4  0
  3 20  4  0
  3 22  4  0
  4 11  4  0
  4 21  4  0
  5  9  4  0
  5 16  4  0
  6 15  4  0
  6 16  4  0
  7 22  4  0
  7 26  4  0
  8 10  4  0
  8 25  4  0
  9 15  4  0
  9 17  1  0
 10 21  4  0
 11 25  4  0
 12 23  4  0
 13 20  4  0
 13 26  4  0
 14 19  4  0
 17 18  4  0
 17 24  4  0
 19 23  4  0
 20 24  4  0
 23 26  1  0
M  END
$$$$

 Created by Python create_sdf_string function

 26 30  0  0  0  0  0  0  0  0999 V2000
   10.0084   -1.8019   23.4945 C   0  0  0  0  0  0  0  0  0  0  0  0
   10.0005   -4.2520   16.5631 C   0  0  0  0  0  0  0  0  0  0  0  0
   10.2759   -4.0036   17.8845 C   0  0  0  0  0  0  0  0  0  0  0  0
    8.5652    1.5478   25.3778 N   0  0  0  0  0  0  0  0  0  0  0  0
    6.8048   -7.5457   17.8752 C   0  0  0  0  0  0  0  0  0  0  0  0
    6.1721   -8.2186   15.9886 N   0  0  0  0  0  0  0  0  0  0  0  0
   11.1764   -2.6600   19.5604 C   0  0  0  0  0  0  0  0  0  0  0  0
    9.5491   -0.6380   24.1912 C   0  0  0  0  0  0  0  0  0  0  0  0
    7.5337   -6.9256   16.9519 C   0  0  0  0  0  0  0  0  0  0  0  0
    9.6782    0.5671   23.5143 C   0  0  0  0  0  0  0  0  0  0  0  0
    8.4532    0.3482   26.0821 C   0  0  0  0  0  0  0  0  0  0  0  0
   10.4239   -1.7677   22.2230 N   0  0  0  0  0  0  0  0  0  0  0  0
    9.9468   -4.5953   20.1709 C   0  0  0  0  0  0  0  0  0  0  0  0
   10.0366   -3.0590   23.9864 N   0  0  0  0  0  0  0  0  0  0  0  0
    7.1191   -7.3636   15.7739 C   0  0  0  0  0  0  0  0  0  0  0  0
    5.9612   -8.3203   17.2732 N   0  0  0  0  0  0  0  0  0  0  0  0
    8.5296   -5.9814   17.1841 C   0  0  0  0  0  0  0  0  0  0  0  0
    9.1527   -5.2118   16.2116 C   0  0  0  0  0  0  0  0  0  0  0  0
   10.3364   -3.8368   22.9255 O   0  0  0  0  0  0  0  0  0  0  0  0
    9.6947   -4.8407   18.8534 C   0  0  0  0  0  0  0  0  0  0  0  0
    9.1596    1.7042   24.1381 C   0  0  0  0  0  0  0  0  0  0  0  0
   11.0456   -2.9774   18.2694 N   0  0  0  0  0  0  0  0  0  0  0  0
   10.4788   -3.0457   21.8593 C   0  0  0  0  0  0  0  0  0  0  0  0
    8.8693   -5.8099   18.4657 N   0  0  0  0  0  0  0  0  0  0  0  0
    8.9892   -0.7926   25.4573 C   0  0  0  0  0  0  0  0  0  0  0  0
   10.5677   -3.4462   20.5323 C   0  0  0  0  0  0  0  0  0  0  0  0
  1  8  1  0
  1 12  4  0
  1 14  4  0
  2  3  4  0
  2 18  4  0
  3 20  4  0
  3 22  4  0
  4 11  4  0
  4 21  4  0
  5  9  4  0
  5 16  4  0
  6 15  4  0
  6 16  4  0
  7 22  4  0
  7 26  4  0
  8 10  4  0
  8 25  4  0
  9 15  4  0
  9 17  1  0
 10 21  4  0
 11 25  4  0
 12 23  4  0
 13 20  4  0
 13 26  4  0
 14 19  4  0
 17 18  4  0
 17 24  4  0
 19 23  4  0
 20 24  4  0
 23 26  1  0
M  END
$$$$

 Created by Python create_sdf_string function

 26 30  0  0  0  0  0  0  0  0999 V2000
   10.0084   -1.8019   23.4945 C   0  0  0  0  0  0  0  0  0  0  0  0
   10.0005   -4.2520   16.5631 C   0  0  0  0  0  0  0  0  0  0  0  0
   10.2759   -4.0036   17.8845 C   0  0  0  0  0  0  0  0  0  0  0  0
    8.5652    1.5478   25.3778 N   0  0  0  0  0  0  0  0  0  0  0  0
    6.8048   -7.5457   17.8752 C   0  0  0  0  0  0  0  0  0  0  0  0
    6.1721   -8.2186   15.9886 N   0  0  0  0  0  0  0  0  0  0  0  0
   11.1764   -2.6600   19.5604 C   0  0  0  0  0  0  0  0  0  0  0  0
    9.5491   -0.6380   24.1912 C   0  0  0  0  0  0  0  0  0  0  0  0
    7.5337   -6.9256   16.9519 C   0  0  0  0  0  0  0  0  0  0  0  0
    9.6782    0.5671   23.5143 C   0  0  0  0  0  0  0  0  0  0  0  0
    8.4532    0.3482   26.0821 C   0  0  0  0  0  0  0  0  0  0  0  0
   10.4239   -1.7677   22.2230 N   0  0  0  0  0  0  0  0  0  0  0  0
    9.9468   -4.5953   20.1709 C   0  0  0  0  0  0  0  0  0  0  0  0
   10.0366   -3.0590   23.9864 N   0  0  0  0  0  0  0  0  0  0  0  0
    7.1191   -7.3636   15.7739 C   0  0  0  0  0  0  0  0  0  0  0  0
    5.9612   -8.3203   17.2732 N   0  0  0  0  0  0  0  0  0  0  0  0
    8.5296   -5.9814   17.1841 C   0  0  0  0  0  0  0  0  0  0  0  0
    9.1527   -5.2118   16.2116 C   0  0  0  0  0  0  0  0  0  0  0  0
   10.3364   -3.8368   22.9255 O   0  0  0  0  0  0  0  0  0  0  0  0
    9.6947   -4.8407   18.8534 C   0  0  0  0  0  0  0  0  0  0  0  0
    9.1596    1.7042   24.1381 C   0  0  0  0  0  0  0  0  0  0  0  0
   11.0456   -2.9774   18.2694 N   0  0  0  0  0  0  0  0  0  0  0  0
   10.4788   -3.0457   21.8593 C   0  0  0  0  0  0  0  0  0  0  0  0
    8.8693   -5.8099   18.4657 N   0  0  0  0  0  0  0  0  0  0  0  0
    8.9892   -0.7926   25.4573 C   0  0  0  0  0  0  0  0  0  0  0  0
   10.5677   -3.4462   20.5323 C   0  0  0  0  0  0  0  0  0  0  0  0
  1  8  1  0
  1 12  4  0
  1 14  4  0
  2  3  4  0
  2 18  4  0
  3 20  4  0
  3 22  4  0
  4 11  4  0
  4 21  4  0
  5  9  4  0
  5 16  4  0
  6 15  4  0
  6 16  4  0
  7 22  4  0
  7 26  4  0
  8 10  4  0
  8 25  4  0
  9 15  4  0
  9 17  1  0
 10 21  4  0
 11 25  4  0
 12 23  4  0
 13 20  4  0
 13 26  4  0
 14 19  4  0
 17 18  4  0
 17 24  4  0
 19 23  4  0
 20 24  4  0
 23 26  1  0
M  END
$$$$

 Created by Python create_sdf_string function

 26 30  0  0  0  0  0  0  0  0999 V2000
   10.0084   -1.8019   23.4945 C   0  0  0  0  0  0  0  0  0  0  0  0
   10.0005   -4.2520   16.5631 C   0  0  0  0  0  0  0  0  0  0  0  0
   10.2759   -4.0036   17.8845 C   0  0  0  0  0  0  0  0  0  0  0  0
    8.5652    1.5478   25.3778 N   0  0  0  0  0  0  0  0  0  0  0  0
    6.8048   -7.5457   17.8752 C   0  0  0  0  0  0  0  0  0  0  0  0
    6.1721   -8.2186   15.9886 N   0  0  0  0  0  0  0  0  0  0  0  0
   11.1764   -2.6600   19.5604 C   0  0  0  0  0  0  0  0  0  0  0  0
    9.5491   -0.6380   24.1912 C   0  0  0  0  0  0  0  0  0  0  0  0
    7.5337   -6.9256   16.9519 C   0  0  0  0  0  0  0  0  0  0  0  0
    9.6782    0.5671   23.5143 C   0  0  0  0  0  0  0  0  0  0  0  0
    8.4532    0.3482   26.0821 C   0  0  0  0  0  0  0  0  0  0  0  0
   10.4239   -1.7677   22.2230 N   0  0  0  0  0  0  0  0  0  0  0  0
    9.9468   -4.5953   20.1709 C   0  0  0  0  0  0  0  0  0  0  0  0
   10.0366   -3.0590   23.9864 N   0  0  0  0  0  0  0  0  0  0  0  0
    7.1191   -7.3636   15.7739 C   0  0  0  0  0  0  0  0  0  0  0  0
    5.9612   -8.3203   17.2732 N   0  0  0  0  0  0  0  0  0  0  0  0
    8.5296   -5.9814   17.1841 C   0  0  0  0  0  0  0  0  0  0  0  0
    9.1527   -5.2118   16.2116 C   0  0  0  0  0  0  0  0  0  0  0  0
   10.3364   -3.8368   22.9255 O   0  0  0  0  0  0  0  0  0  0  0  0
    9.6947   -4.8407   18.8534 C   0  0  0  0  0  0  0  0  0  0  0  0
    9.1596    1.7042   24.1381 C   0  0  0  0  0  0  0  0  0  0  0  0
   11.0456   -2.9774   18.2694 N   0  0  0  0  0  0  0  0  0  0  0  0
   10.4788   -3.0457   21.8593 C   0  0  0  0  0  0  0  0  0  0  0  0
    8.8693   -5.8099   18.4657 N   0  0  0  0  0  0  0  0  0  0  0  0
    8.9892   -0.7926   25.4573 C   0  0  0  0  0  0  0  0  0  0  0  0
   10.5677   -3.4462   20.5323 C   0  0  0  0  0  0  0  0  0  0  0  0
  1  8  1  0
  1 12  4  0
  1 14  4  0
  2  3  4  0
  2 18  4  0
  3 20  4  0
  3 22  4  0
  4 11  4  0
  4 21  4  0
  5  9  4  0
  5 16  4  0
  6 15  4  0
  6 16  4  0
  7 22  4  0
  7 26  4  0
  8 10  4  0
  8 25  4  0
  9 15  4  0
  9 17  1  0
 10 21  4  0
 11 25  4  0
 12 23  4  0
 13 20  4  0
 13 26  4  0
 14 19  4  0
 17 18  4  0
 17 24  4  0
 19 23  4  0
 20 24  4  0
 23 26  1  0
M  END
$$$$

 Created by Python create_sdf_string function

 26 30  0  0  0  0  0  0  0  0999 V2000
   10.0084   -1.8019   23.4945 C   0  0  0  0  0  0  0  0  0  0  0  0
   10.0005   -4.2520   16.5631 C   0  0  0  0  0  0  0  0  0  0  0  0
   10.2759   -4.0036   17.8845 C   0  0  0  0  0  0  0  0  0  0  0  0
    8.5652    1.5478   25.3778 N   0  0  0  0  0  0  0  0  0  0  0  0
    6.8048   -7.5457   17.8752 C   0  0  0  0  0  0  0  0  0  0  0  0
    6.1721   -8.2186   15.9886 N   0  0  0  0  0  0  0  0  0  0  0  0
   11.1764   -2.6600   19.5604 C   0  0  0  0  0  0  0  0  0  0  0  0
    9.5491   -0.6380   24.1912 C   0  0  0  0  0  0  0  0  0  0  0  0
    7.5337   -6.9256   16.9519 C   0  0  0  0  0  0  0  0  0  0  0  0
    9.6782    0.5671   23.5143 C   0  0  0  0  0  0  0  0  0  0  0  0
    8.4532    0.3482   26.0821 C   0  0  0  0  0  0  0  0  0  0  0  0
   10.4239   -1.7677   22.2230 N   0  0  0  0  0  0  0  0  0  0  0  0
    9.9468   -4.5953   20.1709 C   0  0  0  0  0  0  0  0  0  0  0  0
   10.0366   -3.0590   23.9864 N   0  0  0  0  0  0  0  0  0  0  0  0
    7.1191   -7.3636   15.7739 C   0  0  0  0  0  0  0  0  0  0  0  0
    5.9612   -8.3203   17.2732 N   0  0  0  0  0  0  0  0  0  0  0  0
    8.5296   -5.9814   17.1841 C   0  0  0  0  0  0  0  0  0  0  0  0
    9.1527   -5.2118   16.2116 C   0  0  0  0  0  0  0  0  0  0  0  0
   10.3364   -3.8368   22.9255 O   0  0  0  0  0  0  0  0  0  0  0  0
    9.6947   -4.8407   18.8534 C   0  0  0  0  0  0  0  0  0  0  0  0
    9.1596    1.7042   24.1381 C   0  0  0  0  0  0  0  0  0  0  0  0
   11.0456   -2.9774   18.2694 N   0  0  0  0  0  0  0  0  0  0  0  0
   10.4788   -3.0457   21.8593 C   0  0  0  0  0  0  0  0  0  0  0  0
    8.8693   -5.8099   18.4657 N   0  0  0  0  0  0  0  0  0  0  0  0
    8.9892   -0.7926   25.4573 C   0  0  0  0  0  0  0  0  0  0  0  0
   10.5677   -3.4462   20.5323 C   0  0  0  0  0  0  0  0  0  0  0  0
  1  8  1  0
  1 12  4  0
  1 14  4  0
  2  3  4  0
  2 18  4  0
  3 20  4  0
  3 22  4  0
  4 11  4  0
  4 21  4  0
  5  9  4  0
  5 16  4  0
  6 15  4  0
  6 16  4  0
  7 22  4  0
  7 26  4  0
  8 10  4  0
  8 25  4  0
  9 15  4  0
  9 17  1  0
 10 21  4  0
 11 25  4  0
 12 23  4  0
 13 20  4  0
 13 26  4  0
 14 19  4  0
 17 18  4  0
 17 24  4  0
 19 23  4  0
 20 24  4  0
 23 26  1  0
M  END
$$$$

 Created by Python create_sdf_string function

 26 30  0  0  0  0  0  0  0  0999 V2000
   10.0084   -1.8019   23.4945 C   0  0  0  0  0  0  0  0  0  0  0  0
   10.0005   -4.2520   16.5631 C   0  0  0  0  0  0  0  0  0  0  0  0
   10.2759   -4.0036   17.8845 C   0  0  0  0  0  0  0  0  0  0  0  0
    8.5652    1.5478   25.3778 N   0  0  0  0  0  0  0  0  0  0  0  0
    6.8048   -7.5457   17.8752 C   0  0  0  0  0  0  0  0  0  0  0  0
    6.1721   -8.2186   15.9886 N   0  0  0  0  0  0  0  0  0  0  0  0
   11.1764   -2.6600   19.5604 C   0  0  0  0  0  0  0  0  0  0  0  0
    9.5491   -0.6380   24.1912 C   0  0  0  0  0  0  0  0  0  0  0  0
    7.5337   -6.9256   16.9519 C   0  0  0  0  0  0  0  0  0  0  0  0
    9.6782    0.5671   23.5143 C   0  0  0  0  0  0  0  0  0  0  0  0
    8.4532    0.3482   26.0821 C   0  0  0  0  0  0  0  0  0  0  0  0
   10.4239   -1.7677   22.2230 N   0  0  0  0  0  0  0  0  0  0  0  0
    9.9468   -4.5953   20.1709 C   0  0  0  0  0  0  0  0  0  0  0  0
   10.0366   -3.0590   23.9864 N   0  0  0  0  0  0  0  0  0  0  0  0
    7.1191   -7.3636   15.7739 C   0  0  0  0  0  0  0  0  0  0  0  0
    5.9612   -8.3203   17.2732 N   0  0  0  0  0  0  0  0  0  0  0  0
    8.5296   -5.9814   17.1841 C   0  0  0  0  0  0  0  0  0  0  0  0
    9.1527   -5.2118   16.2116 C   0  0  0  0  0  0  0  0  0  0  0  0
   10.3364   -3.8368   22.9255 O   0  0  0  0  0  0  0  0  0  0  0  0
    9.6947   -4.8407   18.8534 C   0  0  0  0  0  0  0  0  0  0  0  0
    9.1596    1.7042   24.1381 C   0  0  0  0  0  0  0  0  0  0  0  0
   11.0456   -2.9774   18.2694 N   0  0  0  0  0  0  0  0  0  0  0  0
   10.4788   -3.0457   21.8593 C   0  0  0  0  0  0  0  0  0  0  0  0
    8.8693   -5.8099   18.4657 N   0  0  0  0  0  0  0  0  0  0  0  0
    8.9892   -0.7926   25.4573 C   0  0  0  0  0  0  0  0  0  0  0  0
   10.5677   -3.4462   20.5323 C   0  0  0  0  0  0  0  0  0  0  0  0
  1  8  1  0
  1 12  4  0
  1 14  4  0
  2  3  4  0
  2 18  4  0
  3 20  4  0
  3 22  4  0
  4 11  4  0
  4 21  4  0
  5  9  4  0
  5 16  4  0
  6 15  4  0
  6 16  4  0
  7 22  4  0
  7 26  4  0
  8 10  4  0
  8 25  4  0
  9 15  4  0
  9 17  1  0
 10 21  4  0
 11 25  4  0
 12 23  4  0
 13 20  4  0
 13 26  4  0
 14 19  4  0
 17 18  4  0
 17 24  4  0
 19 23  4  0
 20 24  4  0
 23 26  1  0
M  END
$$$$

 Created by Python create_sdf_string function

 26 30  0  0  0  0  0  0  0  0999 V2000
   10.0084   -1.8019   23.4945 C   0  0  0  0  0  0  0  0  0  0  0  0
   10.0005   -4.2520   16.5631 C   0  0  0  0  0  0  0  0  0  0  0  0
   10.2759   -4.0036   17.8845 C   0  0  0  0  0  0  0  0  0  0  0  0
    8.5652    1.5478   25.3778 N   0  0  0  0  0  0  0  0  0  0  0  0
    6.8048   -7.5457   17.8752 C   0  0  0  0  0  0  0  0  0  0  0  0
    6.1721   -8.2186   15.9886 N   0  0  0  0  0  0  0  0  0  0  0  0
   11.1764   -2.6600   19.5604 C   0  0  0  0  0  0  0  0  0  0  0  0
    9.5491   -0.6380   24.1912 C   0  0  0  0  0  0  0  0  0  0  0  0
    7.5337   -6.9256   16.9519 C   0  0  0  0  0  0  0  0  0  0  0  0
    9.6782    0.5671   23.5143 C   0  0  0  0  0  0  0  0  0  0  0  0
    8.4532    0.3482   26.0821 C   0  0  0  0  0  0  0  0  0  0  0  0
   10.4239   -1.7677   22.2230 N   0  0  0  0  0  0  0  0  0  0  0  0
    9.9468   -4.5953   20.1709 C   0  0  0  0  0  0  0  0  0  0  0  0
   10.0366   -3.0590   23.9864 N   0  0  0  0  0  0  0  0  0  0  0  0
    7.1191   -7.3636   15.7739 C   0  0  0  0  0  0  0  0  0  0  0  0
    5.9612   -8.3203   17.2732 N   0  0  0  0  0  0  0  0  0  0  0  0
    8.5296   -5.9814   17.1841 C   0  0  0  0  0  0  0  0  0  0  0  0
    9.1527   -5.2118   16.2116 C   0  0  0  0  0  0  0  0  0  0  0  0
   10.3364   -3.8368   22.9255 O   0  0  0  0  0  0  0  0  0  0  0  0
    9.6947   -4.8407   18.8534 C   0  0  0  0  0  0  0  0  0  0  0  0
    9.1596    1.7042   24.1381 C   0  0  0  0  0  0  0  0  0  0  0  0
   11.0456   -2.9774   18.2694 N   0  0  0  0  0  0  0  0  0  0  0  0
   10.4788   -3.0457   21.8593 C   0  0  0  0  0  0  0  0  0  0  0  0
    8.8693   -5.8099   18.4657 N   0  0  0  0  0  0  0  0  0  0  0  0
    8.9892   -0.7926   25.4573 C   0  0  0  0  0  0  0  0  0  0  0  0
   10.5677   -3.4462   20.5323 C   0  0  0  0  0  0  0  0  0  0  0  0
  1  8  1  0
  1 12  4  0
  1 14  4  0
  2  3  4  0
  2 18  4  0
  3 20  4  0
  3 22  4  0
  4 11  4  0
  4 21  4  0
  5  9  4  0
  5 16  4  0
  6 15  4  0
  6 16  4  0
  7 22  4  0
  7 26  4  0
  8 10  4  0
  8 25  4  0
  9 15  4  0
  9 17  1  0
 10 21  4  0
 11 25  4  0
 12 23  4  0
 13 20  4  0
 13 26  4  0
 14 19  4  0
 17 18  4  0
 17 24  4  0
 19 23  4  0
 20 24  4  0
 23 26  1  0
M  END
$$$$

 Created by Python create_sdf_string function

 26 30  0  0  0  0  0  0  0  0999 V2000
   10.0084   -1.8019   23.4945 C   0  0  0  0  0  0  0  0  0  0  0  0
   10.0005   -4.2520   16.5631 C   0  0  0  0  0  0  0  0  0  0  0  0
   10.2759   -4.0036   17.8845 C   0  0  0  0  0  0  0  0  0  0  0  0
    8.5652    1.5478   25.3778 N   0  0  0  0  0  0  0  0  0  0  0  0
    6.8048   -7.5457   17.8752 C   0  0  0  0  0  0  0  0  0  0  0  0
    6.1721   -8.2186   15.9886 N   0  0  0  0  0  0  0  0  0  0  0  0
   11.1764   -2.6600   19.5604 C   0  0  0  0  0  0  0  0  0  0  0  0
    9.5491   -0.6380   24.1912 C   0  0  0  0  0  0  0  0  0  0  0  0
    7.5337   -6.9256   16.9519 C   0  0  0  0  0  0  0  0  0  0  0  0
    9.6782    0.5671   23.5143 C   0  0  0  0  0  0  0  0  0  0  0  0
    8.4532    0.3482   26.0821 C   0  0  0  0  0  0  0  0  0  0  0  0
   10.4239   -1.7677   22.2230 N   0  0  0  0  0  0  0  0  0  0  0  0
    9.9468   -4.5953   20.1709 C   0  0  0  0  0  0  0  0  0  0  0  0
   10.0366   -3.0590   23.9864 N   0  0  0  0  0  0  0  0  0  0  0  0
    7.1191   -7.3636   15.7739 C   0  0  0  0  0  0  0  0  0  0  0  0
    5.9612   -8.3203   17.2732 N   0  0  0  0  0  0  0  0  0  0  0  0
    8.5296   -5.9814   17.1841 C   0  0  0  0  0  0  0  0  0  0  0  0
    9.1527   -5.2118   16.2116 C   0  0  0  0  0  0  0  0  0  0  0  0
   10.3364   -3.8368   22.9255 O   0  0  0  0  0  0  0  0  0  0  0  0
    9.6947   -4.8407   18.8534 C   0  0  0  0  0  0  0  0  0  0  0  0
    9.1596    1.7042   24.1381 C   0  0  0  0  0  0  0  0  0  0  0  0
   11.0456   -2.9774   18.2694 N   0  0  0  0  0  0  0  0  0  0  0  0
   10.4788   -3.0457   21.8593 C   0  0  0  0  0  0  0  0  0  0  0  0
    8.8693   -5.8099   18.4657 N   0  0  0  0  0  0  0  0  0  0  0  0
    8.9892   -0.7926   25.4573 C   0  0  0  0  0  0  0  0  0  0  0  0
   10.5677   -3.4462   20.5323 C   0  0  0  0  0  0  0  0  0  0  0  0
  1  8  1  0
  1 12  4  0
  1 14  4  0
  2  3  4  0
  2 18  4  0
  3 20  4  0
  3 22  4  0
  4 11  4  0
  4 21  4  0
  5  9  4  0
  5 16  4  0
  6 15  4  0
  6 16  4  0
  7 22  4  0
  7 26  4  0
  8 10  4  0
  8 25  4  0
  9 15  4  0
  9 17  1  0
 10 21  4  0
 11 25  4  0
 12 23  4  0
 13 20  4  0
 13 26  4  0
 14 19  4  0
 17 18  4  0
 17 24  4  0
 19 23  4  0
 20 24  4  0
 23 26  1  0
M  END
$$$$

 Created by Python create_sdf_string function

 26 30  0  0  0  0  0  0  0  0999 V2000
   10.0084   -1.8019   23.4945 C   0  0  0  0  0  0  0  0  0  0  0  0
   10.0005   -4.2520   16.5631 C   0  0  0  0  0  0  0  0  0  0  0  0
   10.2759   -4.0036   17.8845 C   0  0  0  0  0  0  0  0  0  0  0  0
    8.5652    1.5478   25.3778 N   0  0  0  0  0  0  0  0  0  0  0  0
    6.8048   -7.5457   17.8752 C   0  0  0  0  0  0  0  0  0  0  0  0
    6.1721   -8.2186   15.9886 N   0  0  0  0  0  0  0  0  0  0  0  0
   11.1764   -2.6600   19.5604 C   0  0  0  0  0  0  0  0  0  0  0  0
    9.5491   -0.6380   24.1912 C   0  0  0  0  0  0  0  0  0  0  0  0
    7.5337   -6.9256   16.9519 C   0  0  0  0  0  0  0  0  0  0  0  0
    9.6782    0.5671   23.5143 C   0  0  0  0  0  0  0  0  0  0  0  0
    8.4532    0.3482   26.0821 C   0  0  0  0  0  0  0  0  0  0  0  0
   10.4239   -1.7677   22.2230 N   0  0  0  0  0  0  0  0  0  0  0  0
    9.9468   -4.5953   20.1709 C   0  0  0  0  0  0  0  0  0  0  0  0
   10.0366   -3.0590   23.9864 N   0  0  0  0  0  0  0  0  0  0  0  0
    7.1191   -7.3636   15.7739 C   0  0  0  0  0  0  0  0  0  0  0  0
    5.9612   -8.3203   17.2732 N   0  0  0  0  0  0  0  0  0  0  0  0
    8.5296   -5.9814   17.1841 C   0  0  0  0  0  0  0  0  0  0  0  0
    9.1527   -5.2118   16.2116 C   0  0  0  0  0  0  0  0  0  0  0  0
   10.3364   -3.8368   22.9255 O   0  0  0  0  0  0  0  0  0  0  0  0
    9.6947   -4.8407   18.8534 C   0  0  0  0  0  0  0  0  0  0  0  0
    9.1596    1.7042   24.1381 C   0  0  0  0  0  0  0  0  0  0  0  0
   11.0456   -2.9774   18.2694 N   0  0  0  0  0  0  0  0  0  0  0  0
   10.4788   -3.0457   21.8593 C   0  0  0  0  0  0  0  0  0  0  0  0
    8.8693   -5.8099   18.4657 N   0  0  0  0  0  0  0  0  0  0  0  0
    8.9892   -0.7926   25.4573 C   0  0  0  0  0  0  0  0  0  0  0  0
   10.5677   -3.4462   20.5323 C   0  0  0  0  0  0  0  0  0  0  0  0
  1  8  1  0
  1 12  4  0
  1 14  4  0
  2  3  4  0
  2 18  4  0
  3 20  4  0
  3 22  4  0
  4 11  4  0
  4 21  4  0
  5  9  4  0
  5 16  4  0
  6 15  4  0
  6 16  4  0
  7 22  4  0
  7 26  4  0
  8 10  4  0
  8 25  4  0
  9 15  4  0
  9 17  1  0
 10 21  4  0
 11 25  4  0
 12 23  4  0
 13 20  4  0
 13 26  4  0
 14 19  4  0
 17 18  4  0
 17 24  4  0
 19 23  4  0
 20 24  4  0
 23 26  1  0
M  END
$$$$

 Created by Python create_sdf_string function

 26 30  0  0  0  0  0  0  0  0999 V2000
   10.0084   -1.8019   23.4945 C   0  0  0  0  0  0  0  0  0  0  0  0
   10.0005   -4.2520   16.5631 C   0  0  0  0  0  0  0  0  0  0  0  0
   10.2759   -4.0036   17.8845 C   0  0  0  0  0  0  0  0  0  0  0  0
    8.5652    1.5478   25.3778 N   0  0  0  0  0  0  0  0  0  0  0  0
    6.8048   -7.5457   17.8752 C   0  0  0  0  0  0  0  0  0  0  0  0
    6.1721   -8.2186   15.9886 N   0  0  0  0  0  0  0  0  0  0  0  0
   11.1764   -2.6600   19.5604 C   0  0  0  0  0  0  0  0  0  0  0  0
    9.5491   -0.6380   24.1912 C   0  0  0  0  0  0  0  0  0  0  0  0
    7.5337   -6.9256   16.9519 C   0  0  0  0  0  0  0  0  0  0  0  0
    9.6782    0.5671   23.5143 C   0  0  0  0  0  0  0  0  0  0  0  0
    8.4532    0.3482   26.0821 C   0  0  0  0  0  0  0  0  0  0  0  0
   10.4239   -1.7677   22.2230 N   0  0  0  0  0  0  0  0  0  0  0  0
    9.9468   -4.5953   20.1709 C   0  0  0  0  0  0  0  0  0  0  0  0
   10.0366   -3.0590   23.9864 N   0  0  0  0  0  0  0  0  0  0  0  0
    7.1191   -7.3636   15.7739 C   0  0  0  0  0  0  0  0  0  0  0  0
    5.9612   -8.3203   17.2732 N   0  0  0  0  0  0  0  0  0  0  0  0
    8.5296   -5.9814   17.1841 C   0  0  0  0  0  0  0  0  0  0  0  0
    9.1527   -5.2118   16.2116 C   0  0  0  0  0  0  0  0  0  0  0  0
   10.3364   -3.8368   22.9255 O   0  0  0  0  0  0  0  0  0  0  0  0
    9.6947   -4.8407   18.8534 C   0  0  0  0  0  0  0  0  0  0  0  0
    9.1596    1.7042   24.1381 C   0  0  0  0  0  0  0  0  0  0  0  0
   11.0456   -2.9774   18.2694 N   0  0  0  0  0  0  0  0  0  0  0  0
   10.4788   -3.0457   21.8593 C   0  0  0  0  0  0  0  0  0  0  0  0
    8.8693   -5.8099   18.4657 N   0  0  0  0  0  0  0  0  0  0  0  0
    8.9892   -0.7926   25.4573 C   0  0  0  0  0  0  0  0  0  0  0  0
   10.5677   -3.4462   20.5323 C   0  0  0  0  0  0  0  0  0  0  0  0
  1  8  1  0
  1 12  4  0
  1 14  4  0
  2  3  4  0
  2 18  4  0
  3 20  4  0
  3 22  4  0
  4 11  4  0
  4 21  4  0
  5  9  4  0
  5 16  4  0
  6 15  4  0
  6 16  4  0
  7 22  4  0
  7 26  4  0
  8 10  4  0
  8 25  4  0
  9 15  4  0
  9 17  1  0
 10 21  4  0
 11 25  4  0
 12 23  4  0
 13 20  4  0
 13 26  4  0
 14 19  4  0
 17 18  4  0
 17 24  4  0
 19 23  4  0
 20 24  4  0
 23 26  1  0
M  END
$$$$

 Created by Python create_sdf_string function

 26 30  0  0  0  0  0  0  0  0999 V2000
   10.0084   -1.8019   23.4945 C   0  0  0  0  0  0  0  0  0  0  0  0
   10.0005   -4.2520   16.5631 C   0  0  0  0  0  0  0  0  0  0  0  0
   10.2759   -4.0036   17.8845 C   0  0  0  0  0  0  0  0  0  0  0  0
    8.5652    1.5478   25.3778 N   0  0  0  0  0  0  0  0  0  0  0  0
    6.8048   -7.5457   17.8752 C   0  0  0  0  0  0  0  0  0  0  0  0
    6.1721   -8.2186   15.9886 N   0  0  0  0  0  0  0  0  0  0  0  0
   11.1764   -2.6600   19.5604 C   0  0  0  0  0  0  0  0  0  0  0  0
    9.5491   -0.6380   24.1912 C   0  0  0  0  0  0  0  0  0  0  0  0
    7.5337   -6.9256   16.9519 C   0  0  0  0  0  0  0  0  0  0  0  0
    9.6782    0.5671   23.5143 C   0  0  0  0  0  0  0  0  0  0  0  0
    8.4532    0.3482   26.0821 C   0  0  0  0  0  0  0  0  0  0  0  0
   10.4239   -1.7677   22.2230 N   0  0  0  0  0  0  0  0  0  0  0  0
    9.9468   -4.5953   20.1709 C   0  0  0  0  0  0  0  0  0  0  0  0
   10.0366   -3.0590   23.9864 N   0  0  0  0  0  0  0  0  0  0  0  0
    7.1191   -7.3636   15.7739 C   0  0  0  0  0  0  0  0  0  0  0  0
    5.9612   -8.3203   17.2732 N   0  0  0  0  0  0  0  0  0  0  0  0
    8.5296   -5.9814   17.1841 C   0  0  0  0  0  0  0  0  0  0  0  0
    9.1527   -5.2118   16.2116 C   0  0  0  0  0  0  0  0  0  0  0  0
   10.3364   -3.8368   22.9255 O   0  0  0  0  0  0  0  0  0  0  0  0
    9.6947   -4.8407   18.8534 C   0  0  0  0  0  0  0  0  0  0  0  0
    9.1596    1.7042   24.1381 C   0  0  0  0  0  0  0  0  0  0  0  0
   11.0456   -2.9774   18.2694 N   0  0  0  0  0  0  0  0  0  0  0  0
   10.4788   -3.0457   21.8593 C   0  0  0  0  0  0  0  0  0  0  0  0
    8.8693   -5.8099   18.4657 N   0  0  0  0  0  0  0  0  0  0  0  0
    8.9892   -0.7926   25.4573 C   0  0  0  0  0  0  0  0  0  0  0  0
   10.5677   -3.4462   20.5323 C   0  0  0  0  0  0  0  0  0  0  0  0
  1  8  1  0
  1 12  4  0
  1 14  4  0
  2  3  4  0
  2 18  4  0
  3 20  4  0
  3 22  4  0
  4 11  4  0
  4 21  4  0
  5  9  4  0
  5 16  4  0
  6 15  4  0
  6 16  4  0
  7 22  4  0
  7 26  4  0
  8 10  4  0
  8 25  4  0
  9 15  4  0
  9 17  1  0
 10 21  4  0
 11 25  4  0
 12 23  4  0
 13 20  4  0
 13 26  4  0
 14 19  4  0
 17 18  4  0
 17 24  4  0
 19 23  4  0
 20 24  4  0
 23 26  1  0
M  END
$$$$

 Created by Python create_sdf_string function

 26 30  0  0  0  0  0  0  0  0999 V2000
   10.0084   -1.8019   23.4945 C   0  0  0  0  0  0  0  0  0  0  0  0
   10.0005   -4.2520   16.5631 C   0  0  0  0  0  0  0  0  0  0  0  0
   10.2759   -4.0036   17.8845 C   0  0  0  0  0  0  0  0  0  0  0  0
    8.5652    1.5478   25.3778 N   0  0  0  0  0  0  0  0  0  0  0  0
    6.8048   -7.5457   17.8752 C   0  0  0  0  0  0  0  0  0  0  0  0
    6.1721   -8.2186   15.9886 N   0  0  0  0  0  0  0  0  0  0  0  0
   11.1764   -2.6600   19.5604 C   0  0  0  0  0  0  0  0  0  0  0  0
    9.5491   -0.6380   24.1912 C   0  0  0  0  0  0  0  0  0  0  0  0
    7.5337   -6.9256   16.9519 C   0  0  0  0  0  0  0  0  0  0  0  0
    9.6782    0.5671   23.5143 C   0  0  0  0  0  0  0  0  0  0  0  0
    8.4532    0.3482   26.0821 C   0  0  0  0  0  0  0  0  0  0  0  0
   10.4239   -1.7677   22.2230 N   0  0  0  0  0  0  0  0  0  0  0  0
    9.9468   -4.5953   20.1709 C   0  0  0  0  0  0  0  0  0  0  0  0
   10.0366   -3.0590   23.9864 N   0  0  0  0  0  0  0  0  0  0  0  0
    7.1191   -7.3636   15.7739 C   0  0  0  0  0  0  0  0  0  0  0  0
    5.9612   -8.3203   17.2732 N   0  0  0  0  0  0  0  0  0  0  0  0
    8.5296   -5.9814   17.1841 C   0  0  0  0  0  0  0  0  0  0  0  0
    9.1527   -5.2118   16.2116 C   0  0  0  0  0  0  0  0  0  0  0  0
   10.3364   -3.8368   22.9255 O   0  0  0  0  0  0  0  0  0  0  0  0
    9.6947   -4.8407   18.8534 C   0  0  0  0  0  0  0  0  0  0  0  0
    9.1596    1.7042   24.1381 C   0  0  0  0  0  0  0  0  0  0  0  0
   11.0456   -2.9774   18.2694 N   0  0  0  0  0  0  0  0  0  0  0  0
   10.4788   -3.0457   21.8593 C   0  0  0  0  0  0  0  0  0  0  0  0
    8.8693   -5.8099   18.4657 N   0  0  0  0  0  0  0  0  0  0  0  0
    8.9892   -0.7926   25.4573 C   0  0  0  0  0  0  0  0  0  0  0  0
   10.5677   -3.4462   20.5323 C   0  0  0  0  0  0  0  0  0  0  0  0
  1  8  1  0
  1 12  4  0
  1 14  4  0
  2  3  4  0
  2 18  4  0
  3 20  4  0
  3 22  4  0
  4 11  4  0
  4 21  4  0
  5  9  4  0
  5 16  4  0
  6 15  4  0
  6 16  4  0
  7 22  4  0
  7 26  4  0
  8 10  4  0
  8 25  4  0
  9 15  4  0
  9 17  1  0
 10 21  4  0
 11 25  4  0
 12 23  4  0
 13 20  4  0
 13 26  4  0
 14 19  4  0
 17 18  4  0
 17 24  4  0
 19 23  4  0
 20 24  4  0
 23 26  1  0
M  END
$$$$

 Created by Python create_sdf_string function

 26 30  0  0  0  0  0  0  0  0999 V2000
   10.0084   -1.8019   23.4945 C   0  0  0  0  0  0  0  0  0  0  0  0
   10.0005   -4.2520   16.5631 C   0  0  0  0  0  0  0  0  0  0  0  0
   10.2759   -4.0036   17.8845 C   0  0  0  0  0  0  0  0  0  0  0  0
    8.5652    1.5478   25.3778 N   0  0  0  0  0  0  0  0  0  0  0  0
    6.8048   -7.5457   17.8752 C   0  0  0  0  0  0  0  0  0  0  0  0
    6.1721   -8.2186   15.9886 N   0  0  0  0  0  0  0  0  0  0  0  0
   11.1764   -2.6600   19.5604 C   0  0  0  0  0  0  0  0  0  0  0  0
    9.5491   -0.6380   24.1912 C   0  0  0  0  0  0  0  0  0  0  0  0
    7.5337   -6.9256   16.9519 C   0  0  0  0  0  0  0  0  0  0  0  0
    9.6782    0.5671   23.5143 C   0  0  0  0  0  0  0  0  0  0  0  0
    8.4532    0.3482   26.0821 C   0  0  0  0  0  0  0  0  0  0  0  0
   10.4239   -1.7677   22.2230 N   0  0  0  0  0  0  0  0  0  0  0  0
    9.9468   -4.5953   20.1709 C   0  0  0  0  0  0  0  0  0  0  0  0
   10.0366   -3.0590   23.9864 N   0  0  0  0  0  0  0  0  0  0  0  0
    7.1191   -7.3636   15.7739 C   0  0  0  0  0  0  0  0  0  0  0  0
    5.9612   -8.3203   17.2732 N   0  0  0  0  0  0  0  0  0  0  0  0
    8.5296   -5.9814   17.1841 C   0  0  0  0  0  0  0  0  0  0  0  0
    9.1527   -5.2118   16.2116 C   0  0  0  0  0  0  0  0  0  0  0  0
   10.3364   -3.8368   22.9255 O   0  0  0  0  0  0  0  0  0  0  0  0
    9.6947   -4.8407   18.8534 C   0  0  0  0  0  0  0  0  0  0  0  0
    9.1596    1.7042   24.1381 C   0  0  0  0  0  0  0  0  0  0  0  0
   11.0456   -2.9774   18.2694 N   0  0  0  0  0  0  0  0  0  0  0  0
   10.4788   -3.0457   21.8593 C   0  0  0  0  0  0  0  0  0  0  0  0
    8.8693   -5.8099   18.4657 N   0  0  0  0  0  0  0  0  0  0  0  0
    8.9892   -0.7926   25.4573 C   0  0  0  0  0  0  0  0  0  0  0  0
   10.5677   -3.4462   20.5323 C   0  0  0  0  0  0  0  0  0  0  0  0
  1  8  1  0
  1 12  4  0
  1 14  4  0
  2  3  4  0
  2 18  4  0
  3 20  4  0
  3 22  4  0
  4 11  4  0
  4 21  4  0
  5  9  4  0
  5 16  4  0
  6 15  4  0
  6 16  4  0
  7 22  4  0
  7 26  4  0
  8 10  4  0
  8 25  4  0
  9 15  4  0
  9 17  1  0
 10 21  4  0
 11 25  4  0
 12 23  4  0
 13 20  4  0
 13 26  4  0
 14 19  4  0
 17 18  4  0
 17 24  4  0
 19 23  4  0
 20 24  4  0
 23 26  1  0
M  END
$$$$

 Created by Python create_sdf_string function

 26 30  0  0  0  0  0  0  0  0999 V2000
   10.0084   -1.8019   23.4945 C   0  0  0  0  0  0  0  0  0  0  0  0
   10.0005   -4.2520   16.5631 C   0  0  0  0  0  0  0  0  0  0  0  0
   10.2759   -4.0036   17.8845 C   0  0  0  0  0  0  0  0  0  0  0  0
    8.5652    1.5478   25.3778 N   0  0  0  0  0  0  0  0  0  0  0  0
    6.8048   -7.5457   17.8752 C   0  0  0  0  0  0  0  0  0  0  0  0
    6.1721   -8.2186   15.9886 N   0  0  0  0  0  0  0  0  0  0  0  0
   11.1764   -2.6600   19.5604 C   0  0  0  0  0  0  0  0  0  0  0  0
    9.5491   -0.6380   24.1912 C   0  0  0  0  0  0  0  0  0  0  0  0
    7.5337   -6.9256   16.9519 C   0  0  0  0  0  0  0  0  0  0  0  0
    9.6782    0.5671   23.5143 C   0  0  0  0  0  0  0  0  0  0  0  0
    8.4532    0.3482   26.0821 C   0  0  0  0  0  0  0  0  0  0  0  0
   10.4239   -1.7677   22.2230 N   0  0  0  0  0  0  0  0  0  0  0  0
    9.9468   -4.5953   20.1709 C   0  0  0  0  0  0  0  0  0  0  0  0
   10.0366   -3.0590   23.9864 N   0  0  0  0  0  0  0  0  0  0  0  0
    7.1191   -7.3636   15.7739 C   0  0  0  0  0  0  0  0  0  0  0  0
    5.9612   -8.3203   17.2732 N   0  0  0  0  0  0  0  0  0  0  0  0
    8.5296   -5.9814   17.1841 C   0  0  0  0  0  0  0  0  0  0  0  0
    9.1527   -5.2118   16.2116 C   0  0  0  0  0  0  0  0  0  0  0  0
   10.3364   -3.8368   22.9255 O   0  0  0  0  0  0  0  0  0  0  0  0
    9.6947   -4.8407   18.8534 C   0  0  0  0  0  0  0  0  0  0  0  0
    9.1596    1.7042   24.1381 C   0  0  0  0  0  0  0  0  0  0  0  0
   11.0456   -2.9774   18.2694 N   0  0  0  0  0  0  0  0  0  0  0  0
   10.4788   -3.0457   21.8593 C   0  0  0  0  0  0  0  0  0  0  0  0
    8.8693   -5.8099   18.4657 N   0  0  0  0  0  0  0  0  0  0  0  0
    8.9892   -0.7926   25.4573 C   0  0  0  0  0  0  0  0  0  0  0  0
   10.5677   -3.4462   20.5323 C   0  0  0  0  0  0  0  0  0  0  0  0
  1  8  1  0
  1 12  4  0
  1 14  4  0
  2  3  4  0
  2 18  4  0
  3 20  4  0
  3 22  4  0
  4 11  4  0
  4 21  4  0
  5  9  4  0
  5 16  4  0
  6 15  4  0
  6 16  4  0
  7 22  4  0
  7 26  4  0
  8 10  4  0
  8 25  4  0
  9 15  4  0
  9 17  1  0
 10 21  4  0
 11 25  4  0
 12 23  4  0
 13 20  4  0
 13 26  4  0
 14 19  4  0
 17 18  4  0
 17 24  4  0
 19 23  4  0
 20 24  4  0
 23 26  1  0
M  END
$$$$

 Created by Python create_sdf_string function

 26 30  0  0  0  0  0  0  0  0999 V2000
   10.0084   -1.8019   23.4945 C   0  0  0  0  0  0  0  0  0  0  0  0
   10.0005   -4.2520   16.5631 C   0  0  0  0  0  0  0  0  0  0  0  0
   10.2759   -4.0036   17.8845 C   0  0  0  0  0  0  0  0  0  0  0  0
    8.5652    1.5478   25.3778 N   0  0  0  0  0  0  0  0  0  0  0  0
    6.8048   -7.5457   17.8752 C   0  0  0  0  0  0  0  0  0  0  0  0
    6.1721   -8.2186   15.9886 N   0  0  0  0  0  0  0  0  0  0  0  0
   11.1764   -2.6600   19.5604 C   0  0  0  0  0  0  0  0  0  0  0  0
    9.5491   -0.6380   24.1912 C   0  0  0  0  0  0  0  0  0  0  0  0
    7.5337   -6.9256   16.9519 C   0  0  0  0  0  0  0  0  0  0  0  0
    9.6782    0.5671   23.5143 C   0  0  0  0  0  0  0  0  0  0  0  0
    8.4532    0.3482   26.0821 C   0  0  0  0  0  0  0  0  0  0  0  0
   10.4239   -1.7677   22.2230 N   0  0  0  0  0  0  0  0  0  0  0  0
    9.9468   -4.5953   20.1709 C   0  0  0  0  0  0  0  0  0  0  0  0
   10.0366   -3.0590   23.9864 N   0  0  0  0  0  0  0  0  0  0  0  0
    7.1191   -7.3636   15.7739 C   0  0  0  0  0  0  0  0  0  0  0  0
    5.9612   -8.3203   17.2732 N   0  0  0  0  0  0  0  0  0  0  0  0
    8.5296   -5.9814   17.1841 C   0  0  0  0  0  0  0  0  0  0  0  0
    9.1527   -5.2118   16.2116 C   0  0  0  0  0  0  0  0  0  0  0  0
   10.3364   -3.8368   22.9255 O   0  0  0  0  0  0  0  0  0  0  0  0
    9.6947   -4.8407   18.8534 C   0  0  0  0  0  0  0  0  0  0  0  0
    9.1596    1.7042   24.1381 C   0  0  0  0  0  0  0  0  0  0  0  0
   11.0456   -2.9774   18.2694 N   0  0  0  0  0  0  0  0  0  0  0  0
   10.4788   -3.0457   21.8593 C   0  0  0  0  0  0  0  0  0  0  0  0
    8.8693   -5.8099   18.4657 N   0  0  0  0  0  0  0  0  0  0  0  0
    8.9892   -0.7926   25.4573 C   0  0  0  0  0  0  0  0  0  0  0  0
   10.5677   -3.4462   20.5323 C   0  0  0  0  0  0  0  0  0  0  0  0
  1  8  1  0
  1 12  4  0
  1 14  4  0
  2  3  4  0
  2 18  4  0
  3 20  4  0
  3 22  4  0
  4 11  4  0
  4 21  4  0
  5  9  4  0
  5 16  4  0
  6 15  4  0
  6 16  4  0
  7 22  4  0
  7 26  4  0
  8 10  4  0
  8 25  4  0
  9 15  4  0
  9 17  1  0
 10 21  4  0
 11 25  4  0
 12 23  4  0
 13 20  4  0
 13 26  4  0
 14 19  4  0
 17 18  4  0
 17 24  4  0
 19 23  4  0
 20 24  4  0
 23 26  1  0
M  END
$$$$

 Created by Python create_sdf_string function

 26 30  0  0  0  0  0  0  0  0999 V2000
   10.0084   -1.8019   23.4945 C   0  0  0  0  0  0  0  0  0  0  0  0
   10.0005   -4.2520   16.5631 C   0  0  0  0  0  0  0  0  0  0  0  0
   10.2759   -4.0036   17.8845 C   0  0  0  0  0  0  0  0  0  0  0  0
    8.5652    1.5478   25.3778 N   0  0  0  0  0  0  0  0  0  0  0  0
    6.8048   -7.5457   17.8752 C   0  0  0  0  0  0  0  0  0  0  0  0
    6.1721   -8.2186   15.9886 N   0  0  0  0  0  0  0  0  0  0  0  0
   11.1764   -2.6600   19.5604 C   0  0  0  0  0  0  0  0  0  0  0  0
    9.5491   -0.6380   24.1912 C   0  0  0  0  0  0  0  0  0  0  0  0
    7.5337   -6.9256   16.9519 C   0  0  0  0  0  0  0  0  0  0  0  0
    9.6782    0.5671   23.5143 C   0  0  0  0  0  0  0  0  0  0  0  0
    8.4532    0.3482   26.0821 C   0  0  0  0  0  0  0  0  0  0  0  0
   10.4239   -1.7677   22.2230 N   0  0  0  0  0  0  0  0  0  0  0  0
    9.9468   -4.5953   20.1709 C   0  0  0  0  0  0  0  0  0  0  0  0
   10.0366   -3.0590   23.9864 N   0  0  0  0  0  0  0  0  0  0  0  0
    7.1191   -7.3636   15.7739 C   0  0  0  0  0  0  0  0  0  0  0  0
    5.9612   -8.3203   17.2732 N   0  0  0  0  0  0  0  0  0  0  0  0
    8.5296   -5.9814   17.1841 C   0  0  0  0  0  0  0  0  0  0  0  0
    9.1527   -5.2118   16.2116 C   0  0  0  0  0  0  0  0  0  0  0  0
   10.3364   -3.8368   22.9255 O   0  0  0  0  0  0  0  0  0  0  0  0
    9.6947   -4.8407   18.8534 C   0  0  0  0  0  0  0  0  0  0  0  0
    9.1596    1.7042   24.1381 C   0  0  0  0  0  0  0  0  0  0  0  0
   11.0456   -2.9774   18.2694 N   0  0  0  0  0  0  0  0  0  0  0  0
   10.4788   -3.0457   21.8593 C   0  0  0  0  0  0  0  0  0  0  0  0
    8.8693   -5.8099   18.4657 N   0  0  0  0  0  0  0  0  0  0  0  0
    8.9892   -0.7926   25.4573 C   0  0  0  0  0  0  0  0  0  0  0  0
   10.5677   -3.4462   20.5323 C   0  0  0  0  0  0  0  0  0  0  0  0
  1  8  1  0
  1 12  4  0
  1 14  4  0
  2  3  4  0
  2 18  4  0
  3 20  4  0
  3 22  4  0
  4 11  4  0
  4 21  4  0
  5  9  4  0
  5 16  4  0
  6 15  4  0
  6 16  4  0
  7 22  4  0
  7 26  4  0
  8 10  4  0
  8 25  4  0
  9 15  4  0
  9 17  1  0
 10 21  4  0
 11 25  4  0
 12 23  4  0
 13 20  4  0
 13 26  4  0
 14 19  4  0
 17 18  4  0
 17 24  4  0
 19 23  4  0
 20 24  4  0
 23 26  1  0
M  END
$$$$

 Created by Python create_sdf_string function

 26 30  0  0  0  0  0  0  0  0999 V2000
   10.0084   -1.8019   23.4945 C   0  0  0  0  0  0  0  0  0  0  0  0
   10.0005   -4.2520   16.5631 C   0  0  0  0  0  0  0  0  0  0  0  0
   10.2759   -4.0036   17.8845 C   0  0  0  0  0  0  0  0  0  0  0  0
    8.5652    1.5478   25.3778 N   0  0  0  0  0  0  0  0  0  0  0  0
    6.8048   -7.5457   17.8752 C   0  0  0  0  0  0  0  0  0  0  0  0
    6.1721   -8.2186   15.9886 N   0  0  0  0  0  0  0  0  0  0  0  0
   11.1764   -2.6600   19.5604 C   0  0  0  0  0  0  0  0  0  0  0  0
    9.5491   -0.6380   24.1912 C   0  0  0  0  0  0  0  0  0  0  0  0
    7.5337   -6.9256   16.9519 C   0  0  0  0  0  0  0  0  0  0  0  0
    9.6782    0.5671   23.5143 C   0  0  0  0  0  0  0  0  0  0  0  0
    8.4532    0.3482   26.0821 C   0  0  0  0  0  0  0  0  0  0  0  0
   10.4239   -1.7677   22.2230 N   0  0  0  0  0  0  0  0  0  0  0  0
    9.9468   -4.5953   20.1709 C   0  0  0  0  0  0  0  0  0  0  0  0
   10.0366   -3.0590   23.9864 N   0  0  0  0  0  0  0  0  0  0  0  0
    7.1191   -7.3636   15.7739 C   0  0  0  0  0  0  0  0  0  0  0  0
    5.9612   -8.3203   17.2732 N   0  0  0  0  0  0  0  0  0  0  0  0
    8.5296   -5.9814   17.1841 C   0  0  0  0  0  0  0  0  0  0  0  0
    9.1527   -5.2118   16.2116 C   0  0  0  0  0  0  0  0  0  0  0  0
   10.3364   -3.8368   22.9255 O   0  0  0  0  0  0  0  0  0  0  0  0
    9.6947   -4.8407   18.8534 C   0  0  0  0  0  0  0  0  0  0  0  0
    9.1596    1.7042   24.1381 C   0  0  0  0  0  0  0  0  0  0  0  0
   11.0456   -2.9774   18.2694 N   0  0  0  0  0  0  0  0  0  0  0  0
   10.4788   -3.0457   21.8593 C   0  0  0  0  0  0  0  0  0  0  0  0
    8.8693   -5.8099   18.4657 N   0  0  0  0  0  0  0  0  0  0  0  0
    8.9892   -0.7926   25.4573 C   0  0  0  0  0  0  0  0  0  0  0  0
   10.5677   -3.4462   20.5323 C   0  0  0  0  0  0  0  0  0  0  0  0
  1  8  1  0
  1 12  4  0
  1 14  4  0
  2  3  4  0
  2 18  4  0
  3 20  4  0
  3 22  4  0
  4 11  4  0
  4 21  4  0
  5  9  4  0
  5 16  4  0
  6 15  4  0
  6 16  4  0
  7 22  4  0
  7 26  4  0
  8 10  4  0
  8 25  4  0
  9 15  4  0
  9 17  1  0
 10 21  4  0
 11 25  4  0
 12 23  4  0
 13 20  4  0
 13 26  4  0
 14 19  4  0
 17 18  4  0
 17 24  4  0
 19 23  4  0
 20 24  4  0
 23 26  1  0
M  END
$$$$

 Created by Python create_sdf_string function

 26 30  0  0  0  0  0  0  0  0999 V2000
   10.0084   -1.8019   23.4945 C   0  0  0  0  0  0  0  0  0  0  0  0
   10.0005   -4.2520   16.5631 C   0  0  0  0  0  0  0  0  0  0  0  0
   10.2759   -4.0036   17.8845 C   0  0  0  0  0  0  0  0  0  0  0  0
    8.5652    1.5478   25.3778 N   0  0  0  0  0  0  0  0  0  0  0  0
    6.8048   -7.5457   17.8752 C   0  0  0  0  0  0  0  0  0  0  0  0
    6.1721   -8.2186   15.9886 N   0  0  0  0  0  0  0  0  0  0  0  0
   11.1764   -2.6600   19.5604 C   0  0  0  0  0  0  0  0  0  0  0  0
    9.5491   -0.6380   24.1912 C   0  0  0  0  0  0  0  0  0  0  0  0
    7.5337   -6.9256   16.9519 C   0  0  0  0  0  0  0  0  0  0  0  0
    9.6782    0.5671   23.5143 C   0  0  0  0  0  0  0  0  0  0  0  0
    8.4532    0.3482   26.0821 C   0  0  0  0  0  0  0  0  0  0  0  0
   10.4239   -1.7677   22.2230 N   0  0  0  0  0  0  0  0  0  0  0  0
    9.9468   -4.5953   20.1709 C   0  0  0  0  0  0  0  0  0  0  0  0
   10.0366   -3.0590   23.9864 N   0  0  0  0  0  0  0  0  0  0  0  0
    7.1191   -7.3636   15.7739 C   0  0  0  0  0  0  0  0  0  0  0  0
    5.9612   -8.3203   17.2732 N   0  0  0  0  0  0  0  0  0  0  0  0
    8.5296   -5.9814   17.1841 C   0  0  0  0  0  0  0  0  0  0  0  0
    9.1527   -5.2118   16.2116 C   0  0  0  0  0  0  0  0  0  0  0  0
   10.3364   -3.8368   22.9255 O   0  0  0  0  0  0  0  0  0  0  0  0
    9.6947   -4.8407   18.8534 C   0  0  0  0  0  0  0  0  0  0  0  0
    9.1596    1.7042   24.1381 C   0  0  0  0  0  0  0  0  0  0  0  0
   11.0456   -2.9774   18.2694 N   0  0  0  0  0  0  0  0  0  0  0  0
   10.4788   -3.0457   21.8593 C   0  0  0  0  0  0  0  0  0  0  0  0
    8.8693   -5.8099   18.4657 N   0  0  0  0  0  0  0  0  0  0  0  0
    8.9892   -0.7926   25.4573 C   0  0  0  0  0  0  0  0  0  0  0  0
   10.5677   -3.4462   20.5323 C   0  0  0  0  0  0  0  0  0  0  0  0
  1  8  1  0
  1 12  4  0
  1 14  4  0
  2  3  4  0
  2 18  4  0
  3 20  4  0
  3 22  4  0
  4 11  4  0
  4 21  4  0
  5  9  4  0
  5 16  4  0
  6 15  4  0
  6 16  4  0
  7 22  4  0
  7 26  4  0
  8 10  4  0
  8 25  4  0
  9 15  4  0
  9 17  1  0
 10 21  4  0
 11 25  4  0
 12 23  4  0
 13 20  4  0
 13 26  4  0
 14 19  4  0
 17 18  4  0
 17 24  4  0
 19 23  4  0
 20 24  4  0
 23 26  1  0
M  END
$$$$

 Created by Python create_sdf_string function

 26 30  0  0  0  0  0  0  0  0999 V2000
   10.0084   -1.8019   23.4945 C   0  0  0  0  0  0  0  0  0  0  0  0
   10.0005   -4.2520   16.5631 C   0  0  0  0  0  0  0  0  0  0  0  0
   10.2759   -4.0036   17.8845 C   0  0  0  0  0  0  0  0  0  0  0  0
    8.5652    1.5478   25.3778 N   0  0  0  0  0  0  0  0  0  0  0  0
    6.8048   -7.5457   17.8752 C   0  0  0  0  0  0  0  0  0  0  0  0
    6.1721   -8.2186   15.9886 N   0  0  0  0  0  0  0  0  0  0  0  0
   11.1764   -2.6600   19.5604 C   0  0  0  0  0  0  0  0  0  0  0  0
    9.5491   -0.6380   24.1912 C   0  0  0  0  0  0  0  0  0  0  0  0
    7.5337   -6.9256   16.9519 C   0  0  0  0  0  0  0  0  0  0  0  0
    9.6782    0.5671   23.5143 C   0  0  0  0  0  0  0  0  0  0  0  0
    8.4532    0.3482   26.0821 C   0  0  0  0  0  0  0  0  0  0  0  0
   10.4239   -1.7677   22.2230 N   0  0  0  0  0  0  0  0  0  0  0  0
    9.9468   -4.5953   20.1709 C   0  0  0  0  0  0  0  0  0  0  0  0
   10.0366   -3.0590   23.9864 N   0  0  0  0  0  0  0  0  0  0  0  0
    7.1191   -7.3636   15.7739 C   0  0  0  0  0  0  0  0  0  0  0  0
    5.9612   -8.3203   17.2732 N   0  0  0  0  0  0  0  0  0  0  0  0
    8.5296   -5.9814   17.1841 C   0  0  0  0  0  0  0  0  0  0  0  0
    9.1527   -5.2118   16.2116 C   0  0  0  0  0  0  0  0  0  0  0  0
   10.3364   -3.8368   22.9255 O   0  0  0  0  0  0  0  0  0  0  0  0
    9.6947   -4.8407   18.8534 C   0  0  0  0  0  0  0  0  0  0  0  0
    9.1596    1.7042   24.1381 C   0  0  0  0  0  0  0  0  0  0  0  0
   11.0456   -2.9774   18.2694 N   0  0  0  0  0  0  0  0  0  0  0  0
   10.4788   -3.0457   21.8593 C   0  0  0  0  0  0  0  0  0  0  0  0
    8.8693   -5.8099   18.4657 N   0  0  0  0  0  0  0  0  0  0  0  0
    8.9892   -0.7926   25.4573 C   0  0  0  0  0  0  0  0  0  0  0  0
   10.5677   -3.4462   20.5323 C   0  0  0  0  0  0  0  0  0  0  0  0
  1  8  1  0
  1 12  4  0
  1 14  4  0
  2  3  4  0
  2 18  4  0
  3 20  4  0
  3 22  4  0
  4 11  4  0
  4 21  4  0
  5  9  4  0
  5 16  4  0
  6 15  4  0
  6 16  4  0
  7 22  4  0
  7 26  4  0
  8 10  4  0
  8 25  4  0
  9 15  4  0
  9 17  1  0
 10 21  4  0
 11 25  4  0
 12 23  4  0
 13 20  4  0
 13 26  4  0
 14 19  4  0
 17 18  4  0
 17 24  4  0
 19 23  4  0
 20 24  4  0
 23 26  1  0
M  END
$$$$

 Created by Python create_sdf_string function

 26 30  0  0  0  0  0  0  0  0999 V2000
   10.0084   -1.8019   23.4945 C   0  0  0  0  0  0  0  0  0  0  0  0
   10.0005   -4.2520   16.5631 C   0  0  0  0  0  0  0  0  0  0  0  0
   10.2759   -4.0036   17.8845 C   0  0  0  0  0  0  0  0  0  0  0  0
    8.5652    1.5478   25.3778 N   0  0  0  0  0  0  0  0  0  0  0  0
    6.8048   -7.5457   17.8752 C   0  0  0  0  0  0  0  0  0  0  0  0
    6.1721   -8.2186   15.9886 N   0  0  0  0  0  0  0  0  0  0  0  0
   11.1764   -2.6600   19.5604 C   0  0  0  0  0  0  0  0  0  0  0  0
    9.5491   -0.6380   24.1912 C   0  0  0  0  0  0  0  0  0  0  0  0
    7.5337   -6.9256   16.9519 C   0  0  0  0  0  0  0  0  0  0  0  0
    9.6782    0.5671   23.5143 C   0  0  0  0  0  0  0  0  0  0  0  0
    8.4532    0.3482   26.0821 C   0  0  0  0  0  0  0  0  0  0  0  0
   10.4239   -1.7677   22.2230 N   0  0  0  0  0  0  0  0  0  0  0  0
    9.9468   -4.5953   20.1709 C   0  0  0  0  0  0  0  0  0  0  0  0
   10.0366   -3.0590   23.9864 N   0  0  0  0  0  0  0  0  0  0  0  0
    7.1191   -7.3636   15.7739 C   0  0  0  0  0  0  0  0  0  0  0  0
    5.9612   -8.3203   17.2732 N   0  0  0  0  0  0  0  0  0  0  0  0
    8.5296   -5.9814   17.1841 C   0  0  0  0  0  0  0  0  0  0  0  0
    9.1527   -5.2118   16.2116 C   0  0  0  0  0  0  0  0  0  0  0  0
   10.3364   -3.8368   22.9255 O   0  0  0  0  0  0  0  0  0  0  0  0
    9.6947   -4.8407   18.8534 C   0  0  0  0  0  0  0  0  0  0  0  0
    9.1596    1.7042   24.1381 C   0  0  0  0  0  0  0  0  0  0  0  0
   11.0456   -2.9774   18.2694 N   0  0  0  0  0  0  0  0  0  0  0  0
   10.4788   -3.0457   21.8593 C   0  0  0  0  0  0  0  0  0  0  0  0
    8.8693   -5.8099   18.4657 N   0  0  0  0  0  0  0  0  0  0  0  0
    8.9892   -0.7926   25.4573 C   0  0  0  0  0  0  0  0  0  0  0  0
   10.5677   -3.4462   20.5323 C   0  0  0  0  0  0  0  0  0  0  0  0
  1  8  1  0
  1 12  4  0
  1 14  4  0
  2  3  4  0
  2 18  4  0
  3 20  4  0
  3 22  4  0
  4 11  4  0
  4 21  4  0
  5  9  4  0
  5 16  4  0
  6 15  4  0
  6 16  4  0
  7 22  4  0
  7 26  4  0
  8 10  4  0
  8 25  4  0
  9 15  4  0
  9 17  1  0
 10 21  4  0
 11 25  4  0
 12 23  4  0
 13 20  4  0
 13 26  4  0
 14 19  4  0
 17 18  4  0
 17 24  4  0
 19 23  4  0
 20 24  4  0
 23 26  1  0
M  END
$$$$

 Created by Python create_sdf_string function

 26 30  0  0  0  0  0  0  0  0999 V2000
   10.0084   -1.8019   23.4945 C   0  0  0  0  0  0  0  0  0  0  0  0
   10.0005   -4.2520   16.5631 C   0  0  0  0  0  0  0  0  0  0  0  0
   10.2759   -4.0036   17.8845 C   0  0  0  0  0  0  0  0  0  0  0  0
    8.5652    1.5478   25.3778 N   0  0  0  0  0  0  0  0  0  0  0  0
    6.8048   -7.5457   17.8752 C   0  0  0  0  0  0  0  0  0  0  0  0
    6.1721   -8.2186   15.9886 N   0  0  0  0  0  0  0  0  0  0  0  0
   11.1764   -2.6600   19.5604 C   0  0  0  0  0  0  0  0  0  0  0  0
    9.5491   -0.6380   24.1912 C   0  0  0  0  0  0  0  0  0  0  0  0
    7.5337   -6.9256   16.9519 C   0  0  0  0  0  0  0  0  0  0  0  0
    9.6782    0.5671   23.5143 C   0  0  0  0  0  0  0  0  0  0  0  0
    8.4532    0.3482   26.0821 C   0  0  0  0  0  0  0  0  0  0  0  0
   10.4239   -1.7677   22.2230 N   0  0  0  0  0  0  0  0  0  0  0  0
    9.9468   -4.5953   20.1709 C   0  0  0  0  0  0  0  0  0  0  0  0
   10.0366   -3.0590   23.9864 N   0  0  0  0  0  0  0  0  0  0  0  0
    7.1191   -7.3636   15.7739 C   0  0  0  0  0  0  0  0  0  0  0  0
    5.9612   -8.3203   17.2732 N   0  0  0  0  0  0  0  0  0  0  0  0
    8.5296   -5.9814   17.1841 C   0  0  0  0  0  0  0  0  0  0  0  0
    9.1527   -5.2118   16.2116 C   0  0  0  0  0  0  0  0  0  0  0  0
   10.3364   -3.8368   22.9255 O   0  0  0  0  0  0  0  0  0  0  0  0
    9.6947   -4.8407   18.8534 C   0  0  0  0  0  0  0  0  0  0  0  0
    9.1596    1.7042   24.1381 C   0  0  0  0  0  0  0  0  0  0  0  0
   11.0456   -2.9774   18.2694 N   0  0  0  0  0  0  0  0  0  0  0  0
   10.4788   -3.0457   21.8593 C   0  0  0  0  0  0  0  0  0  0  0  0
    8.8693   -5.8099   18.4657 N   0  0  0  0  0  0  0  0  0  0  0  0
    8.9892   -0.7926   25.4573 C   0  0  0  0  0  0  0  0  0  0  0  0
   10.5677   -3.4462   20.5323 C   0  0  0  0  0  0  0  0  0  0  0  0
  1  8  1  0
  1 12  4  0
  1 14  4  0
  2  3  4  0
  2 18  4  0
  3 20  4  0
  3 22  4  0
  4 11  4  0
  4 21  4  0
  5  9  4  0
  5 16  4  0
  6 15  4  0
  6 16  4  0
  7 22  4  0
  7 26  4  0
  8 10  4  0
  8 25  4  0
  9 15  4  0
  9 17  1  0
 10 21  4  0
 11 25  4  0
 12 23  4  0
 13 20  4  0
 13 26  4  0
 14 19  4  0
 17 18  4  0
 17 24  4  0
 19 23  4  0
 20 24  4  0
 23 26  1  0
M  END
$$$$

 Created by Python create_sdf_string function

 26 30  0  0  0  0  0  0  0  0999 V2000
   10.0084   -1.8019   23.4945 C   0  0  0  0  0  0  0  0  0  0  0  0
   10.0005   -4.2520   16.5631 C   0  0  0  0  0  0  0  0  0  0  0  0
   10.2759   -4.0036   17.8845 C   0  0  0  0  0  0  0  0  0  0  0  0
    8.5652    1.5478   25.3778 N   0  0  0  0  0  0  0  0  0  0  0  0
    6.8048   -7.5457   17.8752 C   0  0  0  0  0  0  0  0  0  0  0  0
    6.1721   -8.2186   15.9886 N   0  0  0  0  0  0  0  0  0  0  0  0
   11.1764   -2.6600   19.5604 C   0  0  0  0  0  0  0  0  0  0  0  0
    9.5491   -0.6380   24.1912 C   0  0  0  0  0  0  0  0  0  0  0  0
    7.5337   -6.9256   16.9519 C   0  0  0  0  0  0  0  0  0  0  0  0
    9.6782    0.5671   23.5143 C   0  0  0  0  0  0  0  0  0  0  0  0
    8.4532    0.3482   26.0821 C   0  0  0  0  0  0  0  0  0  0  0  0
   10.4239   -1.7677   22.2230 N   0  0  0  0  0  0  0  0  0  0  0  0
    9.9468   -4.5953   20.1709 C   0  0  0  0  0  0  0  0  0  0  0  0
   10.0366   -3.0590   23.9864 N   0  0  0  0  0  0  0  0  0  0  0  0
    7.1191   -7.3636   15.7739 C   0  0  0  0  0  0  0  0  0  0  0  0
    5.9612   -8.3203   17.2732 N   0  0  0  0  0  0  0  0  0  0  0  0
    8.5296   -5.9814   17.1841 C   0  0  0  0  0  0  0  0  0  0  0  0
    9.1527   -5.2118   16.2116 C   0  0  0  0  0  0  0  0  0  0  0  0
   10.3364   -3.8368   22.9255 O   0  0  0  0  0  0  0  0  0  0  0  0
    9.6947   -4.8407   18.8534 C   0  0  0  0  0  0  0  0  0  0  0  0
    9.1596    1.7042   24.1381 C   0  0  0  0  0  0  0  0  0  0  0  0
   11.0456   -2.9774   18.2694 N   0  0  0  0  0  0  0  0  0  0  0  0
   10.4788   -3.0457   21.8593 C   0  0  0  0  0  0  0  0  0  0  0  0
    8.8693   -5.8099   18.4657 N   0  0  0  0  0  0  0  0  0  0  0  0
    8.9892   -0.7926   25.4573 C   0  0  0  0  0  0  0  0  0  0  0  0
   10.5677   -3.4462   20.5323 C   0  0  0  0  0  0  0  0  0  0  0  0
  1  8  1  0
  1 12  4  0
  1 14  4  0
  2  3  4  0
  2 18  4  0
  3 20  4  0
  3 22  4  0
  4 11  4  0
  4 21  4  0
  5  9  4  0
  5 16  4  0
  6 15  4  0
  6 16  4  0
  7 22  4  0
  7 26  4  0
  8 10  4  0
  8 25  4  0
  9 15  4  0
  9 17  1  0
 10 21  4  0
 11 25  4  0
 12 23  4  0
 13 20  4  0
 13 26  4  0
 14 19  4  0
 17 18  4  0
 17 24  4  0
 19 23  4  0
 20 24  4  0
 23 26  1  0
M  END
$$$$

 Created by Python create_sdf_string function

 26 30  0  0  0  0  0  0  0  0999 V2000
   10.0084   -1.8019   23.4945 C   0  0  0  0  0  0  0  0  0  0  0  0
   10.0005   -4.2520   16.5631 C   0  0  0  0  0  0  0  0  0  0  0  0
   10.2759   -4.0036   17.8845 C   0  0  0  0  0  0  0  0  0  0  0  0
    8.5652    1.5478   25.3778 N   0  0  0  0  0  0  0  0  0  0  0  0
    6.8048   -7.5457   17.8752 C   0  0  0  0  0  0  0  0  0  0  0  0
    6.1721   -8.2186   15.9886 N   0  0  0  0  0  0  0  0  0  0  0  0
   11.1764   -2.6600   19.5604 C   0  0  0  0  0  0  0  0  0  0  0  0
    9.5491   -0.6380   24.1912 C   0  0  0  0  0  0  0  0  0  0  0  0
    7.5337   -6.9256   16.9519 C   0  0  0  0  0  0  0  0  0  0  0  0
    9.6782    0.5671   23.5143 C   0  0  0  0  0  0  0  0  0  0  0  0
    8.4532    0.3482   26.0821 C   0  0  0  0  0  0  0  0  0  0  0  0
   10.4239   -1.7677   22.2230 N   0  0  0  0  0  0  0  0  0  0  0  0
    9.9468   -4.5953   20.1709 C   0  0  0  0  0  0  0  0  0  0  0  0
   10.0366   -3.0590   23.9864 N   0  0  0  0  0  0  0  0  0  0  0  0
    7.1191   -7.3636   15.7739 C   0  0  0  0  0  0  0  0  0  0  0  0
    5.9612   -8.3203   17.2732 N   0  0  0  0  0  0  0  0  0  0  0  0
    8.5296   -5.9814   17.1841 C   0  0  0  0  0  0  0  0  0  0  0  0
    9.1527   -5.2118   16.2116 C   0  0  0  0  0  0  0  0  0  0  0  0
   10.3364   -3.8368   22.9255 O   0  0  0  0  0  0  0  0  0  0  0  0
    9.6947   -4.8407   18.8534 C   0  0  0  0  0  0  0  0  0  0  0  0
    9.1596    1.7042   24.1381 C   0  0  0  0  0  0  0  0  0  0  0  0
   11.0456   -2.9774   18.2694 N   0  0  0  0  0  0  0  0  0  0  0  0
   10.4788   -3.0457   21.8593 C   0  0  0  0  0  0  0  0  0  0  0  0
    8.8693   -5.8099   18.4657 N   0  0  0  0  0  0  0  0  0  0  0  0
    8.9892   -0.7926   25.4573 C   0  0  0  0  0  0  0  0  0  0  0  0
   10.5677   -3.4462   20.5323 C   0  0  0  0  0  0  0  0  0  0  0  0
  1  8  1  0
  1 12  4  0
  1 14  4  0
  2  3  4  0
  2 18  4  0
  3 20  4  0
  3 22  4  0
  4 11  4  0
  4 21  4  0
  5  9  4  0
  5 16  4  0
  6 15  4  0
  6 16  4  0
  7 22  4  0
  7 26  4  0
  8 10  4  0
  8 25  4  0
  9 15  4  0
  9 17  1  0
 10 21  4  0
 11 25  4  0
 12 23  4  0
 13 20  4  0
 13 26  4  0
 14 19  4  0
 17 18  4  0
 17 24  4  0
 19 23  4  0
 20 24  4  0
 23 26  1  0
M  END
$$$$

 Created by Python create_sdf_string function

 26 30  0  0  0  0  0  0  0  0999 V2000
   10.0084   -1.8019   23.4945 C   0  0  0  0  0  0  0  0  0  0  0  0
   10.0005   -4.2520   16.5631 C   0  0  0  0  0  0  0  0  0  0  0  0
   10.2759   -4.0036   17.8845 C   0  0  0  0  0  0  0  0  0  0  0  0
    8.5652    1.5478   25.3778 N   0  0  0  0  0  0  0  0  0  0  0  0
    6.8048   -7.5457   17.8752 C   0  0  0  0  0  0  0  0  0  0  0  0
    6.1721   -8.2186   15.9886 N   0  0  0  0  0  0  0  0  0  0  0  0
   11.1764   -2.6600   19.5604 C   0  0  0  0  0  0  0  0  0  0  0  0
    9.5491   -0.6380   24.1912 C   0  0  0  0  0  0  0  0  0  0  0  0
    7.5337   -6.9256   16.9519 C   0  0  0  0  0  0  0  0  0  0  0  0
    9.6782    0.5671   23.5143 C   0  0  0  0  0  0  0  0  0  0  0  0
    8.4532    0.3482   26.0821 C   0  0  0  0  0  0  0  0  0  0  0  0
   10.4239   -1.7677   22.2230 N   0  0  0  0  0  0  0  0  0  0  0  0
    9.9468   -4.5953   20.1709 C   0  0  0  0  0  0  0  0  0  0  0  0
   10.0366   -3.0590   23.9864 N   0  0  0  0  0  0  0  0  0  0  0  0
    7.1191   -7.3636   15.7739 C   0  0  0  0  0  0  0  0  0  0  0  0
    5.9612   -8.3203   17.2732 N   0  0  0  0  0  0  0  0  0  0  0  0
    8.5296   -5.9814   17.1841 C   0  0  0  0  0  0  0  0  0  0  0  0
    9.1527   -5.2118   16.2116 C   0  0  0  0  0  0  0  0  0  0  0  0
   10.3364   -3.8368   22.9255 O   0  0  0  0  0  0  0  0  0  0  0  0
    9.6947   -4.8407   18.8534 C   0  0  0  0  0  0  0  0  0  0  0  0
    9.1596    1.7042   24.1381 C   0  0  0  0  0  0  0  0  0  0  0  0
   11.0456   -2.9774   18.2694 N   0  0  0  0  0  0  0  0  0  0  0  0
   10.4788   -3.0457   21.8593 C   0  0  0  0  0  0  0  0  0  0  0  0
    8.8693   -5.8099   18.4657 N   0  0  0  0  0  0  0  0  0  0  0  0
    8.9892   -0.7926   25.4573 C   0  0  0  0  0  0  0  0  0  0  0  0
   10.5677   -3.4462   20.5323 C   0  0  0  0  0  0  0  0  0  0  0  0
  1  8  1  0
  1 12  4  0
  1 14  4  0
  2  3  4  0
  2 18  4  0
  3 20  4  0
  3 22  4  0
  4 11  4  0
  4 21  4  0
  5  9  4  0
  5 16  4  0
  6 15  4  0
  6 16  4  0
  7 22  4  0
  7 26  4  0
  8 10  4  0
  8 25  4  0
  9 15  4  0
  9 17  1  0
 10 21  4  0
 11 25  4  0
 12 23  4  0
 13 20  4  0
 13 26  4  0
 14 19  4  0
 17 18  4  0
 17 24  4  0
 19 23  4  0
 20 24  4  0
 23 26  1  0
M  END
$$$$

 Created by Python create_sdf_string function

 26 30  0  0  0  0  0  0  0  0999 V2000
   10.0084   -1.8019   23.4945 C   0  0  0  0  0  0  0  0  0  0  0  0
   10.0005   -4.2520   16.5631 C   0  0  0  0  0  0  0  0  0  0  0  0
   10.2759   -4.0036   17.8845 C   0  0  0  0  0  0  0  0  0  0  0  0
    8.5652    1.5478   25.3778 N   0  0  0  0  0  0  0  0  0  0  0  0
    6.8048   -7.5457   17.8752 C   0  0  0  0  0  0  0  0  0  0  0  0
    6.1721   -8.2186   15.9886 N   0  0  0  0  0  0  0  0  0  0  0  0
   11.1764   -2.6600   19.5604 C   0  0  0  0  0  0  0  0  0  0  0  0
    9.5491   -0.6380   24.1912 C   0  0  0  0  0  0  0  0  0  0  0  0
    7.5337   -6.9256   16.9519 C   0  0  0  0  0  0  0  0  0  0  0  0
    9.6782    0.5671   23.5143 C   0  0  0  0  0  0  0  0  0  0  0  0
    8.4532    0.3482   26.0821 C   0  0  0  0  0  0  0  0  0  0  0  0
   10.4239   -1.7677   22.2230 N   0  0  0  0  0  0  0  0  0  0  0  0
    9.9468   -4.5953   20.1709 C   0  0  0  0  0  0  0  0  0  0  0  0
   10.0366   -3.0590   23.9864 N   0  0  0  0  0  0  0  0  0  0  0  0
    7.1191   -7.3636   15.7739 C   0  0  0  0  0  0  0  0  0  0  0  0
    5.9612   -8.3203   17.2732 N   0  0  0  0  0  0  0  0  0  0  0  0
    8.5296   -5.9814   17.1841 C   0  0  0  0  0  0  0  0  0  0  0  0
    9.1527   -5.2118   16.2116 C   0  0  0  0  0  0  0  0  0  0  0  0
   10.3364   -3.8368   22.9255 O   0  0  0  0  0  0  0  0  0  0  0  0
    9.6947   -4.8407   18.8534 C   0  0  0  0  0  0  0  0  0  0  0  0
    9.1596    1.7042   24.1381 C   0  0  0  0  0  0  0  0  0  0  0  0
   11.0456   -2.9774   18.2694 N   0  0  0  0  0  0  0  0  0  0  0  0
   10.4788   -3.0457   21.8593 C   0  0  0  0  0  0  0  0  0  0  0  0
    8.8693   -5.8099   18.4657 N   0  0  0  0  0  0  0  0  0  0  0  0
    8.9892   -0.7926   25.4573 C   0  0  0  0  0  0  0  0  0  0  0  0
   10.5677   -3.4462   20.5323 C   0  0  0  0  0  0  0  0  0  0  0  0
  1  8  1  0
  1 12  4  0
  1 14  4  0
  2  3  4  0
  2 18  4  0
  3 20  4  0
  3 22  4  0
  4 11  4  0
  4 21  4  0
  5  9  4  0
  5 16  4  0
  6 15  4  0
  6 16  4  0
  7 22  4  0
  7 26  4  0
  8 10  4  0
  8 25  4  0
  9 15  4  0
  9 17  1  0
 10 21  4  0
 11 25  4  0
 12 23  4  0
 13 20  4  0
 13 26  4  0
 14 19  4  0
 17 18  4  0
 17 24  4  0
 19 23  4  0
 20 24  4  0
 23 26  1  0
M  END
$$$$

 Created by Python create_sdf_string function

 26 30  0  0  0  0  0  0  0  0999 V2000
   10.0084   -1.8019   23.4945 C   0  0  0  0  0  0  0  0  0  0  0  0
   10.0005   -4.2520   16.5631 C   0  0  0  0  0  0  0  0  0  0  0  0
   10.2759   -4.0036   17.8845 C   0  0  0  0  0  0  0  0  0  0  0  0
    8.5652    1.5478   25.3778 N   0  0  0  0  0  0  0  0  0  0  0  0
    6.8048   -7.5457   17.8752 C   0  0  0  0  0  0  0  0  0  0  0  0
    6.1721   -8.2186   15.9886 N   0  0  0  0  0  0  0  0  0  0  0  0
   11.1764   -2.6600   19.5604 C   0  0  0  0  0  0  0  0  0  0  0  0
    9.5491   -0.6380   24.1912 C   0  0  0  0  0  0  0  0  0  0  0  0
    7.5337   -6.9256   16.9519 C   0  0  0  0  0  0  0  0  0  0  0  0
    9.6782    0.5671   23.5143 C   0  0  0  0  0  0  0  0  0  0  0  0
    8.4532    0.3482   26.0821 C   0  0  0  0  0  0  0  0  0  0  0  0
   10.4239   -1.7677   22.2230 N   0  0  0  0  0  0  0  0  0  0  0  0
    9.9468   -4.5953   20.1709 C   0  0  0  0  0  0  0  0  0  0  0  0
   10.0366   -3.0590   23.9864 N   0  0  0  0  0  0  0  0  0  0  0  0
    7.1191   -7.3636   15.7739 C   0  0  0  0  0  0  0  0  0  0  0  0
    5.9612   -8.3203   17.2732 N   0  0  0  0  0  0  0  0  0  0  0  0
    8.5296   -5.9814   17.1841 C   0  0  0  0  0  0  0  0  0  0  0  0
    9.1527   -5.2118   16.2116 C   0  0  0  0  0  0  0  0  0  0  0  0
   10.3364   -3.8368   22.9255 O   0  0  0  0  0  0  0  0  0  0  0  0
    9.6947   -4.8407   18.8534 C   0  0  0  0  0  0  0  0  0  0  0  0
    9.1596    1.7042   24.1381 C   0  0  0  0  0  0  0  0  0  0  0  0
   11.0456   -2.9774   18.2694 N   0  0  0  0  0  0  0  0  0  0  0  0
   10.4788   -3.0457   21.8593 C   0  0  0  0  0  0  0  0  0  0  0  0
    8.8693   -5.8099   18.4657 N   0  0  0  0  0  0  0  0  0  0  0  0
    8.9892   -0.7926   25.4573 C   0  0  0  0  0  0  0  0  0  0  0  0
   10.5677   -3.4462   20.5323 C   0  0  0  0  0  0  0  0  0  0  0  0
  1  8  1  0
  1 12  4  0
  1 14  4  0
  2  3  4  0
  2 18  4  0
  3 20  4  0
  3 22  4  0
  4 11  4  0
  4 21  4  0
  5  9  4  0
  5 16  4  0
  6 15  4  0
  6 16  4  0
  7 22  4  0
  7 26  4  0
  8 10  4  0
  8 25  4  0
  9 15  4  0
  9 17  1  0
 10 21  4  0
 11 25  4  0
 12 23  4  0
 13 20  4  0
 13 26  4  0
 14 19  4  0
 17 18  4  0
 17 24  4  0
 19 23  4  0
 20 24  4  0
 23 26  1  0
M  END
$$$$

 Created by Python create_sdf_string function

 26 30  0  0  0  0  0  0  0  0999 V2000
   10.0084   -1.8019   23.4945 C   0  0  0  0  0  0  0  0  0  0  0  0
   10.0005   -4.2520   16.5631 C   0  0  0  0  0  0  0  0  0  0  0  0
   10.2759   -4.0036   17.8845 C   0  0  0  0  0  0  0  0  0  0  0  0
    8.5652    1.5478   25.3778 N   0  0  0  0  0  0  0  0  0  0  0  0
    6.8048   -7.5457   17.8752 C   0  0  0  0  0  0  0  0  0  0  0  0
    6.1721   -8.2186   15.9886 N   0  0  0  0  0  0  0  0  0  0  0  0
   11.1764   -2.6600   19.5604 C   0  0  0  0  0  0  0  0  0  0  0  0
    9.5491   -0.6380   24.1912 C   0  0  0  0  0  0  0  0  0  0  0  0
    7.5337   -6.9256   16.9519 C   0  0  0  0  0  0  0  0  0  0  0  0
    9.6782    0.5671   23.5143 C   0  0  0  0  0  0  0  0  0  0  0  0
    8.4532    0.3482   26.0821 C   0  0  0  0  0  0  0  0  0  0  0  0
   10.4239   -1.7677   22.2230 N   0  0  0  0  0  0  0  0  0  0  0  0
    9.9468   -4.5953   20.1709 C   0  0  0  0  0  0  0  0  0  0  0  0
   10.0366   -3.0590   23.9864 N   0  0  0  0  0  0  0  0  0  0  0  0
    7.1191   -7.3636   15.7739 C   0  0  0  0  0  0  0  0  0  0  0  0
    5.9612   -8.3203   17.2732 N   0  0  0  0  0  0  0  0  0  0  0  0
    8.5296   -5.9814   17.1841 C   0  0  0  0  0  0  0  0  0  0  0  0
    9.1527   -5.2118   16.2116 C   0  0  0  0  0  0  0  0  0  0  0  0
   10.3364   -3.8368   22.9255 O   0  0  0  0  0  0  0  0  0  0  0  0
    9.6947   -4.8407   18.8534 C   0  0  0  0  0  0  0  0  0  0  0  0
    9.1596    1.7042   24.1381 C   0  0  0  0  0  0  0  0  0  0  0  0
   11.0456   -2.9774   18.2694 N   0  0  0  0  0  0  0  0  0  0  0  0
   10.4788   -3.0457   21.8593 C   0  0  0  0  0  0  0  0  0  0  0  0
    8.8693   -5.8099   18.4657 N   0  0  0  0  0  0  0  0  0  0  0  0
    8.9892   -0.7926   25.4573 C   0  0  0  0  0  0  0  0  0  0  0  0
   10.5677   -3.4462   20.5323 C   0  0  0  0  0  0  0  0  0  0  0  0
  1  8  1  0
  1 12  4  0
  1 14  4  0
  2  3  4  0
  2 18  4  0
  3 20  4  0
  3 22  4  0
  4 11  4  0
  4 21  4  0
  5  9  4  0
  5 16  4  0
  6 15  4  0
  6 16  4  0
  7 22  4  0
  7 26  4  0
  8 10  4  0
  8 25  4  0
  9 15  4  0
  9 17  1  0
 10 21  4  0
 11 25  4  0
 12 23  4  0
 13 20  4  0
 13 26  4  0
 14 19  4  0
 17 18  4  0
 17 24  4  0
 19 23  4  0
 20 24  4  0
 23 26  1  0
M  END
$$$$

 Created by Python create_sdf_string function

 26 30  0  0  0  0  0  0  0  0999 V2000
   10.0084   -1.8019   23.4945 C   0  0  0  0  0  0  0  0  0  0  0  0
   10.0005   -4.2520   16.5631 C   0  0  0  0  0  0  0  0  0  0  0  0
   10.2759   -4.0036   17.8845 C   0  0  0  0  0  0  0  0  0  0  0  0
    8.5652    1.5478   25.3778 N   0  0  0  0  0  0  0  0  0  0  0  0
    6.8048   -7.5457   17.8752 C   0  0  0  0  0  0  0  0  0  0  0  0
    6.1721   -8.2186   15.9886 N   0  0  0  0  0  0  0  0  0  0  0  0
   11.1764   -2.6600   19.5604 C   0  0  0  0  0  0  0  0  0  0  0  0
    9.5491   -0.6380   24.1912 C   0  0  0  0  0  0  0  0  0  0  0  0
    7.5337   -6.9256   16.9519 C   0  0  0  0  0  0  0  0  0  0  0  0
    9.6782    0.5671   23.5143 C   0  0  0  0  0  0  0  0  0  0  0  0
    8.4532    0.3482   26.0821 C   0  0  0  0  0  0  0  0  0  0  0  0
   10.4239   -1.7677   22.2230 N   0  0  0  0  0  0  0  0  0  0  0  0
    9.9468   -4.5953   20.1709 C   0  0  0  0  0  0  0  0  0  0  0  0
   10.0366   -3.0590   23.9864 N   0  0  0  0  0  0  0  0  0  0  0  0
    7.1191   -7.3636   15.7739 C   0  0  0  0  0  0  0  0  0  0  0  0
    5.9612   -8.3203   17.2732 N   0  0  0  0  0  0  0  0  0  0  0  0
    8.5296   -5.9814   17.1841 C   0  0  0  0  0  0  0  0  0  0  0  0
    9.1527   -5.2118   16.2116 C   0  0  0  0  0  0  0  0  0  0  0  0
   10.3364   -3.8368   22.9255 O   0  0  0  0  0  0  0  0  0  0  0  0
    9.6947   -4.8407   18.8534 C   0  0  0  0  0  0  0  0  0  0  0  0
    9.1596    1.7042   24.1381 C   0  0  0  0  0  0  0  0  0  0  0  0
   11.0456   -2.9774   18.2694 N   0  0  0  0  0  0  0  0  0  0  0  0
   10.4788   -3.0457   21.8593 C   0  0  0  0  0  0  0  0  0  0  0  0
    8.8693   -5.8099   18.4657 N   0  0  0  0  0  0  0  0  0  0  0  0
    8.9892   -0.7926   25.4573 C   0  0  0  0  0  0  0  0  0  0  0  0
   10.5677   -3.4462   20.5323 C   0  0  0  0  0  0  0  0  0  0  0  0
  1  8  1  0
  1 12  4  0
  1 14  4  0
  2  3  4  0
  2 18  4  0
  3 20  4  0
  3 22  4  0
  4 11  4  0
  4 21  4  0
  5  9  4  0
  5 16  4  0
  6 15  4  0
  6 16  4  0
  7 22  4  0
  7 26  4  0
  8 10  4  0
  8 25  4  0
  9 15  4  0
  9 17  1  0
 10 21  4  0
 11 25  4  0
 12 23  4  0
 13 20  4  0
 13 26  4  0
 14 19  4  0
 17 18  4  0
 17 24  4  0
 19 23  4  0
 20 24  4  0
 23 26  1  0
M  END
$$$$

 Created by Python create_sdf_string function

 26 30  0  0  0  0  0  0  0  0999 V2000
   10.0084   -1.8019   23.4945 C   0  0  0  0  0  0  0  0  0  0  0  0
   10.0005   -4.2520   16.5631 C   0  0  0  0  0  0  0  0  0  0  0  0
   10.2759   -4.0036   17.8845 C   0  0  0  0  0  0  0  0  0  0  0  0
    8.5652    1.5478   25.3778 N   0  0  0  0  0  0  0  0  0  0  0  0
    6.8048   -7.5457   17.8752 C   0  0  0  0  0  0  0  0  0  0  0  0
    6.1721   -8.2186   15.9886 N   0  0  0  0  0  0  0  0  0  0  0  0
   11.1764   -2.6600   19.5604 C   0  0  0  0  0  0  0  0  0  0  0  0
    9.5491   -0.6380   24.1912 C   0  0  0  0  0  0  0  0  0  0  0  0
    7.5337   -6.9256   16.9519 C   0  0  0  0  0  0  0  0  0  0  0  0
    9.6782    0.5671   23.5143 C   0  0  0  0  0  0  0  0  0  0  0  0
    8.4532    0.3482   26.0821 C   0  0  0  0  0  0  0  0  0  0  0  0
   10.4239   -1.7677   22.2230 N   0  0  0  0  0  0  0  0  0  0  0  0
    9.9468   -4.5953   20.1709 C   0  0  0  0  0  0  0  0  0  0  0  0
   10.0366   -3.0590   23.9864 N   0  0  0  0  0  0  0  0  0  0  0  0
    7.1191   -7.3636   15.7739 C   0  0  0  0  0  0  0  0  0  0  0  0
    5.9612   -8.3203   17.2732 N   0  0  0  0  0  0  0  0  0  0  0  0
    8.5296   -5.9814   17.1841 C   0  0  0  0  0  0  0  0  0  0  0  0
    9.1527   -5.2118   16.2116 C   0  0  0  0  0  0  0  0  0  0  0  0
   10.3364   -3.8368   22.9255 O   0  0  0  0  0  0  0  0  0  0  0  0
    9.6947   -4.8407   18.8534 C   0  0  0  0  0  0  0  0  0  0  0  0
    9.1596    1.7042   24.1381 C   0  0  0  0  0  0  0  0  0  0  0  0
   11.0456   -2.9774   18.2694 N   0  0  0  0  0  0  0  0  0  0  0  0
   10.4788   -3.0457   21.8593 C   0  0  0  0  0  0  0  0  0  0  0  0
    8.8693   -5.8099   18.4657 N   0  0  0  0  0  0  0  0  0  0  0  0
    8.9892   -0.7926   25.4573 C   0  0  0  0  0  0  0  0  0  0  0  0
   10.5677   -3.4462   20.5323 C   0  0  0  0  0  0  0  0  0  0  0  0
  1  8  1  0
  1 12  4  0
  1 14  4  0
  2  3  4  0
  2 18  4  0
  3 20  4  0
  3 22  4  0
  4 11  4  0
  4 21  4  0
  5  9  4  0
  5 16  4  0
  6 15  4  0
  6 16  4  0
  7 22  4  0
  7 26  4  0
  8 10  4  0
  8 25  4  0
  9 15  4  0
  9 17  1  0
 10 21  4  0
 11 25  4  0
 12 23  4  0
 13 20  4  0
 13 26  4  0
 14 19  4  0
 17 18  4  0
 17 24  4  0
 19 23  4  0
 20 24  4  0
 23 26  1  0
M  END
$$$$

 Created by Python create_sdf_string function

 26 30  0  0  0  0  0  0  0  0999 V2000
   10.0084   -1.8019   23.4945 C   0  0  0  0  0  0  0  0  0  0  0  0
   10.0005   -4.2520   16.5631 C   0  0  0  0  0  0  0  0  0  0  0  0
   10.2759   -4.0036   17.8845 C   0  0  0  0  0  0  0  0  0  0  0  0
    8.5652    1.5478   25.3778 N   0  0  0  0  0  0  0  0  0  0  0  0
    6.8048   -7.5457   17.8752 C   0  0  0  0  0  0  0  0  0  0  0  0
    6.1721   -8.2186   15.9886 N   0  0  0  0  0  0  0  0  0  0  0  0
   11.1764   -2.6600   19.5604 C   0  0  0  0  0  0  0  0  0  0  0  0
    9.5491   -0.6380   24.1912 C   0  0  0  0  0  0  0  0  0  0  0  0
    7.5337   -6.9256   16.9519 C   0  0  0  0  0  0  0  0  0  0  0  0
    9.6782    0.5671   23.5143 C   0  0  0  0  0  0  0  0  0  0  0  0
    8.4532    0.3482   26.0821 C   0  0  0  0  0  0  0  0  0  0  0  0
   10.4239   -1.7677   22.2230 N   0  0  0  0  0  0  0  0  0  0  0  0
    9.9468   -4.5953   20.1709 C   0  0  0  0  0  0  0  0  0  0  0  0
   10.0366   -3.0590   23.9864 N   0  0  0  0  0  0  0  0  0  0  0  0
    7.1191   -7.3636   15.7739 C   0  0  0  0  0  0  0  0  0  0  0  0
    5.9612   -8.3203   17.2732 N   0  0  0  0  0  0  0  0  0  0  0  0
    8.5296   -5.9814   17.1841 C   0  0  0  0  0  0  0  0  0  0  0  0
    9.1527   -5.2118   16.2116 C   0  0  0  0  0  0  0  0  0  0  0  0
   10.3364   -3.8368   22.9255 O   0  0  0  0  0  0  0  0  0  0  0  0
    9.6947   -4.8407   18.8534 C   0  0  0  0  0  0  0  0  0  0  0  0
    9.1596    1.7042   24.1381 C   0  0  0  0  0  0  0  0  0  0  0  0
   11.0456   -2.9774   18.2694 N   0  0  0  0  0  0  0  0  0  0  0  0
   10.4788   -3.0457   21.8593 C   0  0  0  0  0  0  0  0  0  0  0  0
    8.8693   -5.8099   18.4657 N   0  0  0  0  0  0  0  0  0  0  0  0
    8.9892   -0.7926   25.4573 C   0  0  0  0  0  0  0  0  0  0  0  0
   10.5677   -3.4462   20.5323 C   0  0  0  0  0  0  0  0  0  0  0  0
  1  8  1  0
  1 12  4  0
  1 14  4  0
  2  3  4  0
  2 18  4  0
  3 20  4  0
  3 22  4  0
  4 11  4  0
  4 21  4  0
  5  9  4  0
  5 16  4  0
  6 15  4  0
  6 16  4  0
  7 22  4  0
  7 26  4  0
  8 10  4  0
  8 25  4  0
  9 15  4  0
  9 17  1  0
 10 21  4  0
 11 25  4  0
 12 23  4  0
 13 20  4  0
 13 26  4  0
 14 19  4  0
 17 18  4  0
 17 24  4  0
 19 23  4  0
 20 24  4  0
 23 26  1  0
M  END
$$$$

 Created by Python create_sdf_string function

 26 30  0  0  0  0  0  0  0  0999 V2000
   10.0084   -1.8019   23.4945 C   0  0  0  0  0  0  0  0  0  0  0  0
   10.0005   -4.2520   16.5631 C   0  0  0  0  0  0  0  0  0  0  0  0
   10.2759   -4.0036   17.8845 C   0  0  0  0  0  0  0  0  0  0  0  0
    8.5652    1.5478   25.3778 N   0  0  0  0  0  0  0  0  0  0  0  0
    6.8048   -7.5457   17.8752 C   0  0  0  0  0  0  0  0  0  0  0  0
    6.1721   -8.2186   15.9886 N   0  0  0  0  0  0  0  0  0  0  0  0
   11.1764   -2.6600   19.5604 C   0  0  0  0  0  0  0  0  0  0  0  0
    9.5491   -0.6380   24.1912 C   0  0  0  0  0  0  0  0  0  0  0  0
    7.5337   -6.9256   16.9519 C   0  0  0  0  0  0  0  0  0  0  0  0
    9.6782    0.5671   23.5143 C   0  0  0  0  0  0  0  0  0  0  0  0
    8.4532    0.3482   26.0821 C   0  0  0  0  0  0  0  0  0  0  0  0
   10.4239   -1.7677   22.2230 N   0  0  0  0  0  0  0  0  0  0  0  0
    9.9468   -4.5953   20.1709 C   0  0  0  0  0  0  0  0  0  0  0  0
   10.0366   -3.0590   23.9864 N   0  0  0  0  0  0  0  0  0  0  0  0
    7.1191   -7.3636   15.7739 C   0  0  0  0  0  0  0  0  0  0  0  0
    5.9612   -8.3203   17.2732 N   0  0  0  0  0  0  0  0  0  0  0  0
    8.5296   -5.9814   17.1841 C   0  0  0  0  0  0  0  0  0  0  0  0
    9.1527   -5.2118   16.2116 C   0  0  0  0  0  0  0  0  0  0  0  0
   10.3364   -3.8368   22.9255 O   0  0  0  0  0  0  0  0  0  0  0  0
    9.6947   -4.8407   18.8534 C   0  0  0  0  0  0  0  0  0  0  0  0
    9.1596    1.7042   24.1381 C   0  0  0  0  0  0  0  0  0  0  0  0
   11.0456   -2.9774   18.2694 N   0  0  0  0  0  0  0  0  0  0  0  0
   10.4788   -3.0457   21.8593 C   0  0  0  0  0  0  0  0  0  0  0  0
    8.8693   -5.8099   18.4657 N   0  0  0  0  0  0  0  0  0  0  0  0
    8.9892   -0.7926   25.4573 C   0  0  0  0  0  0  0  0  0  0  0  0
   10.5677   -3.4462   20.5323 C   0  0  0  0  0  0  0  0  0  0  0  0
  1  8  1  0
  1 12  4  0
  1 14  4  0
  2  3  4  0
  2 18  4  0
  3 20  4  0
  3 22  4  0
  4 11  4  0
  4 21  4  0
  5  9  4  0
  5 16  4  0
  6 15  4  0
  6 16  4  0
  7 22  4  0
  7 26  4  0
  8 10  4  0
  8 25  4  0
  9 15  4  0
  9 17  1  0
 10 21  4  0
 11 25  4  0
 12 23  4  0
 13 20  4  0
 13 26  4  0
 14 19  4  0
 17 18  4  0
 17 24  4  0
 19 23  4  0
 20 24  4  0
 23 26  1  0
M  END
$$$$

 Created by Python create_sdf_string function

 26 30  0  0  0  0  0  0  0  0999 V2000
   10.0084   -1.8019   23.4945 C   0  0  0  0  0  0  0  0  0  0  0  0
   10.0005   -4.2520   16.5631 C   0  0  0  0  0  0  0  0  0  0  0  0
   10.2759   -4.0036   17.8845 C   0  0  0  0  0  0  0  0  0  0  0  0
    8.5652    1.5478   25.3778 N   0  0  0  0  0  0  0  0  0  0  0  0
    6.8048   -7.5457   17.8752 C   0  0  0  0  0  0  0  0  0  0  0  0
    6.1721   -8.2186   15.9886 N   0  0  0  0  0  0  0  0  0  0  0  0
   11.1764   -2.6600   19.5604 C   0  0  0  0  0  0  0  0  0  0  0  0
    9.5491   -0.6380   24.1912 C   0  0  0  0  0  0  0  0  0  0  0  0
    7.5337   -6.9256   16.9519 C   0  0  0  0  0  0  0  0  0  0  0  0
    9.6782    0.5671   23.5143 C   0  0  0  0  0  0  0  0  0  0  0  0
    8.4532    0.3482   26.0821 C   0  0  0  0  0  0  0  0  0  0  0  0
   10.4239   -1.7677   22.2230 N   0  0  0  0  0  0  0  0  0  0  0  0
    9.9468   -4.5953   20.1709 C   0  0  0  0  0  0  0  0  0  0  0  0
   10.0366   -3.0590   23.9864 N   0  0  0  0  0  0  0  0  0  0  0  0
    7.1191   -7.3636   15.7739 C   0  0  0  0  0  0  0  0  0  0  0  0
    5.9612   -8.3203   17.2732 N   0  0  0  0  0  0  0  0  0  0  0  0
    8.5296   -5.9814   17.1841 C   0  0  0  0  0  0  0  0  0  0  0  0
    9.1527   -5.2118   16.2116 C   0  0  0  0  0  0  0  0  0  0  0  0
   10.3364   -3.8368   22.9255 O   0  0  0  0  0  0  0  0  0  0  0  0
    9.6947   -4.8407   18.8534 C   0  0  0  0  0  0  0  0  0  0  0  0
    9.1596    1.7042   24.1381 C   0  0  0  0  0  0  0  0  0  0  0  0
   11.0456   -2.9774   18.2694 N   0  0  0  0  0  0  0  0  0  0  0  0
   10.4788   -3.0457   21.8593 C   0  0  0  0  0  0  0  0  0  0  0  0
    8.8693   -5.8099   18.4657 N   0  0  0  0  0  0  0  0  0  0  0  0
    8.9892   -0.7926   25.4573 C   0  0  0  0  0  0  0  0  0  0  0  0
   10.5677   -3.4462   20.5323 C   0  0  0  0  0  0  0  0  0  0  0  0
  1  8  1  0
  1 12  4  0
  1 14  4  0
  2  3  4  0
  2 18  4  0
  3 20  4  0
  3 22  4  0
  4 11  4  0
  4 21  4  0
  5  9  4  0
  5 16  4  0
  6 15  4  0
  6 16  4  0
  7 22  4  0
  7 26  4  0
  8 10  4  0
  8 25  4  0
  9 15  4  0
  9 17  1  0
 10 21  4  0
 11 25  4  0
 12 23  4  0
 13 20  4  0
 13 26  4  0
 14 19  4  0
 17 18  4  0
 17 24  4  0
 19 23  4  0
 20 24  4  0
 23 26  1  0
M  END
$$$$

 Created by Python create_sdf_string function

 26 30  0  0  0  0  0  0  0  0999 V2000
   10.0084   -1.8019   23.4945 C   0  0  0  0  0  0  0  0  0  0  0  0
   10.0005   -4.2520   16.5631 C   0  0  0  0  0  0  0  0  0  0  0  0
   10.2759   -4.0036   17.8845 C   0  0  0  0  0  0  0  0  0  0  0  0
    8.5652    1.5478   25.3778 N   0  0  0  0  0  0  0  0  0  0  0  0
    6.8048   -7.5457   17.8752 C   0  0  0  0  0  0  0  0  0  0  0  0
    6.1721   -8.2186   15.9886 N   0  0  0  0  0  0  0  0  0  0  0  0
   11.1764   -2.6600   19.5604 C   0  0  0  0  0  0  0  0  0  0  0  0
    9.5491   -0.6380   24.1912 C   0  0  0  0  0  0  0  0  0  0  0  0
    7.5337   -6.9256   16.9519 C   0  0  0  0  0  0  0  0  0  0  0  0
    9.6782    0.5671   23.5143 C   0  0  0  0  0  0  0  0  0  0  0  0
    8.4532    0.3482   26.0821 C   0  0  0  0  0  0  0  0  0  0  0  0
   10.4239   -1.7677   22.2230 N   0  0  0  0  0  0  0  0  0  0  0  0
    9.9468   -4.5953   20.1709 C   0  0  0  0  0  0  0  0  0  0  0  0
   10.0366   -3.0590   23.9864 N   0  0  0  0  0  0  0  0  0  0  0  0
    7.1191   -7.3636   15.7739 C   0  0  0  0  0  0  0  0  0  0  0  0
    5.9612   -8.3203   17.2732 N   0  0  0  0  0  0  0  0  0  0  0  0
    8.5296   -5.9814   17.1841 C   0  0  0  0  0  0  0  0  0  0  0  0
    9.1527   -5.2118   16.2116 C   0  0  0  0  0  0  0  0  0  0  0  0
   10.3364   -3.8368   22.9255 O   0  0  0  0  0  0  0  0  0  0  0  0
    9.6947   -4.8407   18.8534 C   0  0  0  0  0  0  0  0  0  0  0  0
    9.1596    1.7042   24.1381 C   0  0  0  0  0  0  0  0  0  0  0  0
   11.0456   -2.9774   18.2694 N   0  0  0  0  0  0  0  0  0  0  0  0
   10.4788   -3.0457   21.8593 C   0  0  0  0  0  0  0  0  0  0  0  0
    8.8693   -5.8099   18.4657 N   0  0  0  0  0  0  0  0  0  0  0  0
    8.9892   -0.7926   25.4573 C   0  0  0  0  0  0  0  0  0  0  0  0
   10.5677   -3.4462   20.5323 C   0  0  0  0  0  0  0  0  0  0  0  0
  1  8  1  0
  1 12  4  0
  1 14  4  0
  2  3  4  0
  2 18  4  0
  3 20  4  0
  3 22  4  0
  4 11  4  0
  4 21  4  0
  5  9  4  0
  5 16  4  0
  6 15  4  0
  6 16  4  0
  7 22  4  0
  7 26  4  0
  8 10  4  0
  8 25  4  0
  9 15  4  0
  9 17  1  0
 10 21  4  0
 11 25  4  0
 12 23  4  0
 13 20  4  0
 13 26  4  0
 14 19  4  0
 17 18  4  0
 17 24  4  0
 19 23  4  0
 20 24  4  0
 23 26  1  0
M  END
$$$$

 Created by Python create_sdf_string function

 26 30  0  0  0  0  0  0  0  0999 V2000
   10.0084   -1.8019   23.4945 C   0  0  0  0  0  0  0  0  0  0  0  0
   10.0005   -4.2520   16.5631 C   0  0  0  0  0  0  0  0  0  0  0  0
   10.2759   -4.0036   17.8845 C   0  0  0  0  0  0  0  0  0  0  0  0
    8.5652    1.5478   25.3778 N   0  0  0  0  0  0  0  0  0  0  0  0
    6.8048   -7.5457   17.8752 C   0  0  0  0  0  0  0  0  0  0  0  0
    6.1721   -8.2186   15.9886 N   0  0  0  0  0  0  0  0  0  0  0  0
   11.1764   -2.6600   19.5604 C   0  0  0  0  0  0  0  0  0  0  0  0
    9.5491   -0.6380   24.1912 C   0  0  0  0  0  0  0  0  0  0  0  0
    7.5337   -6.9256   16.9519 C   0  0  0  0  0  0  0  0  0  0  0  0
    9.6782    0.5671   23.5143 C   0  0  0  0  0  0  0  0  0  0  0  0
    8.4532    0.3482   26.0821 C   0  0  0  0  0  0  0  0  0  0  0  0
   10.4239   -1.7677   22.2230 N   0  0  0  0  0  0  0  0  0  0  0  0
    9.9468   -4.5953   20.1709 C   0  0  0  0  0  0  0  0  0  0  0  0
   10.0366   -3.0590   23.9864 N   0  0  0  0  0  0  0  0  0  0  0  0
    7.1191   -7.3636   15.7739 C   0  0  0  0  0  0  0  0  0  0  0  0
    5.9612   -8.3203   17.2732 N   0  0  0  0  0  0  0  0  0  0  0  0
    8.5296   -5.9814   17.1841 C   0  0  0  0  0  0  0  0  0  0  0  0
    9.1527   -5.2118   16.2116 C   0  0  0  0  0  0  0  0  0  0  0  0
   10.3364   -3.8368   22.9255 O   0  0  0  0  0  0  0  0  0  0  0  0
    9.6947   -4.8407   18.8534 C   0  0  0  0  0  0  0  0  0  0  0  0
    9.1596    1.7042   24.1381 C   0  0  0  0  0  0  0  0  0  0  0  0
   11.0456   -2.9774   18.2694 N   0  0  0  0  0  0  0  0  0  0  0  0
   10.4788   -3.0457   21.8593 C   0  0  0  0  0  0  0  0  0  0  0  0
    8.8693   -5.8099   18.4657 N   0  0  0  0  0  0  0  0  0  0  0  0
    8.9892   -0.7926   25.4573 C   0  0  0  0  0  0  0  0  0  0  0  0
   10.5677   -3.4462   20.5323 C   0  0  0  0  0  0  0  0  0  0  0  0
  1  8  1  0
  1 12  4  0
  1 14  4  0
  2  3  4  0
  2 18  4  0
  3 20  4  0
  3 22  4  0
  4 11  4  0
  4 21  4  0
  5  9  4  0
  5 16  4  0
  6 15  4  0
  6 16  4  0
  7 22  4  0
  7 26  4  0
  8 10  4  0
  8 25  4  0
  9 15  4  0
  9 17  1  0
 10 21  4  0
 11 25  4  0
 12 23  4  0
 13 20  4  0
 13 26  4  0
 14 19  4  0
 17 18  4  0
 17 24  4  0
 19 23  4  0
 20 24  4  0
 23 26  1  0
M  END
$$$$

 Created by Python create_sdf_string function

 26 30  0  0  0  0  0  0  0  0999 V2000
   10.0084   -1.8019   23.4945 C   0  0  0  0  0  0  0  0  0  0  0  0
   10.0005   -4.2520   16.5631 C   0  0  0  0  0  0  0  0  0  0  0  0
   10.2759   -4.0036   17.8845 C   0  0  0  0  0  0  0  0  0  0  0  0
    8.5652    1.5478   25.3778 N   0  0  0  0  0  0  0  0  0  0  0  0
    6.8048   -7.5457   17.8752 C   0  0  0  0  0  0  0  0  0  0  0  0
    6.1721   -8.2186   15.9886 N   0  0  0  0  0  0  0  0  0  0  0  0
   11.1764   -2.6600   19.5604 C   0  0  0  0  0  0  0  0  0  0  0  0
    9.5491   -0.6380   24.1912 C   0  0  0  0  0  0  0  0  0  0  0  0
    7.5337   -6.9256   16.9519 C   0  0  0  0  0  0  0  0  0  0  0  0
    9.6782    0.5671   23.5143 C   0  0  0  0  0  0  0  0  0  0  0  0
    8.4532    0.3482   26.0821 C   0  0  0  0  0  0  0  0  0  0  0  0
   10.4239   -1.7677   22.2230 N   0  0  0  0  0  0  0  0  0  0  0  0
    9.9468   -4.5953   20.1709 C   0  0  0  0  0  0  0  0  0  0  0  0
   10.0366   -3.0590   23.9864 N   0  0  0  0  0  0  0  0  0  0  0  0
    7.1191   -7.3636   15.7739 C   0  0  0  0  0  0  0  0  0  0  0  0
    5.9612   -8.3203   17.2732 N   0  0  0  0  0  0  0  0  0  0  0  0
    8.5296   -5.9814   17.1841 C   0  0  0  0  0  0  0  0  0  0  0  0
    9.1527   -5.2118   16.2116 C   0  0  0  0  0  0  0  0  0  0  0  0
   10.3364   -3.8368   22.9255 O   0  0  0  0  0  0  0  0  0  0  0  0
    9.6947   -4.8407   18.8534 C   0  0  0  0  0  0  0  0  0  0  0  0
    9.1596    1.7042   24.1381 C   0  0  0  0  0  0  0  0  0  0  0  0
   11.0456   -2.9774   18.2694 N   0  0  0  0  0  0  0  0  0  0  0  0
   10.4788   -3.0457   21.8593 C   0  0  0  0  0  0  0  0  0  0  0  0
    8.8693   -5.8099   18.4657 N   0  0  0  0  0  0  0  0  0  0  0  0
    8.9892   -0.7926   25.4573 C   0  0  0  0  0  0  0  0  0  0  0  0
   10.5677   -3.4462   20.5323 C   0  0  0  0  0  0  0  0  0  0  0  0
  1  8  1  0
  1 12  4  0
  1 14  4  0
  2  3  4  0
  2 18  4  0
  3 20  4  0
  3 22  4  0
  4 11  4  0
  4 21  4  0
  5  9  4  0
  5 16  4  0
  6 15  4  0
  6 16  4  0
  7 22  4  0
  7 26  4  0
  8 10  4  0
  8 25  4  0
  9 15  4  0
  9 17  1  0
 10 21  4  0
 11 25  4  0
 12 23  4  0
 13 20  4  0
 13 26  4  0
 14 19  4  0
 17 18  4  0
 17 24  4  0
 19 23  4  0
 20 24  4  0
 23 26  1  0
M  END
$$$$

 Created by Python create_sdf_string function

 26 30  0  0  0  0  0  0  0  0999 V2000
   10.0084   -1.8019   23.4945 C   0  0  0  0  0  0  0  0  0  0  0  0
   10.0005   -4.2520   16.5631 C   0  0  0  0  0  0  0  0  0  0  0  0
   10.2759   -4.0036   17.8845 C   0  0  0  0  0  0  0  0  0  0  0  0
    8.5652    1.5478   25.3778 N   0  0  0  0  0  0  0  0  0  0  0  0
    6.8048   -7.5457   17.8752 C   0  0  0  0  0  0  0  0  0  0  0  0
    6.1721   -8.2186   15.9886 N   0  0  0  0  0  0  0  0  0  0  0  0
   11.1764   -2.6600   19.5604 C   0  0  0  0  0  0  0  0  0  0  0  0
    9.5491   -0.6380   24.1912 C   0  0  0  0  0  0  0  0  0  0  0  0
    7.5337   -6.9256   16.9519 C   0  0  0  0  0  0  0  0  0  0  0  0
    9.6782    0.5671   23.5143 C   0  0  0  0  0  0  0  0  0  0  0  0
    8.4532    0.3482   26.0821 C   0  0  0  0  0  0  0  0  0  0  0  0
   10.4239   -1.7677   22.2230 N   0  0  0  0  0  0  0  0  0  0  0  0
    9.9468   -4.5953   20.1709 C   0  0  0  0  0  0  0  0  0  0  0  0
   10.0366   -3.0590   23.9864 N   0  0  0  0  0  0  0  0  0  0  0  0
    7.1191   -7.3636   15.7739 C   0  0  0  0  0  0  0  0  0  0  0  0
    5.9612   -8.3203   17.2732 N   0  0  0  0  0  0  0  0  0  0  0  0
    8.5296   -5.9814   17.1841 C   0  0  0  0  0  0  0  0  0  0  0  0
    9.1527   -5.2118   16.2116 C   0  0  0  0  0  0  0  0  0  0  0  0
   10.3364   -3.8368   22.9255 O   0  0  0  0  0  0  0  0  0  0  0  0
    9.6947   -4.8407   18.8534 C   0  0  0  0  0  0  0  0  0  0  0  0
    9.1596    1.7042   24.1381 C   0  0  0  0  0  0  0  0  0  0  0  0
   11.0456   -2.9774   18.2694 N   0  0  0  0  0  0  0  0  0  0  0  0
   10.4788   -3.0457   21.8593 C   0  0  0  0  0  0  0  0  0  0  0  0
    8.8693   -5.8099   18.4657 N   0  0  0  0  0  0  0  0  0  0  0  0
    8.9892   -0.7926   25.4573 C   0  0  0  0  0  0  0  0  0  0  0  0
   10.5677   -3.4462   20.5323 C   0  0  0  0  0  0  0  0  0  0  0  0
  1  8  1  0
  1 12  4  0
  1 14  4  0
  2  3  4  0
  2 18  4  0
  3 20  4  0
  3 22  4  0
  4 11  4  0
  4 21  4  0
  5  9  4  0
  5 16  4  0
  6 15  4  0
  6 16  4  0
  7 22  4  0
  7 26  4  0
  8 10  4  0
  8 25  4  0
  9 15  4  0
  9 17  1  0
 10 21  4  0
 11 25  4  0
 12 23  4  0
 13 20  4  0
 13 26  4  0
 14 19  4  0
 17 18  4  0
 17 24  4  0
 19 23  4  0
 20 24  4  0
 23 26  1  0
M  END
$$$$

 Created by Python create_sdf_string function

 26 30  0  0  0  0  0  0  0  0999 V2000
   10.0084   -1.8019   23.4945 C   0  0  0  0  0  0  0  0  0  0  0  0
   10.0005   -4.2520   16.5631 C   0  0  0  0  0  0  0  0  0  0  0  0
   10.2759   -4.0036   17.8845 C   0  0  0  0  0  0  0  0  0  0  0  0
    8.5652    1.5478   25.3778 N   0  0  0  0  0  0  0  0  0  0  0  0
    6.8048   -7.5457   17.8752 C   0  0  0  0  0  0  0  0  0  0  0  0
    6.1721   -8.2186   15.9886 N   0  0  0  0  0  0  0  0  0  0  0  0
   11.1764   -2.6600   19.5604 C   0  0  0  0  0  0  0  0  0  0  0  0
    9.5491   -0.6380   24.1912 C   0  0  0  0  0  0  0  0  0  0  0  0
    7.5337   -6.9256   16.9519 C   0  0  0  0  0  0  0  0  0  0  0  0
    9.6782    0.5671   23.5143 C   0  0  0  0  0  0  0  0  0  0  0  0
    8.4532    0.3482   26.0821 C   0  0  0  0  0  0  0  0  0  0  0  0
   10.4239   -1.7677   22.2230 N   0  0  0  0  0  0  0  0  0  0  0  0
    9.9468   -4.5953   20.1709 C   0  0  0  0  0  0  0  0  0  0  0  0
   10.0366   -3.0590   23.9864 N   0  0  0  0  0  0  0  0  0  0  0  0
    7.1191   -7.3636   15.7739 C   0  0  0  0  0  0  0  0  0  0  0  0
    5.9612   -8.3203   17.2732 N   0  0  0  0  0  0  0  0  0  0  0  0
    8.5296   -5.9814   17.1841 C   0  0  0  0  0  0  0  0  0  0  0  0
    9.1527   -5.2118   16.2116 C   0  0  0  0  0  0  0  0  0  0  0  0
   10.3364   -3.8368   22.9255 O   0  0  0  0  0  0  0  0  0  0  0  0
    9.6947   -4.8407   18.8534 C   0  0  0  0  0  0  0  0  0  0  0  0
    9.1596    1.7042   24.1381 C   0  0  0  0  0  0  0  0  0  0  0  0
   11.0456   -2.9774   18.2694 N   0  0  0  0  0  0  0  0  0  0  0  0
   10.4788   -3.0457   21.8593 C   0  0  0  0  0  0  0  0  0  0  0  0
    8.8693   -5.8099   18.4657 N   0  0  0  0  0  0  0  0  0  0  0  0
    8.9892   -0.7926   25.4573 C   0  0  0  0  0  0  0  0  0  0  0  0
   10.5677   -3.4462   20.5323 C   0  0  0  0  0  0  0  0  0  0  0  0
  1  8  1  0
  1 12  4  0
  1 14  4  0
  2  3  4  0
  2 18  4  0
  3 20  4  0
  3 22  4  0
  4 11  4  0
  4 21  4  0
  5  9  4  0
  5 16  4  0
  6 15  4  0
  6 16  4  0
  7 22  4  0
  7 26  4  0
  8 10  4  0
  8 25  4  0
  9 15  4  0
  9 17  1  0
 10 21  4  0
 11 25  4  0
 12 23  4  0
 13 20  4  0
 13 26  4  0
 14 19  4  0
 17 18  4  0
 17 24  4  0
 19 23  4  0
 20 24  4  0
 23 26  1  0
M  END
$$$$

 Created by Python create_sdf_string function

 26 30  0  0  0  0  0  0  0  0999 V2000
   10.0084   -1.8019   23.4945 C   0  0  0  0  0  0  0  0  0  0  0  0
   10.0005   -4.2520   16.5631 C   0  0  0  0  0  0  0  0  0  0  0  0
   10.2759   -4.0036   17.8845 C   0  0  0  0  0  0  0  0  0  0  0  0
    8.5652    1.5478   25.3778 N   0  0  0  0  0  0  0  0  0  0  0  0
    6.8048   -7.5457   17.8752 C   0  0  0  0  0  0  0  0  0  0  0  0
    6.1721   -8.2186   15.9886 N   0  0  0  0  0  0  0  0  0  0  0  0
   11.1764   -2.6600   19.5604 C   0  0  0  0  0  0  0  0  0  0  0  0
    9.5491   -0.6380   24.1912 C   0  0  0  0  0  0  0  0  0  0  0  0
    7.5337   -6.9256   16.9519 C   0  0  0  0  0  0  0  0  0  0  0  0
    9.6782    0.5671   23.5143 C   0  0  0  0  0  0  0  0  0  0  0  0
    8.4532    0.3482   26.0821 C   0  0  0  0  0  0  0  0  0  0  0  0
   10.4239   -1.7677   22.2230 N   0  0  0  0  0  0  0  0  0  0  0  0
    9.9468   -4.5953   20.1709 C   0  0  0  0  0  0  0  0  0  0  0  0
   10.0366   -3.0590   23.9864 N   0  0  0  0  0  0  0  0  0  0  0  0
    7.1191   -7.3636   15.7739 C   0  0  0  0  0  0  0  0  0  0  0  0
    5.9612   -8.3203   17.2732 N   0  0  0  0  0  0  0  0  0  0  0  0
    8.5296   -5.9814   17.1841 C   0  0  0  0  0  0  0  0  0  0  0  0
    9.1527   -5.2118   16.2116 C   0  0  0  0  0  0  0  0  0  0  0  0
   10.3364   -3.8368   22.9255 O   0  0  0  0  0  0  0  0  0  0  0  0
    9.6947   -4.8407   18.8534 C   0  0  0  0  0  0  0  0  0  0  0  0
    9.1596    1.7042   24.1381 C   0  0  0  0  0  0  0  0  0  0  0  0
   11.0456   -2.9774   18.2694 N   0  0  0  0  0  0  0  0  0  0  0  0
   10.4788   -3.0457   21.8593 C   0  0  0  0  0  0  0  0  0  0  0  0
    8.8693   -5.8099   18.4657 N   0  0  0  0  0  0  0  0  0  0  0  0
    8.9892   -0.7926   25.4573 C   0  0  0  0  0  0  0  0  0  0  0  0
   10.5677   -3.4462   20.5323 C   0  0  0  0  0  0  0  0  0  0  0  0
  1  8  1  0
  1 12  4  0
  1 14  4  0
  2  3  4  0
  2 18  4  0
  3 20  4  0
  3 22  4  0
  4 11  4  0
  4 21  4  0
  5  9  4  0
  5 16  4  0
  6 15  4  0
  6 16  4  0
  7 22  4  0
  7 26  4  0
  8 10  4  0
  8 25  4  0
  9 15  4  0
  9 17  1  0
 10 21  4  0
 11 25  4  0
 12 23  4  0
 13 20  4  0
 13 26  4  0
 14 19  4  0
 17 18  4  0
 17 24  4  0
 19 23  4  0
 20 24  4  0
 23 26  1  0
M  END
$$$$

 Created by Python create_sdf_string function

 26 30  0  0  0  0  0  0  0  0999 V2000
   10.0084   -1.8019   23.4945 C   0  0  0  0  0  0  0  0  0  0  0  0
   10.0005   -4.2520   16.5631 C   0  0  0  0  0  0  0  0  0  0  0  0
   10.2759   -4.0036   17.8845 C   0  0  0  0  0  0  0  0  0  0  0  0
    8.5652    1.5478   25.3778 N   0  0  0  0  0  0  0  0  0  0  0  0
    6.8048   -7.5457   17.8752 C   0  0  0  0  0  0  0  0  0  0  0  0
    6.1721   -8.2186   15.9886 N   0  0  0  0  0  0  0  0  0  0  0  0
   11.1764   -2.6600   19.5604 C   0  0  0  0  0  0  0  0  0  0  0  0
    9.5491   -0.6380   24.1912 C   0  0  0  0  0  0  0  0  0  0  0  0
    7.5337   -6.9256   16.9519 C   0  0  0  0  0  0  0  0  0  0  0  0
    9.6782    0.5671   23.5143 C   0  0  0  0  0  0  0  0  0  0  0  0
    8.4532    0.3482   26.0821 C   0  0  0  0  0  0  0  0  0  0  0  0
   10.4239   -1.7677   22.2230 N   0  0  0  0  0  0  0  0  0  0  0  0
    9.9468   -4.5953   20.1709 C   0  0  0  0  0  0  0  0  0  0  0  0
   10.0366   -3.0590   23.9864 N   0  0  0  0  0  0  0  0  0  0  0  0
    7.1191   -7.3636   15.7739 C   0  0  0  0  0  0  0  0  0  0  0  0
    5.9612   -8.3203   17.2732 N   0  0  0  0  0  0  0  0  0  0  0  0
    8.5296   -5.9814   17.1841 C   0  0  0  0  0  0  0  0  0  0  0  0
    9.1527   -5.2118   16.2116 C   0  0  0  0  0  0  0  0  0  0  0  0
   10.3364   -3.8368   22.9255 O   0  0  0  0  0  0  0  0  0  0  0  0
    9.6947   -4.8407   18.8534 C   0  0  0  0  0  0  0  0  0  0  0  0
    9.1596    1.7042   24.1381 C   0  0  0  0  0  0  0  0  0  0  0  0
   11.0456   -2.9774   18.2694 N   0  0  0  0  0  0  0  0  0  0  0  0
   10.4788   -3.0457   21.8593 C   0  0  0  0  0  0  0  0  0  0  0  0
    8.8693   -5.8099   18.4657 N   0  0  0  0  0  0  0  0  0  0  0  0
    8.9892   -0.7926   25.4573 C   0  0  0  0  0  0  0  0  0  0  0  0
   10.5677   -3.4462   20.5323 C   0  0  0  0  0  0  0  0  0  0  0  0
  1  8  1  0
  1 12  4  0
  1 14  4  0
  2  3  4  0
  2 18  4  0
  3 20  4  0
  3 22  4  0
  4 11  4  0
  4 21  4  0
  5  9  4  0
  5 16  4  0
  6 15  4  0
  6 16  4  0
  7 22  4  0
  7 26  4  0
  8 10  4  0
  8 25  4  0
  9 15  4  0
  9 17  1  0
 10 21  4  0
 11 25  4  0
 12 23  4  0
 13 20  4  0
 13 26  4  0
 14 19  4  0
 17 18  4  0
 17 24  4  0
 19 23  4  0
 20 24  4  0
 23 26  1  0
M  END
$$$$

 Created by Python create_sdf_string function

 26 30  0  0  0  0  0  0  0  0999 V2000
   10.0084   -1.8019   23.4945 C   0  0  0  0  0  0  0  0  0  0  0  0
   10.0005   -4.2520   16.5631 C   0  0  0  0  0  0  0  0  0  0  0  0
   10.2759   -4.0036   17.8845 C   0  0  0  0  0  0  0  0  0  0  0  0
    8.5652    1.5478   25.3778 N   0  0  0  0  0  0  0  0  0  0  0  0
    6.8048   -7.5457   17.8752 C   0  0  0  0  0  0  0  0  0  0  0  0
    6.1721   -8.2186   15.9886 N   0  0  0  0  0  0  0  0  0  0  0  0
   11.1764   -2.6600   19.5604 C   0  0  0  0  0  0  0  0  0  0  0  0
    9.5491   -0.6380   24.1912 C   0  0  0  0  0  0  0  0  0  0  0  0
    7.5337   -6.9256   16.9519 C   0  0  0  0  0  0  0  0  0  0  0  0
    9.6782    0.5671   23.5143 C   0  0  0  0  0  0  0  0  0  0  0  0
    8.4532    0.3482   26.0821 C   0  0  0  0  0  0  0  0  0  0  0  0
   10.4239   -1.7677   22.2230 N   0  0  0  0  0  0  0  0  0  0  0  0
    9.9468   -4.5953   20.1709 C   0  0  0  0  0  0  0  0  0  0  0  0
   10.0366   -3.0590   23.9864 N   0  0  0  0  0  0  0  0  0  0  0  0
    7.1191   -7.3636   15.7739 C   0  0  0  0  0  0  0  0  0  0  0  0
    5.9612   -8.3203   17.2732 N   0  0  0  0  0  0  0  0  0  0  0  0
    8.5296   -5.9814   17.1841 C   0  0  0  0  0  0  0  0  0  0  0  0
    9.1527   -5.2118   16.2116 C   0  0  0  0  0  0  0  0  0  0  0  0
   10.3364   -3.8368   22.9255 O   0  0  0  0  0  0  0  0  0  0  0  0
    9.6947   -4.8407   18.8534 C   0  0  0  0  0  0  0  0  0  0  0  0
    9.1596    1.7042   24.1381 C   0  0  0  0  0  0  0  0  0  0  0  0
   11.0456   -2.9774   18.2694 N   0  0  0  0  0  0  0  0  0  0  0  0
   10.4788   -3.0457   21.8593 C   0  0  0  0  0  0  0  0  0  0  0  0
    8.8693   -5.8099   18.4657 N   0  0  0  0  0  0  0  0  0  0  0  0
    8.9892   -0.7926   25.4573 C   0  0  0  0  0  0  0  0  0  0  0  0
   10.5677   -3.4462   20.5323 C   0  0  0  0  0  0  0  0  0  0  0  0
  1  8  1  0
  1 12  4  0
  1 14  4  0
  2  3  4  0
  2 18  4  0
  3 20  4  0
  3 22  4  0
  4 11  4  0
  4 21  4  0
  5  9  4  0
  5 16  4  0
  6 15  4  0
  6 16  4  0
  7 22  4  0
  7 26  4  0
  8 10  4  0
  8 25  4  0
  9 15  4  0
  9 17  1  0
 10 21  4  0
 11 25  4  0
 12 23  4  0
 13 20  4  0
 13 26  4  0
 14 19  4  0
 17 18  4  0
 17 24  4  0
 19 23  4  0
 20 24  4  0
 23 26  1  0
M  END
$$$$

 Created by Python create_sdf_string function

 26 30  0  0  0  0  0  0  0  0999 V2000
   10.0084   -1.8019   23.4945 C   0  0  0  0  0  0  0  0  0  0  0  0
   10.0005   -4.2520   16.5631 C   0  0  0  0  0  0  0  0  0  0  0  0
   10.2759   -4.0036   17.8845 C   0  0  0  0  0  0  0  0  0  0  0  0
    8.5652    1.5478   25.3778 N   0  0  0  0  0  0  0  0  0  0  0  0
    6.8048   -7.5457   17.8752 C   0  0  0  0  0  0  0  0  0  0  0  0
    6.1721   -8.2186   15.9886 N   0  0  0  0  0  0  0  0  0  0  0  0
   11.1764   -2.6600   19.5604 C   0  0  0  0  0  0  0  0  0  0  0  0
    9.5491   -0.6380   24.1912 C   0  0  0  0  0  0  0  0  0  0  0  0
    7.5337   -6.9256   16.9519 C   0  0  0  0  0  0  0  0  0  0  0  0
    9.6782    0.5671   23.5143 C   0  0  0  0  0  0  0  0  0  0  0  0
    8.4532    0.3482   26.0821 C   0  0  0  0  0  0  0  0  0  0  0  0
   10.4239   -1.7677   22.2230 N   0  0  0  0  0  0  0  0  0  0  0  0
    9.9468   -4.5953   20.1709 C   0  0  0  0  0  0  0  0  0  0  0  0
   10.0366   -3.0590   23.9864 N   0  0  0  0  0  0  0  0  0  0  0  0
    7.1191   -7.3636   15.7739 C   0  0  0  0  0  0  0  0  0  0  0  0
    5.9612   -8.3203   17.2732 N   0  0  0  0  0  0  0  0  0  0  0  0
    8.5296   -5.9814   17.1841 C   0  0  0  0  0  0  0  0  0  0  0  0
    9.1527   -5.2118   16.2116 C   0  0  0  0  0  0  0  0  0  0  0  0
   10.3364   -3.8368   22.9255 O   0  0  0  0  0  0  0  0  0  0  0  0
    9.6947   -4.8407   18.8534 C   0  0  0  0  0  0  0  0  0  0  0  0
    9.1596    1.7042   24.1381 C   0  0  0  0  0  0  0  0  0  0  0  0
   11.0456   -2.9774   18.2694 N   0  0  0  0  0  0  0  0  0  0  0  0
   10.4788   -3.0457   21.8593 C   0  0  0  0  0  0  0  0  0  0  0  0
    8.8693   -5.8099   18.4657 N   0  0  0  0  0  0  0  0  0  0  0  0
    8.9892   -0.7926   25.4573 C   0  0  0  0  0  0  0  0  0  0  0  0
   10.5677   -3.4462   20.5323 C   0  0  0  0  0  0  0  0  0  0  0  0
  1  8  1  0
  1 12  4  0
  1 14  4  0
  2  3  4  0
  2 18  4  0
  3 20  4  0
  3 22  4  0
  4 11  4  0
  4 21  4  0
  5  9  4  0
  5 16  4  0
  6 15  4  0
  6 16  4  0
  7 22  4  0
  7 26  4  0
  8 10  4  0
  8 25  4  0
  9 15  4  0
  9 17  1  0
 10 21  4  0
 11 25  4  0
 12 23  4  0
 13 20  4  0
 13 26  4  0
 14 19  4  0
 17 18  4  0
 17 24  4  0
 19 23  4  0
 20 24  4  0
 23 26  1  0
M  END
$$$$

 Created by Python create_sdf_string function

 26 30  0  0  0  0  0  0  0  0999 V2000
   10.0084   -1.8019   23.4945 C   0  0  0  0  0  0  0  0  0  0  0  0
   10.0005   -4.2520   16.5631 C   0  0  0  0  0  0  0  0  0  0  0  0
   10.2759   -4.0036   17.8845 C   0  0  0  0  0  0  0  0  0  0  0  0
    8.5652    1.5478   25.3778 N   0  0  0  0  0  0  0  0  0  0  0  0
    6.8048   -7.5457   17.8752 C   0  0  0  0  0  0  0  0  0  0  0  0
    6.1721   -8.2186   15.9886 N   0  0  0  0  0  0  0  0  0  0  0  0
   11.1764   -2.6600   19.5604 C   0  0  0  0  0  0  0  0  0  0  0  0
    9.5491   -0.6380   24.1912 C   0  0  0  0  0  0  0  0  0  0  0  0
    7.5337   -6.9256   16.9519 C   0  0  0  0  0  0  0  0  0  0  0  0
    9.6782    0.5671   23.5143 C   0  0  0  0  0  0  0  0  0  0  0  0
    8.4532    0.3482   26.0821 C   0  0  0  0  0  0  0  0  0  0  0  0
   10.4239   -1.7677   22.2230 N   0  0  0  0  0  0  0  0  0  0  0  0
    9.9468   -4.5953   20.1709 C   0  0  0  0  0  0  0  0  0  0  0  0
   10.0366   -3.0590   23.9864 N   0  0  0  0  0  0  0  0  0  0  0  0
    7.1191   -7.3636   15.7739 C   0  0  0  0  0  0  0  0  0  0  0  0
    5.9612   -8.3203   17.2732 N   0  0  0  0  0  0  0  0  0  0  0  0
    8.5296   -5.9814   17.1841 C   0  0  0  0  0  0  0  0  0  0  0  0
    9.1527   -5.2118   16.2116 C   0  0  0  0  0  0  0  0  0  0  0  0
   10.3364   -3.8368   22.9255 O   0  0  0  0  0  0  0  0  0  0  0  0
    9.6947   -4.8407   18.8534 C   0  0  0  0  0  0  0  0  0  0  0  0
    9.1596    1.7042   24.1381 C   0  0  0  0  0  0  0  0  0  0  0  0
   11.0456   -2.9774   18.2694 N   0  0  0  0  0  0  0  0  0  0  0  0
   10.4788   -3.0457   21.8593 C   0  0  0  0  0  0  0  0  0  0  0  0
    8.8693   -5.8099   18.4657 N   0  0  0  0  0  0  0  0  0  0  0  0
    8.9892   -0.7926   25.4573 C   0  0  0  0  0  0  0  0  0  0  0  0
   10.5677   -3.4462   20.5323 C   0  0  0  0  0  0  0  0  0  0  0  0
  1  8  1  0
  1 12  4  0
  1 14  4  0
  2  3  4  0
  2 18  4  0
  3 20  4  0
  3 22  4  0
  4 11  4  0
  4 21  4  0
  5  9  4  0
  5 16  4  0
  6 15  4  0
  6 16  4  0
  7 22  4  0
  7 26  4  0
  8 10  4  0
  8 25  4  0
  9 15  4  0
  9 17  1  0
 10 21  4  0
 11 25  4  0
 12 23  4  0
 13 20  4  0
 13 26  4  0
 14 19  4  0
 17 18  4  0
 17 24  4  0
 19 23  4  0
 20 24  4  0
 23 26  1  0
M  END
$$$$

 Created by Python create_sdf_string function

 26 30  0  0  0  0  0  0  0  0999 V2000
   10.0084   -1.8019   23.4945 C   0  0  0  0  0  0  0  0  0  0  0  0
   10.0005   -4.2520   16.5631 C   0  0  0  0  0  0  0  0  0  0  0  0
   10.2759   -4.0036   17.8845 C   0  0  0  0  0  0  0  0  0  0  0  0
    8.5652    1.5478   25.3778 N   0  0  0  0  0  0  0  0  0  0  0  0
    6.8048   -7.5457   17.8752 C   0  0  0  0  0  0  0  0  0  0  0  0
    6.1721   -8.2186   15.9886 N   0  0  0  0  0  0  0  0  0  0  0  0
   11.1764   -2.6600   19.5604 C   0  0  0  0  0  0  0  0  0  0  0  0
    9.5491   -0.6380   24.1912 C   0  0  0  0  0  0  0  0  0  0  0  0
    7.5337   -6.9256   16.9519 C   0  0  0  0  0  0  0  0  0  0  0  0
    9.6782    0.5671   23.5143 C   0  0  0  0  0  0  0  0  0  0  0  0
    8.4532    0.3482   26.0821 C   0  0  0  0  0  0  0  0  0  0  0  0
   10.4239   -1.7677   22.2230 N   0  0  0  0  0  0  0  0  0  0  0  0
    9.9468   -4.5953   20.1709 C   0  0  0  0  0  0  0  0  0  0  0  0
   10.0366   -3.0590   23.9864 N   0  0  0  0  0  0  0  0  0  0  0  0
    7.1191   -7.3636   15.7739 C   0  0  0  0  0  0  0  0  0  0  0  0
    5.9612   -8.3203   17.2732 N   0  0  0  0  0  0  0  0  0  0  0  0
    8.5296   -5.9814   17.1841 C   0  0  0  0  0  0  0  0  0  0  0  0
    9.1527   -5.2118   16.2116 C   0  0  0  0  0  0  0  0  0  0  0  0
   10.3364   -3.8368   22.9255 O   0  0  0  0  0  0  0  0  0  0  0  0
    9.6947   -4.8407   18.8534 C   0  0  0  0  0  0  0  0  0  0  0  0
    9.1596    1.7042   24.1381 C   0  0  0  0  0  0  0  0  0  0  0  0
   11.0456   -2.9774   18.2694 N   0  0  0  0  0  0  0  0  0  0  0  0
   10.4788   -3.0457   21.8593 C   0  0  0  0  0  0  0  0  0  0  0  0
    8.8693   -5.8099   18.4657 N   0  0  0  0  0  0  0  0  0  0  0  0
    8.9892   -0.7926   25.4573 C   0  0  0  0  0  0  0  0  0  0  0  0
   10.5677   -3.4462   20.5323 C   0  0  0  0  0  0  0  0  0  0  0  0
  1  8  1  0
  1 12  4  0
  1 14  4  0
  2  3  4  0
  2 18  4  0
  3 20  4  0
  3 22  4  0
  4 11  4  0
  4 21  4  0
  5  9  4  0
  5 16  4  0
  6 15  4  0
  6 16  4  0
  7 22  4  0
  7 26  4  0
  8 10  4  0
  8 25  4  0
  9 15  4  0
  9 17  1  0
 10 21  4  0
 11 25  4  0
 12 23  4  0
 13 20  4  0
 13 26  4  0
 14 19  4  0
 17 18  4  0
 17 24  4  0
 19 23  4  0
 20 24  4  0
 23 26  1  0
M  END
$$$$

 Created by Python create_sdf_string function

 26 30  0  0  0  0  0  0  0  0999 V2000
   10.0084   -1.8019   23.4945 C   0  0  0  0  0  0  0  0  0  0  0  0
   10.0005   -4.2520   16.5631 C   0  0  0  0  0  0  0  0  0  0  0  0
   10.2759   -4.0036   17.8845 C   0  0  0  0  0  0  0  0  0  0  0  0
    8.5652    1.5478   25.3778 N   0  0  0  0  0  0  0  0  0  0  0  0
    6.8048   -7.5457   17.8752 C   0  0  0  0  0  0  0  0  0  0  0  0
    6.1721   -8.2186   15.9886 N   0  0  0  0  0  0  0  0  0  0  0  0
   11.1764   -2.6600   19.5604 C   0  0  0  0  0  0  0  0  0  0  0  0
    9.5491   -0.6380   24.1912 C   0  0  0  0  0  0  0  0  0  0  0  0
    7.5337   -6.9256   16.9519 C   0  0  0  0  0  0  0  0  0  0  0  0
    9.6782    0.5671   23.5143 C   0  0  0  0  0  0  0  0  0  0  0  0
    8.4532    0.3482   26.0821 C   0  0  0  0  0  0  0  0  0  0  0  0
   10.4239   -1.7677   22.2230 N   0  0  0  0  0  0  0  0  0  0  0  0
    9.9468   -4.5953   20.1709 C   0  0  0  0  0  0  0  0  0  0  0  0
   10.0366   -3.0590   23.9864 N   0  0  0  0  0  0  0  0  0  0  0  0
    7.1191   -7.3636   15.7739 C   0  0  0  0  0  0  0  0  0  0  0  0
    5.9612   -8.3203   17.2732 N   0  0  0  0  0  0  0  0  0  0  0  0
    8.5296   -5.9814   17.1841 C   0  0  0  0  0  0  0  0  0  0  0  0
    9.1527   -5.2118   16.2116 C   0  0  0  0  0  0  0  0  0  0  0  0
   10.3364   -3.8368   22.9255 O   0  0  0  0  0  0  0  0  0  0  0  0
    9.6947   -4.8407   18.8534 C   0  0  0  0  0  0  0  0  0  0  0  0
    9.1596    1.7042   24.1381 C   0  0  0  0  0  0  0  0  0  0  0  0
   11.0456   -2.9774   18.2694 N   0  0  0  0  0  0  0  0  0  0  0  0
   10.4788   -3.0457   21.8593 C   0  0  0  0  0  0  0  0  0  0  0  0
    8.8693   -5.8099   18.4657 N   0  0  0  0  0  0  0  0  0  0  0  0
    8.9892   -0.7926   25.4573 C   0  0  0  0  0  0  0  0  0  0  0  0
   10.5677   -3.4462   20.5323 C   0  0  0  0  0  0  0  0  0  0  0  0
  1  8  1  0
  1 12  4  0
  1 14  4  0
  2  3  4  0
  2 18  4  0
  3 20  4  0
  3 22  4  0
  4 11  4  0
  4 21  4  0
  5  9  4  0
  5 16  4  0
  6 15  4  0
  6 16  4  0
  7 22  4  0
  7 26  4  0
  8 10  4  0
  8 25  4  0
  9 15  4  0
  9 17  1  0
 10 21  4  0
 11 25  4  0
 12 23  4  0
 13 20  4  0
 13 26  4  0
 14 19  4  0
 17 18  4  0
 17 24  4  0
 19 23  4  0
 20 24  4  0
 23 26  1  0
M  END
$$$$

 Created by Python create_sdf_string function

 26 30  0  0  0  0  0  0  0  0999 V2000
   10.0084   -1.8019   23.4945 C   0  0  0  0  0  0  0  0  0  0  0  0
   10.0005   -4.2520   16.5631 C   0  0  0  0  0  0  0  0  0  0  0  0
   10.2759   -4.0036   17.8845 C   0  0  0  0  0  0  0  0  0  0  0  0
    8.5652    1.5478   25.3778 N   0  0  0  0  0  0  0  0  0  0  0  0
    6.8048   -7.5457   17.8752 C   0  0  0  0  0  0  0  0  0  0  0  0
    6.1721   -8.2186   15.9886 N   0  0  0  0  0  0  0  0  0  0  0  0
   11.1764   -2.6600   19.5604 C   0  0  0  0  0  0  0  0  0  0  0  0
    9.5491   -0.6380   24.1912 C   0  0  0  0  0  0  0  0  0  0  0  0
    7.5337   -6.9256   16.9519 C   0  0  0  0  0  0  0  0  0  0  0  0
    9.6782    0.5671   23.5143 C   0  0  0  0  0  0  0  0  0  0  0  0
    8.4532    0.3482   26.0821 C   0  0  0  0  0  0  0  0  0  0  0  0
   10.4239   -1.7677   22.2230 N   0  0  0  0  0  0  0  0  0  0  0  0
    9.9468   -4.5953   20.1709 C   0  0  0  0  0  0  0  0  0  0  0  0
   10.0366   -3.0590   23.9864 N   0  0  0  0  0  0  0  0  0  0  0  0
    7.1191   -7.3636   15.7739 C   0  0  0  0  0  0  0  0  0  0  0  0
    5.9612   -8.3203   17.2732 N   0  0  0  0  0  0  0  0  0  0  0  0
    8.5296   -5.9814   17.1841 C   0  0  0  0  0  0  0  0  0  0  0  0
    9.1527   -5.2118   16.2116 C   0  0  0  0  0  0  0  0  0  0  0  0
   10.3364   -3.8368   22.9255 O   0  0  0  0  0  0  0  0  0  0  0  0
    9.6947   -4.8407   18.8534 C   0  0  0  0  0  0  0  0  0  0  0  0
    9.1596    1.7042   24.1381 C   0  0  0  0  0  0  0  0  0  0  0  0
   11.0456   -2.9774   18.2694 N   0  0  0  0  0  0  0  0  0  0  0  0
   10.4788   -3.0457   21.8593 C   0  0  0  0  0  0  0  0  0  0  0  0
    8.8693   -5.8099   18.4657 N   0  0  0  0  0  0  0  0  0  0  0  0
    8.9892   -0.7926   25.4573 C   0  0  0  0  0  0  0  0  0  0  0  0
   10.5677   -3.4462   20.5323 C   0  0  0  0  0  0  0  0  0  0  0  0
  1  8  1  0
  1 12  4  0
  1 14  4  0
  2  3  4  0
  2 18  4  0
  3 20  4  0
  3 22  4  0
  4 11  4  0
  4 21  4  0
  5  9  4  0
  5 16  4  0
  6 15  4  0
  6 16  4  0
  7 22  4  0
  7 26  4  0
  8 10  4  0
  8 25  4  0
  9 15  4  0
  9 17  1  0
 10 21  4  0
 11 25  4  0
 12 23  4  0
 13 20  4  0
 13 26  4  0
 14 19  4  0
 17 18  4  0
 17 24  4  0
 19 23  4  0
 20 24  4  0
 23 26  1  0
M  END
$$$$

 Created by Python create_sdf_string function

 26 30  0  0  0  0  0  0  0  0999 V2000
   10.0084   -1.8019   23.4945 C   0  0  0  0  0  0  0  0  0  0  0  0
   10.0005   -4.2520   16.5631 C   0  0  0  0  0  0  0  0  0  0  0  0
   10.2759   -4.0036   17.8845 C   0  0  0  0  0  0  0  0  0  0  0  0
    8.5652    1.5478   25.3778 N   0  0  0  0  0  0  0  0  0  0  0  0
    6.8048   -7.5457   17.8752 C   0  0  0  0  0  0  0  0  0  0  0  0
    6.1721   -8.2186   15.9886 N   0  0  0  0  0  0  0  0  0  0  0  0
   11.1764   -2.6600   19.5604 C   0  0  0  0  0  0  0  0  0  0  0  0
    9.5491   -0.6380   24.1912 C   0  0  0  0  0  0  0  0  0  0  0  0
    7.5337   -6.9256   16.9519 C   0  0  0  0  0  0  0  0  0  0  0  0
    9.6782    0.5671   23.5143 C   0  0  0  0  0  0  0  0  0  0  0  0
    8.4532    0.3482   26.0821 C   0  0  0  0  0  0  0  0  0  0  0  0
   10.4239   -1.7677   22.2230 N   0  0  0  0  0  0  0  0  0  0  0  0
    9.9468   -4.5953   20.1709 C   0  0  0  0  0  0  0  0  0  0  0  0
   10.0366   -3.0590   23.9864 N   0  0  0  0  0  0  0  0  0  0  0  0
    7.1191   -7.3636   15.7739 C   0  0  0  0  0  0  0  0  0  0  0  0
    5.9612   -8.3203   17.2732 N   0  0  0  0  0  0  0  0  0  0  0  0
    8.5296   -5.9814   17.1841 C   0  0  0  0  0  0  0  0  0  0  0  0
    9.1527   -5.2118   16.2116 C   0  0  0  0  0  0  0  0  0  0  0  0
   10.3364   -3.8368   22.9255 O   0  0  0  0  0  0  0  0  0  0  0  0
    9.6947   -4.8407   18.8534 C   0  0  0  0  0  0  0  0  0  0  0  0
    9.1596    1.7042   24.1381 C   0  0  0  0  0  0  0  0  0  0  0  0
   11.0456   -2.9774   18.2694 N   0  0  0  0  0  0  0  0  0  0  0  0
   10.4788   -3.0457   21.8593 C   0  0  0  0  0  0  0  0  0  0  0  0
    8.8693   -5.8099   18.4657 N   0  0  0  0  0  0  0  0  0  0  0  0
    8.9892   -0.7926   25.4573 C   0  0  0  0  0  0  0  0  0  0  0  0
   10.5677   -3.4462   20.5323 C   0  0  0  0  0  0  0  0  0  0  0  0
  1  8  1  0
  1 12  4  0
  1 14  4  0
  2  3  4  0
  2 18  4  0
  3 20  4  0
  3 22  4  0
  4 11  4  0
  4 21  4  0
  5  9  4  0
  5 16  4  0
  6 15  4  0
  6 16  4  0
  7 22  4  0
  7 26  4  0
  8 10  4  0
  8 25  4  0
  9 15  4  0
  9 17  1  0
 10 21  4  0
 11 25  4  0
 12 23  4  0
 13 20  4  0
 13 26  4  0
 14 19  4  0
 17 18  4  0
 17 24  4  0
 19 23  4  0
 20 24  4  0
 23 26  1  0
M  END
$$$$

 Created by Python create_sdf_string function

 26 30  0  0  0  0  0  0  0  0999 V2000
   10.0084   -1.8019   23.4945 C   0  0  0  0  0  0  0  0  0  0  0  0
   10.0005   -4.2520   16.5631 C   0  0  0  0  0  0  0  0  0  0  0  0
   10.2759   -4.0036   17.8845 C   0  0  0  0  0  0  0  0  0  0  0  0
    8.5652    1.5478   25.3778 N   0  0  0  0  0  0  0  0  0  0  0  0
    6.8048   -7.5457   17.8752 C   0  0  0  0  0  0  0  0  0  0  0  0
    6.1721   -8.2186   15.9886 N   0  0  0  0  0  0  0  0  0  0  0  0
   11.1764   -2.6600   19.5604 C   0  0  0  0  0  0  0  0  0  0  0  0
    9.5491   -0.6380   24.1912 C   0  0  0  0  0  0  0  0  0  0  0  0
    7.5337   -6.9256   16.9519 C   0  0  0  0  0  0  0  0  0  0  0  0
    9.6782    0.5671   23.5143 C   0  0  0  0  0  0  0  0  0  0  0  0
    8.4532    0.3482   26.0821 C   0  0  0  0  0  0  0  0  0  0  0  0
   10.4239   -1.7677   22.2230 N   0  0  0  0  0  0  0  0  0  0  0  0
    9.9468   -4.5953   20.1709 C   0  0  0  0  0  0  0  0  0  0  0  0
   10.0366   -3.0590   23.9864 N   0  0  0  0  0  0  0  0  0  0  0  0
    7.1191   -7.3636   15.7739 C   0  0  0  0  0  0  0  0  0  0  0  0
    5.9612   -8.3203   17.2732 N   0  0  0  0  0  0  0  0  0  0  0  0
    8.5296   -5.9814   17.1841 C   0  0  0  0  0  0  0  0  0  0  0  0
    9.1527   -5.2118   16.2116 C   0  0  0  0  0  0  0  0  0  0  0  0
   10.3364   -3.8368   22.9255 O   0  0  0  0  0  0  0  0  0  0  0  0
    9.6947   -4.8407   18.8534 C   0  0  0  0  0  0  0  0  0  0  0  0
    9.1596    1.7042   24.1381 C   0  0  0  0  0  0  0  0  0  0  0  0
   11.0456   -2.9774   18.2694 N   0  0  0  0  0  0  0  0  0  0  0  0
   10.4788   -3.0457   21.8593 C   0  0  0  0  0  0  0  0  0  0  0  0
    8.8693   -5.8099   18.4657 N   0  0  0  0  0  0  0  0  0  0  0  0
    8.9892   -0.7926   25.4573 C   0  0  0  0  0  0  0  0  0  0  0  0
   10.5677   -3.4462   20.5323 C   0  0  0  0  0  0  0  0  0  0  0  0
  1  8  1  0
  1 12  4  0
  1 14  4  0
  2  3  4  0
  2 18  4  0
  3 20  4  0
  3 22  4  0
  4 11  4  0
  4 21  4  0
  5  9  4  0
  5 16  4  0
  6 15  4  0
  6 16  4  0
  7 22  4  0
  7 26  4  0
  8 10  4  0
  8 25  4  0
  9 15  4  0
  9 17  1  0
 10 21  4  0
 11 25  4  0
 12 23  4  0
 13 20  4  0
 13 26  4  0
 14 19  4  0
 17 18  4  0
 17 24  4  0
 19 23  4  0
 20 24  4  0
 23 26  1  0
M  END
$$$$

 Created by Python create_sdf_string function

 26 30  0  0  0  0  0  0  0  0999 V2000
   10.0084   -1.8019   23.4945 C   0  0  0  0  0  0  0  0  0  0  0  0
   10.0005   -4.2520   16.5631 C   0  0  0  0  0  0  0  0  0  0  0  0
   10.2759   -4.0036   17.8845 C   0  0  0  0  0  0  0  0  0  0  0  0
    8.5652    1.5478   25.3778 N   0  0  0  0  0  0  0  0  0  0  0  0
    6.8048   -7.5457   17.8752 C   0  0  0  0  0  0  0  0  0  0  0  0
    6.1721   -8.2186   15.9886 N   0  0  0  0  0  0  0  0  0  0  0  0
   11.1764   -2.6600   19.5604 C   0  0  0  0  0  0  0  0  0  0  0  0
    9.5491   -0.6380   24.1912 C   0  0  0  0  0  0  0  0  0  0  0  0
    7.5337   -6.9256   16.9519 C   0  0  0  0  0  0  0  0  0  0  0  0
    9.6782    0.5671   23.5143 C   0  0  0  0  0  0  0  0  0  0  0  0
    8.4532    0.3482   26.0821 C   0  0  0  0  0  0  0  0  0  0  0  0
   10.4239   -1.7677   22.2230 N   0  0  0  0  0  0  0  0  0  0  0  0
    9.9468   -4.5953   20.1709 C   0  0  0  0  0  0  0  0  0  0  0  0
   10.0366   -3.0590   23.9864 N   0  0  0  0  0  0  0  0  0  0  0  0
    7.1191   -7.3636   15.7739 C   0  0  0  0  0  0  0  0  0  0  0  0
    5.9612   -8.3203   17.2732 N   0  0  0  0  0  0  0  0  0  0  0  0
    8.5296   -5.9814   17.1841 C   0  0  0  0  0  0  0  0  0  0  0  0
    9.1527   -5.2118   16.2116 C   0  0  0  0  0  0  0  0  0  0  0  0
   10.3364   -3.8368   22.9255 O   0  0  0  0  0  0  0  0  0  0  0  0
    9.6947   -4.8407   18.8534 C   0  0  0  0  0  0  0  0  0  0  0  0
    9.1596    1.7042   24.1381 C   0  0  0  0  0  0  0  0  0  0  0  0
   11.0456   -2.9774   18.2694 N   0  0  0  0  0  0  0  0  0  0  0  0
   10.4788   -3.0457   21.8593 C   0  0  0  0  0  0  0  0  0  0  0  0
    8.8693   -5.8099   18.4657 N   0  0  0  0  0  0  0  0  0  0  0  0
    8.9892   -0.7926   25.4573 C   0  0  0  0  0  0  0  0  0  0  0  0
   10.5677   -3.4462   20.5323 C   0  0  0  0  0  0  0  0  0  0  0  0
  1  8  1  0
  1 12  4  0
  1 14  4  0
  2  3  4  0
  2 18  4  0
  3 20  4  0
  3 22  4  0
  4 11  4  0
  4 21  4  0
  5  9  4  0
  5 16  4  0
  6 15  4  0
  6 16  4  0
  7 22  4  0
  7 26  4  0
  8 10  4  0
  8 25  4  0
  9 15  4  0
  9 17  1  0
 10 21  4  0
 11 25  4  0
 12 23  4  0
 13 20  4  0
 13 26  4  0
 14 19  4  0
 17 18  4  0
 17 24  4  0
 19 23  4  0
 20 24  4  0
 23 26  1  0
M  END
$$$$

 Created by Python create_sdf_string function

 26 30  0  0  0  0  0  0  0  0999 V2000
   10.0084   -1.8019   23.4945 C   0  0  0  0  0  0  0  0  0  0  0  0
   10.0005   -4.2520   16.5631 C   0  0  0  0  0  0  0  0  0  0  0  0
   10.2759   -4.0036   17.8845 C   0  0  0  0  0  0  0  0  0  0  0  0
    8.5652    1.5478   25.3778 N   0  0  0  0  0  0  0  0  0  0  0  0
    6.8048   -7.5457   17.8752 C   0  0  0  0  0  0  0  0  0  0  0  0
    6.1721   -8.2186   15.9886 N   0  0  0  0  0  0  0  0  0  0  0  0
   11.1764   -2.6600   19.5604 C   0  0  0  0  0  0  0  0  0  0  0  0
    9.5491   -0.6380   24.1912 C   0  0  0  0  0  0  0  0  0  0  0  0
    7.5337   -6.9256   16.9519 C   0  0  0  0  0  0  0  0  0  0  0  0
    9.6782    0.5671   23.5143 C   0  0  0  0  0  0  0  0  0  0  0  0
    8.4532    0.3482   26.0821 C   0  0  0  0  0  0  0  0  0  0  0  0
   10.4239   -1.7677   22.2230 N   0  0  0  0  0  0  0  0  0  0  0  0
    9.9468   -4.5953   20.1709 C   0  0  0  0  0  0  0  0  0  0  0  0
   10.0366   -3.0590   23.9864 N   0  0  0  0  0  0  0  0  0  0  0  0
    7.1191   -7.3636   15.7739 C   0  0  0  0  0  0  0  0  0  0  0  0
    5.9612   -8.3203   17.2732 N   0  0  0  0  0  0  0  0  0  0  0  0
    8.5296   -5.9814   17.1841 C   0  0  0  0  0  0  0  0  0  0  0  0
    9.1527   -5.2118   16.2116 C   0  0  0  0  0  0  0  0  0  0  0  0
   10.3364   -3.8368   22.9255 O   0  0  0  0  0  0  0  0  0  0  0  0
    9.6947   -4.8407   18.8534 C   0  0  0  0  0  0  0  0  0  0  0  0
    9.1596    1.7042   24.1381 C   0  0  0  0  0  0  0  0  0  0  0  0
   11.0456   -2.9774   18.2694 N   0  0  0  0  0  0  0  0  0  0  0  0
   10.4788   -3.0457   21.8593 C   0  0  0  0  0  0  0  0  0  0  0  0
    8.8693   -5.8099   18.4657 N   0  0  0  0  0  0  0  0  0  0  0  0
    8.9892   -0.7926   25.4573 C   0  0  0  0  0  0  0  0  0  0  0  0
   10.5677   -3.4462   20.5323 C   0  0  0  0  0  0  0  0  0  0  0  0
  1  8  1  0
  1 12  4  0
  1 14  4  0
  2  3  4  0
  2 18  4  0
  3 20  4  0
  3 22  4  0
  4 11  4  0
  4 21  4  0
  5  9  4  0
  5 16  4  0
  6 15  4  0
  6 16  4  0
  7 22  4  0
  7 26  4  0
  8 10  4  0
  8 25  4  0
  9 15  4  0
  9 17  1  0
 10 21  4  0
 11 25  4  0
 12 23  4  0
 13 20  4  0
 13 26  4  0
 14 19  4  0
 17 18  4  0
 17 24  4  0
 19 23  4  0
 20 24  4  0
 23 26  1  0
M  END
$$$$

 Created by Python create_sdf_string function

 26 30  0  0  0  0  0  0  0  0999 V2000
   10.0084   -1.8019   23.4945 C   0  0  0  0  0  0  0  0  0  0  0  0
   10.0005   -4.2520   16.5631 C   0  0  0  0  0  0  0  0  0  0  0  0
   10.2759   -4.0036   17.8845 C   0  0  0  0  0  0  0  0  0  0  0  0
    8.5652    1.5478   25.3778 N   0  0  0  0  0  0  0  0  0  0  0  0
    6.8048   -7.5457   17.8752 C   0  0  0  0  0  0  0  0  0  0  0  0
    6.1721   -8.2186   15.9886 N   0  0  0  0  0  0  0  0  0  0  0  0
   11.1764   -2.6600   19.5604 C   0  0  0  0  0  0  0  0  0  0  0  0
    9.5491   -0.6380   24.1912 C   0  0  0  0  0  0  0  0  0  0  0  0
    7.5337   -6.9256   16.9519 C   0  0  0  0  0  0  0  0  0  0  0  0
    9.6782    0.5671   23.5143 C   0  0  0  0  0  0  0  0  0  0  0  0
    8.4532    0.3482   26.0821 C   0  0  0  0  0  0  0  0  0  0  0  0
   10.4239   -1.7677   22.2230 N   0  0  0  0  0  0  0  0  0  0  0  0
    9.9468   -4.5953   20.1709 C   0  0  0  0  0  0  0  0  0  0  0  0
   10.0366   -3.0590   23.9864 N   0  0  0  0  0  0  0  0  0  0  0  0
    7.1191   -7.3636   15.7739 C   0  0  0  0  0  0  0  0  0  0  0  0
    5.9612   -8.3203   17.2732 N   0  0  0  0  0  0  0  0  0  0  0  0
    8.5296   -5.9814   17.1841 C   0  0  0  0  0  0  0  0  0  0  0  0
    9.1527   -5.2118   16.2116 C   0  0  0  0  0  0  0  0  0  0  0  0
   10.3364   -3.8368   22.9255 O   0  0  0  0  0  0  0  0  0  0  0  0
    9.6947   -4.8407   18.8534 C   0  0  0  0  0  0  0  0  0  0  0  0
    9.1596    1.7042   24.1381 C   0  0  0  0  0  0  0  0  0  0  0  0
   11.0456   -2.9774   18.2694 N   0  0  0  0  0  0  0  0  0  0  0  0
   10.4788   -3.0457   21.8593 C   0  0  0  0  0  0  0  0  0  0  0  0
    8.8693   -5.8099   18.4657 N   0  0  0  0  0  0  0  0  0  0  0  0
    8.9892   -0.7926   25.4573 C   0  0  0  0  0  0  0  0  0  0  0  0
   10.5677   -3.4462   20.5323 C   0  0  0  0  0  0  0  0  0  0  0  0
  1  8  1  0
  1 12  4  0
  1 14  4  0
  2  3  4  0
  2 18  4  0
  3 20  4  0
  3 22  4  0
  4 11  4  0
  4 21  4  0
  5  9  4  0
  5 16  4  0
  6 15  4  0
  6 16  4  0
  7 22  4  0
  7 26  4  0
  8 10  4  0
  8 25  4  0
  9 15  4  0
  9 17  1  0
 10 21  4  0
 11 25  4  0
 12 23  4  0
 13 20  4  0
 13 26  4  0
 14 19  4  0
 17 18  4  0
 17 24  4  0
 19 23  4  0
 20 24  4  0
 23 26  1  0
M  END
$$$$

 Created by Python create_sdf_string function

 26 30  0  0  0  0  0  0  0  0999 V2000
   10.0084   -1.8019   23.4945 C   0  0  0  0  0  0  0  0  0  0  0  0
   10.0005   -4.2520   16.5631 C   0  0  0  0  0  0  0  0  0  0  0  0
   10.2759   -4.0036   17.8845 C   0  0  0  0  0  0  0  0  0  0  0  0
    8.5652    1.5478   25.3778 N   0  0  0  0  0  0  0  0  0  0  0  0
    6.8048   -7.5457   17.8752 C   0  0  0  0  0  0  0  0  0  0  0  0
    6.1721   -8.2186   15.9886 N   0  0  0  0  0  0  0  0  0  0  0  0
   11.1764   -2.6600   19.5604 C   0  0  0  0  0  0  0  0  0  0  0  0
    9.5491   -0.6380   24.1912 C   0  0  0  0  0  0  0  0  0  0  0  0
    7.5337   -6.9256   16.9519 C   0  0  0  0  0  0  0  0  0  0  0  0
    9.6782    0.5671   23.5143 C   0  0  0  0  0  0  0  0  0  0  0  0
    8.4532    0.3482   26.0821 C   0  0  0  0  0  0  0  0  0  0  0  0
   10.4239   -1.7677   22.2230 N   0  0  0  0  0  0  0  0  0  0  0  0
    9.9468   -4.5953   20.1709 C   0  0  0  0  0  0  0  0  0  0  0  0
   10.0366   -3.0590   23.9864 N   0  0  0  0  0  0  0  0  0  0  0  0
    7.1191   -7.3636   15.7739 C   0  0  0  0  0  0  0  0  0  0  0  0
    5.9612   -8.3203   17.2732 N   0  0  0  0  0  0  0  0  0  0  0  0
    8.5296   -5.9814   17.1841 C   0  0  0  0  0  0  0  0  0  0  0  0
    9.1527   -5.2118   16.2116 C   0  0  0  0  0  0  0  0  0  0  0  0
   10.3364   -3.8368   22.9255 O   0  0  0  0  0  0  0  0  0  0  0  0
    9.6947   -4.8407   18.8534 C   0  0  0  0  0  0  0  0  0  0  0  0
    9.1596    1.7042   24.1381 C   0  0  0  0  0  0  0  0  0  0  0  0
   11.0456   -2.9774   18.2694 N   0  0  0  0  0  0  0  0  0  0  0  0
   10.4788   -3.0457   21.8593 C   0  0  0  0  0  0  0  0  0  0  0  0
    8.8693   -5.8099   18.4657 N   0  0  0  0  0  0  0  0  0  0  0  0
    8.9892   -0.7926   25.4573 C   0  0  0  0  0  0  0  0  0  0  0  0
   10.5677   -3.4462   20.5323 C   0  0  0  0  0  0  0  0  0  0  0  0
  1  8  1  0
  1 12  4  0
  1 14  4  0
  2  3  4  0
  2 18  4  0
  3 20  4  0
  3 22  4  0
  4 11  4  0
  4 21  4  0
  5  9  4  0
  5 16  4  0
  6 15  4  0
  6 16  4  0
  7 22  4  0
  7 26  4  0
  8 10  4  0
  8 25  4  0
  9 15  4  0
  9 17  1  0
 10 21  4  0
 11 25  4  0
 12 23  4  0
 13 20  4  0
 13 26  4  0
 14 19  4  0
 17 18  4  0
 17 24  4  0
 19 23  4  0
 20 24  4  0
 23 26  1  0
M  END
$$$$

 Created by Python create_sdf_string function

 26 30  0  0  0  0  0  0  0  0999 V2000
   10.0084   -1.8019   23.4945 C   0  0  0  0  0  0  0  0  0  0  0  0
   10.0005   -4.2520   16.5631 C   0  0  0  0  0  0  0  0  0  0  0  0
   10.2759   -4.0036   17.8845 C   0  0  0  0  0  0  0  0  0  0  0  0
    8.5652    1.5478   25.3778 N   0  0  0  0  0  0  0  0  0  0  0  0
    6.8048   -7.5457   17.8752 C   0  0  0  0  0  0  0  0  0  0  0  0
    6.1721   -8.2186   15.9886 N   0  0  0  0  0  0  0  0  0  0  0  0
   11.1764   -2.6600   19.5604 C   0  0  0  0  0  0  0  0  0  0  0  0
    9.5491   -0.6380   24.1912 C   0  0  0  0  0  0  0  0  0  0  0  0
    7.5337   -6.9256   16.9519 C   0  0  0  0  0  0  0  0  0  0  0  0
    9.6782    0.5671   23.5143 C   0  0  0  0  0  0  0  0  0  0  0  0
    8.4532    0.3482   26.0821 C   0  0  0  0  0  0  0  0  0  0  0  0
   10.4239   -1.7677   22.2230 N   0  0  0  0  0  0  0  0  0  0  0  0
    9.9468   -4.5953   20.1709 C   0  0  0  0  0  0  0  0  0  0  0  0
   10.0366   -3.0590   23.9864 N   0  0  0  0  0  0  0  0  0  0  0  0
    7.1191   -7.3636   15.7739 C   0  0  0  0  0  0  0  0  0  0  0  0
    5.9612   -8.3203   17.2732 N   0  0  0  0  0  0  0  0  0  0  0  0
    8.5296   -5.9814   17.1841 C   0  0  0  0  0  0  0  0  0  0  0  0
    9.1527   -5.2118   16.2116 C   0  0  0  0  0  0  0  0  0  0  0  0
   10.3364   -3.8368   22.9255 O   0  0  0  0  0  0  0  0  0  0  0  0
    9.6947   -4.8407   18.8534 C   0  0  0  0  0  0  0  0  0  0  0  0
    9.1596    1.7042   24.1381 C   0  0  0  0  0  0  0  0  0  0  0  0
   11.0456   -2.9774   18.2694 N   0  0  0  0  0  0  0  0  0  0  0  0
   10.4788   -3.0457   21.8593 C   0  0  0  0  0  0  0  0  0  0  0  0
    8.8693   -5.8099   18.4657 N   0  0  0  0  0  0  0  0  0  0  0  0
    8.9892   -0.7926   25.4573 C   0  0  0  0  0  0  0  0  0  0  0  0
   10.5677   -3.4462   20.5323 C   0  0  0  0  0  0  0  0  0  0  0  0
  1  8  1  0
  1 12  4  0
  1 14  4  0
  2  3  4  0
  2 18  4  0
  3 20  4  0
  3 22  4  0
  4 11  4  0
  4 21  4  0
  5  9  4  0
  5 16  4  0
  6 15  4  0
  6 16  4  0
  7 22  4  0
  7 26  4  0
  8 10  4  0
  8 25  4  0
  9 15  4  0
  9 17  1  0
 10 21  4  0
 11 25  4  0
 12 23  4  0
 13 20  4  0
 13 26  4  0
 14 19  4  0
 17 18  4  0
 17 24  4  0
 19 23  4  0
 20 24  4  0
 23 26  1  0
M  END
$$$$

 Created by Python create_sdf_string function

 26 30  0  0  0  0  0  0  0  0999 V2000
   10.0084   -1.8019   23.4945 C   0  0  0  0  0  0  0  0  0  0  0  0
   10.0005   -4.2520   16.5631 C   0  0  0  0  0  0  0  0  0  0  0  0
   10.2759   -4.0036   17.8845 C   0  0  0  0  0  0  0  0  0  0  0  0
    8.5652    1.5478   25.3778 N   0  0  0  0  0  0  0  0  0  0  0  0
    6.8048   -7.5457   17.8752 C   0  0  0  0  0  0  0  0  0  0  0  0
    6.1721   -8.2186   15.9886 N   0  0  0  0  0  0  0  0  0  0  0  0
   11.1764   -2.6600   19.5604 C   0  0  0  0  0  0  0  0  0  0  0  0
    9.5491   -0.6380   24.1912 C   0  0  0  0  0  0  0  0  0  0  0  0
    7.5337   -6.9256   16.9519 C   0  0  0  0  0  0  0  0  0  0  0  0
    9.6782    0.5671   23.5143 C   0  0  0  0  0  0  0  0  0  0  0  0
    8.4532    0.3482   26.0821 C   0  0  0  0  0  0  0  0  0  0  0  0
   10.4239   -1.7677   22.2230 N   0  0  0  0  0  0  0  0  0  0  0  0
    9.9468   -4.5953   20.1709 C   0  0  0  0  0  0  0  0  0  0  0  0
   10.0366   -3.0590   23.9864 N   0  0  0  0  0  0  0  0  0  0  0  0
    7.1191   -7.3636   15.7739 C   0  0  0  0  0  0  0  0  0  0  0  0
    5.9612   -8.3203   17.2732 N   0  0  0  0  0  0  0  0  0  0  0  0
    8.5296   -5.9814   17.1841 C   0  0  0  0  0  0  0  0  0  0  0  0
    9.1527   -5.2118   16.2116 C   0  0  0  0  0  0  0  0  0  0  0  0
   10.3364   -3.8368   22.9255 O   0  0  0  0  0  0  0  0  0  0  0  0
    9.6947   -4.8407   18.8534 C   0  0  0  0  0  0  0  0  0  0  0  0
    9.1596    1.7042   24.1381 C   0  0  0  0  0  0  0  0  0  0  0  0
   11.0456   -2.9774   18.2694 N   0  0  0  0  0  0  0  0  0  0  0  0
   10.4788   -3.0457   21.8593 C   0  0  0  0  0  0  0  0  0  0  0  0
    8.8693   -5.8099   18.4657 N   0  0  0  0  0  0  0  0  0  0  0  0
    8.9892   -0.7926   25.4573 C   0  0  0  0  0  0  0  0  0  0  0  0
   10.5677   -3.4462   20.5323 C   0  0  0  0  0  0  0  0  0  0  0  0
  1  8  1  0
  1 12  4  0
  1 14  4  0
  2  3  4  0
  2 18  4  0
  3 20  4  0
  3 22  4  0
  4 11  4  0
  4 21  4  0
  5  9  4  0
  5 16  4  0
  6 15  4  0
  6 16  4  0
  7 22  4  0
  7 26  4  0
  8 10  4  0
  8 25  4  0
  9 15  4  0
  9 17  1  0
 10 21  4  0
 11 25  4  0
 12 23  4  0
 13 20  4  0
 13 26  4  0
 14 19  4  0
 17 18  4  0
 17 24  4  0
 19 23  4  0
 20 24  4  0
 23 26  1  0
M  END
$$$$

 Created by Python create_sdf_string function

 26 30  0  0  0  0  0  0  0  0999 V2000
   10.0084   -1.8019   23.4945 C   0  0  0  0  0  0  0  0  0  0  0  0
   10.0005   -4.2520   16.5631 C   0  0  0  0  0  0  0  0  0  0  0  0
   10.2759   -4.0036   17.8845 C   0  0  0  0  0  0  0  0  0  0  0  0
    8.5652    1.5478   25.3778 N   0  0  0  0  0  0  0  0  0  0  0  0
    6.8048   -7.5457   17.8752 C   0  0  0  0  0  0  0  0  0  0  0  0
    6.1721   -8.2186   15.9886 N   0  0  0  0  0  0  0  0  0  0  0  0
   11.1764   -2.6600   19.5604 C   0  0  0  0  0  0  0  0  0  0  0  0
    9.5491   -0.6380   24.1912 C   0  0  0  0  0  0  0  0  0  0  0  0
    7.5337   -6.9256   16.9519 C   0  0  0  0  0  0  0  0  0  0  0  0
    9.6782    0.5671   23.5143 C   0  0  0  0  0  0  0  0  0  0  0  0
    8.4532    0.3482   26.0821 C   0  0  0  0  0  0  0  0  0  0  0  0
   10.4239   -1.7677   22.2230 N   0  0  0  0  0  0  0  0  0  0  0  0
    9.9468   -4.5953   20.1709 C   0  0  0  0  0  0  0  0  0  0  0  0
   10.0366   -3.0590   23.9864 N   0  0  0  0  0  0  0  0  0  0  0  0
    7.1191   -7.3636   15.7739 C   0  0  0  0  0  0  0  0  0  0  0  0
    5.9612   -8.3203   17.2732 N   0  0  0  0  0  0  0  0  0  0  0  0
    8.5296   -5.9814   17.1841 C   0  0  0  0  0  0  0  0  0  0  0  0
    9.1527   -5.2118   16.2116 C   0  0  0  0  0  0  0  0  0  0  0  0
   10.3364   -3.8368   22.9255 O   0  0  0  0  0  0  0  0  0  0  0  0
    9.6947   -4.8407   18.8534 C   0  0  0  0  0  0  0  0  0  0  0  0
    9.1596    1.7042   24.1381 C   0  0  0  0  0  0  0  0  0  0  0  0
   11.0456   -2.9774   18.2694 N   0  0  0  0  0  0  0  0  0  0  0  0
   10.4788   -3.0457   21.8593 C   0  0  0  0  0  0  0  0  0  0  0  0
    8.8693   -5.8099   18.4657 N   0  0  0  0  0  0  0  0  0  0  0  0
    8.9892   -0.7926   25.4573 C   0  0  0  0  0  0  0  0  0  0  0  0
   10.5677   -3.4462   20.5323 C   0  0  0  0  0  0  0  0  0  0  0  0
  1  8  1  0
  1 12  4  0
  1 14  4  0
  2  3  4  0
  2 18  4  0
  3 20  4  0
  3 22  4  0
  4 11  4  0
  4 21  4  0
  5  9  4  0
  5 16  4  0
  6 15  4  0
  6 16  4  0
  7 22  4  0
  7 26  4  0
  8 10  4  0
  8 25  4  0
  9 15  4  0
  9 17  1  0
 10 21  4  0
 11 25  4  0
 12 23  4  0
 13 20  4  0
 13 26  4  0
 14 19  4  0
 17 18  4  0
 17 24  4  0
 19 23  4  0
 20 24  4  0
 23 26  1  0
M  END
$$$$

 Created by Python create_sdf_string function

 26 30  0  0  0  0  0  0  0  0999 V2000
   10.0084   -1.8019   23.4945 C   0  0  0  0  0  0  0  0  0  0  0  0
   10.0005   -4.2520   16.5631 C   0  0  0  0  0  0  0  0  0  0  0  0
   10.2759   -4.0036   17.8845 C   0  0  0  0  0  0  0  0  0  0  0  0
    8.5652    1.5478   25.3778 N   0  0  0  0  0  0  0  0  0  0  0  0
    6.8048   -7.5457   17.8752 C   0  0  0  0  0  0  0  0  0  0  0  0
    6.1721   -8.2186   15.9886 N   0  0  0  0  0  0  0  0  0  0  0  0
   11.1764   -2.6600   19.5604 C   0  0  0  0  0  0  0  0  0  0  0  0
    9.5491   -0.6380   24.1912 C   0  0  0  0  0  0  0  0  0  0  0  0
    7.5337   -6.9256   16.9519 C   0  0  0  0  0  0  0  0  0  0  0  0
    9.6782    0.5671   23.5143 C   0  0  0  0  0  0  0  0  0  0  0  0
    8.4532    0.3482   26.0821 C   0  0  0  0  0  0  0  0  0  0  0  0
   10.4239   -1.7677   22.2230 N   0  0  0  0  0  0  0  0  0  0  0  0
    9.9468   -4.5953   20.1709 C   0  0  0  0  0  0  0  0  0  0  0  0
   10.0366   -3.0590   23.9864 N   0  0  0  0  0  0  0  0  0  0  0  0
    7.1191   -7.3636   15.7739 C   0  0  0  0  0  0  0  0  0  0  0  0
    5.9612   -8.3203   17.2732 N   0  0  0  0  0  0  0  0  0  0  0  0
    8.5296   -5.9814   17.1841 C   0  0  0  0  0  0  0  0  0  0  0  0
    9.1527   -5.2118   16.2116 C   0  0  0  0  0  0  0  0  0  0  0  0
   10.3364   -3.8368   22.9255 O   0  0  0  0  0  0  0  0  0  0  0  0
    9.6947   -4.8407   18.8534 C   0  0  0  0  0  0  0  0  0  0  0  0
    9.1596    1.7042   24.1381 C   0  0  0  0  0  0  0  0  0  0  0  0
   11.0456   -2.9774   18.2694 N   0  0  0  0  0  0  0  0  0  0  0  0
   10.4788   -3.0457   21.8593 C   0  0  0  0  0  0  0  0  0  0  0  0
    8.8693   -5.8099   18.4657 N   0  0  0  0  0  0  0  0  0  0  0  0
    8.9892   -0.7926   25.4573 C   0  0  0  0  0  0  0  0  0  0  0  0
   10.5677   -3.4462   20.5323 C   0  0  0  0  0  0  0  0  0  0  0  0
  1  8  1  0
  1 12  4  0
  1 14  4  0
  2  3  4  0
  2 18  4  0
  3 20  4  0
  3 22  4  0
  4 11  4  0
  4 21  4  0
  5  9  4  0
  5 16  4  0
  6 15  4  0
  6 16  4  0
  7 22  4  0
  7 26  4  0
  8 10  4  0
  8 25  4  0
  9 15  4  0
  9 17  1  0
 10 21  4  0
 11 25  4  0
 12 23  4  0
 13 20  4  0
 13 26  4  0
 14 19  4  0
 17 18  4  0
 17 24  4  0
 19 23  4  0
 20 24  4  0
 23 26  1  0
M  END
$$$$

 Created by Python create_sdf_string function

 26 30  0  0  0  0  0  0  0  0999 V2000
   10.0084   -1.8019   23.4945 C   0  0  0  0  0  0  0  0  0  0  0  0
   10.0005   -4.2520   16.5631 C   0  0  0  0  0  0  0  0  0  0  0  0
   10.2759   -4.0036   17.8845 C   0  0  0  0  0  0  0  0  0  0  0  0
    8.5652    1.5478   25.3778 N   0  0  0  0  0  0  0  0  0  0  0  0
    6.8048   -7.5457   17.8752 C   0  0  0  0  0  0  0  0  0  0  0  0
    6.1721   -8.2186   15.9886 N   0  0  0  0  0  0  0  0  0  0  0  0
   11.1764   -2.6600   19.5604 C   0  0  0  0  0  0  0  0  0  0  0  0
    9.5491   -0.6380   24.1912 C   0  0  0  0  0  0  0  0  0  0  0  0
    7.5337   -6.9256   16.9519 C   0  0  0  0  0  0  0  0  0  0  0  0
    9.6782    0.5671   23.5143 C   0  0  0  0  0  0  0  0  0  0  0  0
    8.4532    0.3482   26.0821 C   0  0  0  0  0  0  0  0  0  0  0  0
   10.4239   -1.7677   22.2230 N   0  0  0  0  0  0  0  0  0  0  0  0
    9.9468   -4.5953   20.1709 C   0  0  0  0  0  0  0  0  0  0  0  0
   10.0366   -3.0590   23.9864 N   0  0  0  0  0  0  0  0  0  0  0  0
    7.1191   -7.3636   15.7739 C   0  0  0  0  0  0  0  0  0  0  0  0
    5.9612   -8.3203   17.2732 N   0  0  0  0  0  0  0  0  0  0  0  0
    8.5296   -5.9814   17.1841 C   0  0  0  0  0  0  0  0  0  0  0  0
    9.1527   -5.2118   16.2116 C   0  0  0  0  0  0  0  0  0  0  0  0
   10.3364   -3.8368   22.9255 O   0  0  0  0  0  0  0  0  0  0  0  0
    9.6947   -4.8407   18.8534 C   0  0  0  0  0  0  0  0  0  0  0  0
    9.1596    1.7042   24.1381 C   0  0  0  0  0  0  0  0  0  0  0  0
   11.0456   -2.9774   18.2694 N   0  0  0  0  0  0  0  0  0  0  0  0
   10.4788   -3.0457   21.8593 C   0  0  0  0  0  0  0  0  0  0  0  0
    8.8693   -5.8099   18.4657 N   0  0  0  0  0  0  0  0  0  0  0  0
    8.9892   -0.7926   25.4573 C   0  0  0  0  0  0  0  0  0  0  0  0
   10.5677   -3.4462   20.5323 C   0  0  0  0  0  0  0  0  0  0  0  0
  1  8  1  0
  1 12  4  0
  1 14  4  0
  2  3  4  0
  2 18  4  0
  3 20  4  0
  3 22  4  0
  4 11  4  0
  4 21  4  0
  5  9  4  0
  5 16  4  0
  6 15  4  0
  6 16  4  0
  7 22  4  0
  7 26  4  0
  8 10  4  0
  8 25  4  0
  9 15  4  0
  9 17  1  0
 10 21  4  0
 11 25  4  0
 12 23  4  0
 13 20  4  0
 13 26  4  0
 14 19  4  0
 17 18  4  0
 17 24  4  0
 19 23  4  0
 20 24  4  0
 23 26  1  0
M  END
$$$$

 Created by Python create_sdf_string function

 26 30  0  0  0  0  0  0  0  0999 V2000
   10.0084   -1.8019   23.4945 C   0  0  0  0  0  0  0  0  0  0  0  0
   10.0005   -4.2520   16.5631 C   0  0  0  0  0  0  0  0  0  0  0  0
   10.2759   -4.0036   17.8845 C   0  0  0  0  0  0  0  0  0  0  0  0
    8.5652    1.5478   25.3778 N   0  0  0  0  0  0  0  0  0  0  0  0
    6.8048   -7.5457   17.8752 C   0  0  0  0  0  0  0  0  0  0  0  0
    6.1721   -8.2186   15.9886 N   0  0  0  0  0  0  0  0  0  0  0  0
   11.1764   -2.6600   19.5604 C   0  0  0  0  0  0  0  0  0  0  0  0
    9.5491   -0.6380   24.1912 C   0  0  0  0  0  0  0  0  0  0  0  0
    7.5337   -6.9256   16.9519 C   0  0  0  0  0  0  0  0  0  0  0  0
    9.6782    0.5671   23.5143 C   0  0  0  0  0  0  0  0  0  0  0  0
    8.4532    0.3482   26.0821 C   0  0  0  0  0  0  0  0  0  0  0  0
   10.4239   -1.7677   22.2230 N   0  0  0  0  0  0  0  0  0  0  0  0
    9.9468   -4.5953   20.1709 C   0  0  0  0  0  0  0  0  0  0  0  0
   10.0366   -3.0590   23.9864 N   0  0  0  0  0  0  0  0  0  0  0  0
    7.1191   -7.3636   15.7739 C   0  0  0  0  0  0  0  0  0  0  0  0
    5.9612   -8.3203   17.2732 N   0  0  0  0  0  0  0  0  0  0  0  0
    8.5296   -5.9814   17.1841 C   0  0  0  0  0  0  0  0  0  0  0  0
    9.1527   -5.2118   16.2116 C   0  0  0  0  0  0  0  0  0  0  0  0
   10.3364   -3.8368   22.9255 O   0  0  0  0  0  0  0  0  0  0  0  0
    9.6947   -4.8407   18.8534 C   0  0  0  0  0  0  0  0  0  0  0  0
    9.1596    1.7042   24.1381 C   0  0  0  0  0  0  0  0  0  0  0  0
   11.0456   -2.9774   18.2694 N   0  0  0  0  0  0  0  0  0  0  0  0
   10.4788   -3.0457   21.8593 C   0  0  0  0  0  0  0  0  0  0  0  0
    8.8693   -5.8099   18.4657 N   0  0  0  0  0  0  0  0  0  0  0  0
    8.9892   -0.7926   25.4573 C   0  0  0  0  0  0  0  0  0  0  0  0
   10.5677   -3.4462   20.5323 C   0  0  0  0  0  0  0  0  0  0  0  0
  1  8  1  0
  1 12  4  0
  1 14  4  0
  2  3  4  0
  2 18  4  0
  3 20  4  0
  3 22  4  0
  4 11  4  0
  4 21  4  0
  5  9  4  0
  5 16  4  0
  6 15  4  0
  6 16  4  0
  7 22  4  0
  7 26  4  0
  8 10  4  0
  8 25  4  0
  9 15  4  0
  9 17  1  0
 10 21  4  0
 11 25  4  0
 12 23  4  0
 13 20  4  0
 13 26  4  0
 14 19  4  0
 17 18  4  0
 17 24  4  0
 19 23  4  0
 20 24  4  0
 23 26  1  0
M  END
$$$$

 Created by Python create_sdf_string function

 26 30  0  0  0  0  0  0  0  0999 V2000
   10.0084   -1.8019   23.4945 C   0  0  0  0  0  0  0  0  0  0  0  0
   10.0005   -4.2520   16.5631 C   0  0  0  0  0  0  0  0  0  0  0  0
   10.2759   -4.0036   17.8845 C   0  0  0  0  0  0  0  0  0  0  0  0
    8.5652    1.5478   25.3778 N   0  0  0  0  0  0  0  0  0  0  0  0
    6.8048   -7.5457   17.8752 C   0  0  0  0  0  0  0  0  0  0  0  0
    6.1721   -8.2186   15.9886 N   0  0  0  0  0  0  0  0  0  0  0  0
   11.1764   -2.6600   19.5604 C   0  0  0  0  0  0  0  0  0  0  0  0
    9.5491   -0.6380   24.1912 C   0  0  0  0  0  0  0  0  0  0  0  0
    7.5337   -6.9256   16.9519 C   0  0  0  0  0  0  0  0  0  0  0  0
    9.6782    0.5671   23.5143 C   0  0  0  0  0  0  0  0  0  0  0  0
    8.4532    0.3482   26.0821 C   0  0  0  0  0  0  0  0  0  0  0  0
   10.4239   -1.7677   22.2230 N   0  0  0  0  0  0  0  0  0  0  0  0
    9.9468   -4.5953   20.1709 C   0  0  0  0  0  0  0  0  0  0  0  0
   10.0366   -3.0590   23.9864 N   0  0  0  0  0  0  0  0  0  0  0  0
    7.1191   -7.3636   15.7739 C   0  0  0  0  0  0  0  0  0  0  0  0
    5.9612   -8.3203   17.2732 N   0  0  0  0  0  0  0  0  0  0  0  0
    8.5296   -5.9814   17.1841 C   0  0  0  0  0  0  0  0  0  0  0  0
    9.1527   -5.2118   16.2116 C   0  0  0  0  0  0  0  0  0  0  0  0
   10.3364   -3.8368   22.9255 O   0  0  0  0  0  0  0  0  0  0  0  0
    9.6947   -4.8407   18.8534 C   0  0  0  0  0  0  0  0  0  0  0  0
    9.1596    1.7042   24.1381 C   0  0  0  0  0  0  0  0  0  0  0  0
   11.0456   -2.9774   18.2694 N   0  0  0  0  0  0  0  0  0  0  0  0
   10.4788   -3.0457   21.8593 C   0  0  0  0  0  0  0  0  0  0  0  0
    8.8693   -5.8099   18.4657 N   0  0  0  0  0  0  0  0  0  0  0  0
    8.9892   -0.7926   25.4573 C   0  0  0  0  0  0  0  0  0  0  0  0
   10.5677   -3.4462   20.5323 C   0  0  0  0  0  0  0  0  0  0  0  0
  1  8  1  0
  1 12  4  0
  1 14  4  0
  2  3  4  0
  2 18  4  0
  3 20  4  0
  3 22  4  0
  4 11  4  0
  4 21  4  0
  5  9  4  0
  5 16  4  0
  6 15  4  0
  6 16  4  0
  7 22  4  0
  7 26  4  0
  8 10  4  0
  8 25  4  0
  9 15  4  0
  9 17  1  0
 10 21  4  0
 11 25  4  0
 12 23  4  0
 13 20  4  0
 13 26  4  0
 14 19  4  0
 17 18  4  0
 17 24  4  0
 19 23  4  0
 20 24  4  0
 23 26  1  0
M  END
$$$$

 Created by Python create_sdf_string function

 26 30  0  0  0  0  0  0  0  0999 V2000
   10.0084   -1.8019   23.4945 C   0  0  0  0  0  0  0  0  0  0  0  0
   10.0005   -4.2520   16.5631 C   0  0  0  0  0  0  0  0  0  0  0  0
   10.2759   -4.0036   17.8845 C   0  0  0  0  0  0  0  0  0  0  0  0
    8.5652    1.5478   25.3778 N   0  0  0  0  0  0  0  0  0  0  0  0
    6.8048   -7.5457   17.8752 C   0  0  0  0  0  0  0  0  0  0  0  0
    6.1721   -8.2186   15.9886 N   0  0  0  0  0  0  0  0  0  0  0  0
   11.1764   -2.6600   19.5604 C   0  0  0  0  0  0  0  0  0  0  0  0
    9.5491   -0.6380   24.1912 C   0  0  0  0  0  0  0  0  0  0  0  0
    7.5337   -6.9256   16.9519 C   0  0  0  0  0  0  0  0  0  0  0  0
    9.6782    0.5671   23.5143 C   0  0  0  0  0  0  0  0  0  0  0  0
    8.4532    0.3482   26.0821 C   0  0  0  0  0  0  0  0  0  0  0  0
   10.4239   -1.7677   22.2230 N   0  0  0  0  0  0  0  0  0  0  0  0
    9.9468   -4.5953   20.1709 C   0  0  0  0  0  0  0  0  0  0  0  0
   10.0366   -3.0590   23.9864 N   0  0  0  0  0  0  0  0  0  0  0  0
    7.1191   -7.3636   15.7739 C   0  0  0  0  0  0  0  0  0  0  0  0
    5.9612   -8.3203   17.2732 N   0  0  0  0  0  0  0  0  0  0  0  0
    8.5296   -5.9814   17.1841 C   0  0  0  0  0  0  0  0  0  0  0  0
    9.1527   -5.2118   16.2116 C   0  0  0  0  0  0  0  0  0  0  0  0
   10.3364   -3.8368   22.9255 O   0  0  0  0  0  0  0  0  0  0  0  0
    9.6947   -4.8407   18.8534 C   0  0  0  0  0  0  0  0  0  0  0  0
    9.1596    1.7042   24.1381 C   0  0  0  0  0  0  0  0  0  0  0  0
   11.0456   -2.9774   18.2694 N   0  0  0  0  0  0  0  0  0  0  0  0
   10.4788   -3.0457   21.8593 C   0  0  0  0  0  0  0  0  0  0  0  0
    8.8693   -5.8099   18.4657 N   0  0  0  0  0  0  0  0  0  0  0  0
    8.9892   -0.7926   25.4573 C   0  0  0  0  0  0  0  0  0  0  0  0
   10.5677   -3.4462   20.5323 C   0  0  0  0  0  0  0  0  0  0  0  0
  1  8  1  0
  1 12  4  0
  1 14  4  0
  2  3  4  0
  2 18  4  0
  3 20  4  0
  3 22  4  0
  4 11  4  0
  4 21  4  0
  5  9  4  0
  5 16  4  0
  6 15  4  0
  6 16  4  0
  7 22  4  0
  7 26  4  0
  8 10  4  0
  8 25  4  0
  9 15  4  0
  9 17  1  0
 10 21  4  0
 11 25  4  0
 12 23  4  0
 13 20  4  0
 13 26  4  0
 14 19  4  0
 17 18  4  0
 17 24  4  0
 19 23  4  0
 20 24  4  0
 23 26  1  0
M  END
$$$$

 Created by Python create_sdf_string function

 26 30  0  0  0  0  0  0  0  0999 V2000
   10.0084   -1.8019   23.4945 C   0  0  0  0  0  0  0  0  0  0  0  0
   10.0005   -4.2520   16.5631 C   0  0  0  0  0  0  0  0  0  0  0  0
   10.2759   -4.0036   17.8845 C   0  0  0  0  0  0  0  0  0  0  0  0
    8.5652    1.5478   25.3778 N   0  0  0  0  0  0  0  0  0  0  0  0
    6.8048   -7.5457   17.8752 C   0  0  0  0  0  0  0  0  0  0  0  0
    6.1721   -8.2186   15.9886 N   0  0  0  0  0  0  0  0  0  0  0  0
   11.1764   -2.6600   19.5604 C   0  0  0  0  0  0  0  0  0  0  0  0
    9.5491   -0.6380   24.1912 C   0  0  0  0  0  0  0  0  0  0  0  0
    7.5337   -6.9256   16.9519 C   0  0  0  0  0  0  0  0  0  0  0  0
    9.6782    0.5671   23.5143 C   0  0  0  0  0  0  0  0  0  0  0  0
    8.4532    0.3482   26.0821 C   0  0  0  0  0  0  0  0  0  0  0  0
   10.4239   -1.7677   22.2230 N   0  0  0  0  0  0  0  0  0  0  0  0
    9.9468   -4.5953   20.1709 C   0  0  0  0  0  0  0  0  0  0  0  0
   10.0366   -3.0590   23.9864 N   0  0  0  0  0  0  0  0  0  0  0  0
    7.1191   -7.3636   15.7739 C   0  0  0  0  0  0  0  0  0  0  0  0
    5.9612   -8.3203   17.2732 N   0  0  0  0  0  0  0  0  0  0  0  0
    8.5296   -5.9814   17.1841 C   0  0  0  0  0  0  0  0  0  0  0  0
    9.1527   -5.2118   16.2116 C   0  0  0  0  0  0  0  0  0  0  0  0
   10.3364   -3.8368   22.9255 O   0  0  0  0  0  0  0  0  0  0  0  0
    9.6947   -4.8407   18.8534 C   0  0  0  0  0  0  0  0  0  0  0  0
    9.1596    1.7042   24.1381 C   0  0  0  0  0  0  0  0  0  0  0  0
   11.0456   -2.9774   18.2694 N   0  0  0  0  0  0  0  0  0  0  0  0
   10.4788   -3.0457   21.8593 C   0  0  0  0  0  0  0  0  0  0  0  0
    8.8693   -5.8099   18.4657 N   0  0  0  0  0  0  0  0  0  0  0  0
    8.9892   -0.7926   25.4573 C   0  0  0  0  0  0  0  0  0  0  0  0
   10.5677   -3.4462   20.5323 C   0  0  0  0  0  0  0  0  0  0  0  0
  1  8  1  0
  1 12  4  0
  1 14  4  0
  2  3  4  0
  2 18  4  0
  3 20  4  0
  3 22  4  0
  4 11  4  0
  4 21  4  0
  5  9  4  0
  5 16  4  0
  6 15  4  0
  6 16  4  0
  7 22  4  0
  7 26  4  0
  8 10  4  0
  8 25  4  0
  9 15  4  0
  9 17  1  0
 10 21  4  0
 11 25  4  0
 12 23  4  0
 13 20  4  0
 13 26  4  0
 14 19  4  0
 17 18  4  0
 17 24  4  0
 19 23  4  0
 20 24  4  0
 23 26  1  0
M  END
$$$$

 Created by Python create_sdf_string function

 26 30  0  0  0  0  0  0  0  0999 V2000
   10.0084   -1.8019   23.4945 C   0  0  0  0  0  0  0  0  0  0  0  0
   10.0005   -4.2520   16.5631 C   0  0  0  0  0  0  0  0  0  0  0  0
   10.2759   -4.0036   17.8845 C   0  0  0  0  0  0  0  0  0  0  0  0
    8.5652    1.5478   25.3778 N   0  0  0  0  0  0  0  0  0  0  0  0
    6.8048   -7.5457   17.8752 C   0  0  0  0  0  0  0  0  0  0  0  0
    6.1721   -8.2186   15.9886 N   0  0  0  0  0  0  0  0  0  0  0  0
   11.1764   -2.6600   19.5604 C   0  0  0  0  0  0  0  0  0  0  0  0
    9.5491   -0.6380   24.1912 C   0  0  0  0  0  0  0  0  0  0  0  0
    7.5337   -6.9256   16.9519 C   0  0  0  0  0  0  0  0  0  0  0  0
    9.6782    0.5671   23.5143 C   0  0  0  0  0  0  0  0  0  0  0  0
    8.4532    0.3482   26.0821 C   0  0  0  0  0  0  0  0  0  0  0  0
   10.4239   -1.7677   22.2230 N   0  0  0  0  0  0  0  0  0  0  0  0
    9.9468   -4.5953   20.1709 C   0  0  0  0  0  0  0  0  0  0  0  0
   10.0366   -3.0590   23.9864 N   0  0  0  0  0  0  0  0  0  0  0  0
    7.1191   -7.3636   15.7739 C   0  0  0  0  0  0  0  0  0  0  0  0
    5.9612   -8.3203   17.2732 N   0  0  0  0  0  0  0  0  0  0  0  0
    8.5296   -5.9814   17.1841 C   0  0  0  0  0  0  0  0  0  0  0  0
    9.1527   -5.2118   16.2116 C   0  0  0  0  0  0  0  0  0  0  0  0
   10.3364   -3.8368   22.9255 O   0  0  0  0  0  0  0  0  0  0  0  0
    9.6947   -4.8407   18.8534 C   0  0  0  0  0  0  0  0  0  0  0  0
    9.1596    1.7042   24.1381 C   0  0  0  0  0  0  0  0  0  0  0  0
   11.0456   -2.9774   18.2694 N   0  0  0  0  0  0  0  0  0  0  0  0
   10.4788   -3.0457   21.8593 C   0  0  0  0  0  0  0  0  0  0  0  0
    8.8693   -5.8099   18.4657 N   0  0  0  0  0  0  0  0  0  0  0  0
    8.9892   -0.7926   25.4573 C   0  0  0  0  0  0  0  0  0  0  0  0
   10.5677   -3.4462   20.5323 C   0  0  0  0  0  0  0  0  0  0  0  0
  1  8  1  0
  1 12  4  0
  1 14  4  0
  2  3  4  0
  2 18  4  0
  3 20  4  0
  3 22  4  0
  4 11  4  0
  4 21  4  0
  5  9  4  0
  5 16  4  0
  6 15  4  0
  6 16  4  0
  7 22  4  0
  7 26  4  0
  8 10  4  0
  8 25  4  0
  9 15  4  0
  9 17  1  0
 10 21  4  0
 11 25  4  0
 12 23  4  0
 13 20  4  0
 13 26  4  0
 14 19  4  0
 17 18  4  0
 17 24  4  0
 19 23  4  0
 20 24  4  0
 23 26  1  0
M  END
$$$$

 Created by Python create_sdf_string function

 26 30  0  0  0  0  0  0  0  0999 V2000
   10.0084   -1.8019   23.4945 C   0  0  0  0  0  0  0  0  0  0  0  0
   10.0005   -4.2520   16.5631 C   0  0  0  0  0  0  0  0  0  0  0  0
   10.2759   -4.0036   17.8845 C   0  0  0  0  0  0  0  0  0  0  0  0
    8.5652    1.5478   25.3778 N   0  0  0  0  0  0  0  0  0  0  0  0
    6.8048   -7.5457   17.8752 C   0  0  0  0  0  0  0  0  0  0  0  0
    6.1721   -8.2186   15.9886 N   0  0  0  0  0  0  0  0  0  0  0  0
   11.1764   -2.6600   19.5604 C   0  0  0  0  0  0  0  0  0  0  0  0
    9.5491   -0.6380   24.1912 C   0  0  0  0  0  0  0  0  0  0  0  0
    7.5337   -6.9256   16.9519 C   0  0  0  0  0  0  0  0  0  0  0  0
    9.6782    0.5671   23.5143 C   0  0  0  0  0  0  0  0  0  0  0  0
    8.4532    0.3482   26.0821 C   0  0  0  0  0  0  0  0  0  0  0  0
   10.4239   -1.7677   22.2230 N   0  0  0  0  0  0  0  0  0  0  0  0
    9.9468   -4.5953   20.1709 C   0  0  0  0  0  0  0  0  0  0  0  0
   10.0366   -3.0590   23.9864 N   0  0  0  0  0  0  0  0  0  0  0  0
    7.1191   -7.3636   15.7739 C   0  0  0  0  0  0  0  0  0  0  0  0
    5.9612   -8.3203   17.2732 N   0  0  0  0  0  0  0  0  0  0  0  0
    8.5296   -5.9814   17.1841 C   0  0  0  0  0  0  0  0  0  0  0  0
    9.1527   -5.2118   16.2116 C   0  0  0  0  0  0  0  0  0  0  0  0
   10.3364   -3.8368   22.9255 O   0  0  0  0  0  0  0  0  0  0  0  0
    9.6947   -4.8407   18.8534 C   0  0  0  0  0  0  0  0  0  0  0  0
    9.1596    1.7042   24.1381 C   0  0  0  0  0  0  0  0  0  0  0  0
   11.0456   -2.9774   18.2694 N   0  0  0  0  0  0  0  0  0  0  0  0
   10.4788   -3.0457   21.8593 C   0  0  0  0  0  0  0  0  0  0  0  0
    8.8693   -5.8099   18.4657 N   0  0  0  0  0  0  0  0  0  0  0  0
    8.9892   -0.7926   25.4573 C   0  0  0  0  0  0  0  0  0  0  0  0
   10.5677   -3.4462   20.5323 C   0  0  0  0  0  0  0  0  0  0  0  0
  1  8  1  0
  1 12  4  0
  1 14  4  0
  2  3  4  0
  2 18  4  0
  3 20  4  0
  3 22  4  0
  4 11  4  0
  4 21  4  0
  5  9  4  0
  5 16  4  0
  6 15  4  0
  6 16  4  0
  7 22  4  0
  7 26  4  0
  8 10  4  0
  8 25  4  0
  9 15  4  0
  9 17  1  0
 10 21  4  0
 11 25  4  0
 12 23  4  0
 13 20  4  0
 13 26  4  0
 14 19  4  0
 17 18  4  0
 17 24  4  0
 19 23  4  0
 20 24  4  0
 23 26  1  0
M  END
$$$$

 Created by Python create_sdf_string function

 26 30  0  0  0  0  0  0  0  0999 V2000
   10.0084   -1.8019   23.4945 C   0  0  0  0  0  0  0  0  0  0  0  0
   10.0005   -4.2520   16.5631 C   0  0  0  0  0  0  0  0  0  0  0  0
   10.2759   -4.0036   17.8845 C   0  0  0  0  0  0  0  0  0  0  0  0
    8.5652    1.5478   25.3778 N   0  0  0  0  0  0  0  0  0  0  0  0
    6.8048   -7.5457   17.8752 C   0  0  0  0  0  0  0  0  0  0  0  0
    6.1721   -8.2186   15.9886 N   0  0  0  0  0  0  0  0  0  0  0  0
   11.1764   -2.6600   19.5604 C   0  0  0  0  0  0  0  0  0  0  0  0
    9.5491   -0.6380   24.1912 C   0  0  0  0  0  0  0  0  0  0  0  0
    7.5337   -6.9256   16.9519 C   0  0  0  0  0  0  0  0  0  0  0  0
    9.6782    0.5671   23.5143 C   0  0  0  0  0  0  0  0  0  0  0  0
    8.4532    0.3482   26.0821 C   0  0  0  0  0  0  0  0  0  0  0  0
   10.4239   -1.7677   22.2230 N   0  0  0  0  0  0  0  0  0  0  0  0
    9.9468   -4.5953   20.1709 C   0  0  0  0  0  0  0  0  0  0  0  0
   10.0366   -3.0590   23.9864 N   0  0  0  0  0  0  0  0  0  0  0  0
    7.1191   -7.3636   15.7739 C   0  0  0  0  0  0  0  0  0  0  0  0
    5.9612   -8.3203   17.2732 N   0  0  0  0  0  0  0  0  0  0  0  0
    8.5296   -5.9814   17.1841 C   0  0  0  0  0  0  0  0  0  0  0  0
    9.1527   -5.2118   16.2116 C   0  0  0  0  0  0  0  0  0  0  0  0
   10.3364   -3.8368   22.9255 O   0  0  0  0  0  0  0  0  0  0  0  0
    9.6947   -4.8407   18.8534 C   0  0  0  0  0  0  0  0  0  0  0  0
    9.1596    1.7042   24.1381 C   0  0  0  0  0  0  0  0  0  0  0  0
   11.0456   -2.9774   18.2694 N   0  0  0  0  0  0  0  0  0  0  0  0
   10.4788   -3.0457   21.8593 C   0  0  0  0  0  0  0  0  0  0  0  0
    8.8693   -5.8099   18.4657 N   0  0  0  0  0  0  0  0  0  0  0  0
    8.9892   -0.7926   25.4573 C   0  0  0  0  0  0  0  0  0  0  0  0
   10.5677   -3.4462   20.5323 C   0  0  0  0  0  0  0  0  0  0  0  0
  1  8  1  0
  1 12  4  0
  1 14  4  0
  2  3  4  0
  2 18  4  0
  3 20  4  0
  3 22  4  0
  4 11  4  0
  4 21  4  0
  5  9  4  0
  5 16  4  0
  6 15  4  0
  6 16  4  0
  7 22  4  0
  7 26  4  0
  8 10  4  0
  8 25  4  0
  9 15  4  0
  9 17  1  0
 10 21  4  0
 11 25  4  0
 12 23  4  0
 13 20  4  0
 13 26  4  0
 14 19  4  0
 17 18  4  0
 17 24  4  0
 19 23  4  0
 20 24  4  0
 23 26  1  0
M  END
$$$$

 Created by Python create_sdf_string function

 26 30  0  0  0  0  0  0  0  0999 V2000
   10.0084   -1.8019   23.4945 C   0  0  0  0  0  0  0  0  0  0  0  0
   10.0005   -4.2520   16.5631 C   0  0  0  0  0  0  0  0  0  0  0  0
   10.2759   -4.0036   17.8845 C   0  0  0  0  0  0  0  0  0  0  0  0
    8.5652    1.5478   25.3778 N   0  0  0  0  0  0  0  0  0  0  0  0
    6.8048   -7.5457   17.8752 C   0  0  0  0  0  0  0  0  0  0  0  0
    6.1721   -8.2186   15.9886 N   0  0  0  0  0  0  0  0  0  0  0  0
   11.1764   -2.6600   19.5604 C   0  0  0  0  0  0  0  0  0  0  0  0
    9.5491   -0.6380   24.1912 C   0  0  0  0  0  0  0  0  0  0  0  0
    7.5337   -6.9256   16.9519 C   0  0  0  0  0  0  0  0  0  0  0  0
    9.6782    0.5671   23.5143 C   0  0  0  0  0  0  0  0  0  0  0  0
    8.4532    0.3482   26.0821 C   0  0  0  0  0  0  0  0  0  0  0  0
   10.4239   -1.7677   22.2230 N   0  0  0  0  0  0  0  0  0  0  0  0
    9.9468   -4.5953   20.1709 C   0  0  0  0  0  0  0  0  0  0  0  0
   10.0366   -3.0590   23.9864 N   0  0  0  0  0  0  0  0  0  0  0  0
    7.1191   -7.3636   15.7739 C   0  0  0  0  0  0  0  0  0  0  0  0
    5.9612   -8.3203   17.2732 N   0  0  0  0  0  0  0  0  0  0  0  0
    8.5296   -5.9814   17.1841 C   0  0  0  0  0  0  0  0  0  0  0  0
    9.1527   -5.2118   16.2116 C   0  0  0  0  0  0  0  0  0  0  0  0
   10.3364   -3.8368   22.9255 O   0  0  0  0  0  0  0  0  0  0  0  0
    9.6947   -4.8407   18.8534 C   0  0  0  0  0  0  0  0  0  0  0  0
    9.1596    1.7042   24.1381 C   0  0  0  0  0  0  0  0  0  0  0  0
   11.0456   -2.9774   18.2694 N   0  0  0  0  0  0  0  0  0  0  0  0
   10.4788   -3.0457   21.8593 C   0  0  0  0  0  0  0  0  0  0  0  0
    8.8693   -5.8099   18.4657 N   0  0  0  0  0  0  0  0  0  0  0  0
    8.9892   -0.7926   25.4573 C   0  0  0  0  0  0  0  0  0  0  0  0
   10.5677   -3.4462   20.5323 C   0  0  0  0  0  0  0  0  0  0  0  0
  1  8  1  0
  1 12  4  0
  1 14  4  0
  2  3  4  0
  2 18  4  0
  3 20  4  0
  3 22  4  0
  4 11  4  0
  4 21  4  0
  5  9  4  0
  5 16  4  0
  6 15  4  0
  6 16  4  0
  7 22  4  0
  7 26  4  0
  8 10  4  0
  8 25  4  0
  9 15  4  0
  9 17  1  0
 10 21  4  0
 11 25  4  0
 12 23  4  0
 13 20  4  0
 13 26  4  0
 14 19  4  0
 17 18  4  0
 17 24  4  0
 19 23  4  0
 20 24  4  0
 23 26  1  0
M  END
$$$$

 Created by Python create_sdf_string function

 26 30  0  0  0  0  0  0  0  0999 V2000
   10.0084   -1.8019   23.4945 C   0  0  0  0  0  0  0  0  0  0  0  0
   10.0005   -4.2520   16.5631 C   0  0  0  0  0  0  0  0  0  0  0  0
   10.2759   -4.0036   17.8845 C   0  0  0  0  0  0  0  0  0  0  0  0
    8.5652    1.5478   25.3778 N   0  0  0  0  0  0  0  0  0  0  0  0
    6.8048   -7.5457   17.8752 C   0  0  0  0  0  0  0  0  0  0  0  0
    6.1721   -8.2186   15.9886 N   0  0  0  0  0  0  0  0  0  0  0  0
   11.1764   -2.6600   19.5604 C   0  0  0  0  0  0  0  0  0  0  0  0
    9.5491   -0.6380   24.1912 C   0  0  0  0  0  0  0  0  0  0  0  0
    7.5337   -6.9256   16.9519 C   0  0  0  0  0  0  0  0  0  0  0  0
    9.6782    0.5671   23.5143 C   0  0  0  0  0  0  0  0  0  0  0  0
    8.4532    0.3482   26.0821 C   0  0  0  0  0  0  0  0  0  0  0  0
   10.4239   -1.7677   22.2230 N   0  0  0  0  0  0  0  0  0  0  0  0
    9.9468   -4.5953   20.1709 C   0  0  0  0  0  0  0  0  0  0  0  0
   10.0366   -3.0590   23.9864 N   0  0  0  0  0  0  0  0  0  0  0  0
    7.1191   -7.3636   15.7739 C   0  0  0  0  0  0  0  0  0  0  0  0
    5.9612   -8.3203   17.2732 N   0  0  0  0  0  0  0  0  0  0  0  0
    8.5296   -5.9814   17.1841 C   0  0  0  0  0  0  0  0  0  0  0  0
    9.1527   -5.2118   16.2116 C   0  0  0  0  0  0  0  0  0  0  0  0
   10.3364   -3.8368   22.9255 O   0  0  0  0  0  0  0  0  0  0  0  0
    9.6947   -4.8407   18.8534 C   0  0  0  0  0  0  0  0  0  0  0  0
    9.1596    1.7042   24.1381 C   0  0  0  0  0  0  0  0  0  0  0  0
   11.0456   -2.9774   18.2694 N   0  0  0  0  0  0  0  0  0  0  0  0
   10.4788   -3.0457   21.8593 C   0  0  0  0  0  0  0  0  0  0  0  0
    8.8693   -5.8099   18.4657 N   0  0  0  0  0  0  0  0  0  0  0  0
    8.9892   -0.7926   25.4573 C   0  0  0  0  0  0  0  0  0  0  0  0
   10.5677   -3.4462   20.5323 C   0  0  0  0  0  0  0  0  0  0  0  0
  1  8  1  0
  1 12  4  0
  1 14  4  0
  2  3  4  0
  2 18  4  0
  3 20  4  0
  3 22  4  0
  4 11  4  0
  4 21  4  0
  5  9  4  0
  5 16  4  0
  6 15  4  0
  6 16  4  0
  7 22  4  0
  7 26  4  0
  8 10  4  0
  8 25  4  0
  9 15  4  0
  9 17  1  0
 10 21  4  0
 11 25  4  0
 12 23  4  0
 13 20  4  0
 13 26  4  0
 14 19  4  0
 17 18  4  0
 17 24  4  0
 19 23  4  0
 20 24  4  0
 23 26  1  0
M  END
$$$$

 Created by Python create_sdf_string function

 26 30  0  0  0  0  0  0  0  0999 V2000
   10.0084   -1.8019   23.4945 C   0  0  0  0  0  0  0  0  0  0  0  0
   10.0005   -4.2520   16.5631 C   0  0  0  0  0  0  0  0  0  0  0  0
   10.2759   -4.0036   17.8845 C   0  0  0  0  0  0  0  0  0  0  0  0
    8.5652    1.5478   25.3778 N   0  0  0  0  0  0  0  0  0  0  0  0
    6.8048   -7.5457   17.8752 C   0  0  0  0  0  0  0  0  0  0  0  0
    6.1721   -8.2186   15.9886 N   0  0  0  0  0  0  0  0  0  0  0  0
   11.1764   -2.6600   19.5604 C   0  0  0  0  0  0  0  0  0  0  0  0
    9.5491   -0.6380   24.1912 C   0  0  0  0  0  0  0  0  0  0  0  0
    7.5337   -6.9256   16.9519 C   0  0  0  0  0  0  0  0  0  0  0  0
    9.6782    0.5671   23.5143 C   0  0  0  0  0  0  0  0  0  0  0  0
    8.4532    0.3482   26.0821 C   0  0  0  0  0  0  0  0  0  0  0  0
   10.4239   -1.7677   22.2230 N   0  0  0  0  0  0  0  0  0  0  0  0
    9.9468   -4.5953   20.1709 C   0  0  0  0  0  0  0  0  0  0  0  0
   10.0366   -3.0590   23.9864 N   0  0  0  0  0  0  0  0  0  0  0  0
    7.1191   -7.3636   15.7739 C   0  0  0  0  0  0  0  0  0  0  0  0
    5.9612   -8.3203   17.2732 N   0  0  0  0  0  0  0  0  0  0  0  0
    8.5296   -5.9814   17.1841 C   0  0  0  0  0  0  0  0  0  0  0  0
    9.1527   -5.2118   16.2116 C   0  0  0  0  0  0  0  0  0  0  0  0
   10.3364   -3.8368   22.9255 O   0  0  0  0  0  0  0  0  0  0  0  0
    9.6947   -4.8407   18.8534 C   0  0  0  0  0  0  0  0  0  0  0  0
    9.1596    1.7042   24.1381 C   0  0  0  0  0  0  0  0  0  0  0  0
   11.0456   -2.9774   18.2694 N   0  0  0  0  0  0  0  0  0  0  0  0
   10.4788   -3.0457   21.8593 C   0  0  0  0  0  0  0  0  0  0  0  0
    8.8693   -5.8099   18.4657 N   0  0  0  0  0  0  0  0  0  0  0  0
    8.9892   -0.7926   25.4573 C   0  0  0  0  0  0  0  0  0  0  0  0
   10.5677   -3.4462   20.5323 C   0  0  0  0  0  0  0  0  0  0  0  0
  1  8  1  0
  1 12  4  0
  1 14  4  0
  2  3  4  0
  2 18  4  0
  3 20  4  0
  3 22  4  0
  4 11  4  0
  4 21  4  0
  5  9  4  0
  5 16  4  0
  6 15  4  0
  6 16  4  0
  7 22  4  0
  7 26  4  0
  8 10  4  0
  8 25  4  0
  9 15  4  0
  9 17  1  0
 10 21  4  0
 11 25  4  0
 12 23  4  0
 13 20  4  0
 13 26  4  0
 14 19  4  0
 17 18  4  0
 17 24  4  0
 19 23  4  0
 20 24  4  0
 23 26  1  0
M  END
$$$$

 Created by Python create_sdf_string function

 26 30  0  0  0  0  0  0  0  0999 V2000
   10.0084   -1.8019   23.4945 C   0  0  0  0  0  0  0  0  0  0  0  0
   10.0005   -4.2520   16.5631 C   0  0  0  0  0  0  0  0  0  0  0  0
   10.2759   -4.0036   17.8845 C   0  0  0  0  0  0  0  0  0  0  0  0
    8.5652    1.5478   25.3778 N   0  0  0  0  0  0  0  0  0  0  0  0
    6.8048   -7.5457   17.8752 C   0  0  0  0  0  0  0  0  0  0  0  0
    6.1721   -8.2186   15.9886 N   0  0  0  0  0  0  0  0  0  0  0  0
   11.1764   -2.6600   19.5604 C   0  0  0  0  0  0  0  0  0  0  0  0
    9.5491   -0.6380   24.1912 C   0  0  0  0  0  0  0  0  0  0  0  0
    7.5337   -6.9256   16.9519 C   0  0  0  0  0  0  0  0  0  0  0  0
    9.6782    0.5671   23.5143 C   0  0  0  0  0  0  0  0  0  0  0  0
    8.4532    0.3482   26.0821 C   0  0  0  0  0  0  0  0  0  0  0  0
   10.4239   -1.7677   22.2230 N   0  0  0  0  0  0  0  0  0  0  0  0
    9.9468   -4.5953   20.1709 C   0  0  0  0  0  0  0  0  0  0  0  0
   10.0366   -3.0590   23.9864 N   0  0  0  0  0  0  0  0  0  0  0  0
    7.1191   -7.3636   15.7739 C   0  0  0  0  0  0  0  0  0  0  0  0
    5.9612   -8.3203   17.2732 N   0  0  0  0  0  0  0  0  0  0  0  0
    8.5296   -5.9814   17.1841 C   0  0  0  0  0  0  0  0  0  0  0  0
    9.1527   -5.2118   16.2116 C   0  0  0  0  0  0  0  0  0  0  0  0
   10.3364   -3.8368   22.9255 O   0  0  0  0  0  0  0  0  0  0  0  0
    9.6947   -4.8407   18.8534 C   0  0  0  0  0  0  0  0  0  0  0  0
    9.1596    1.7042   24.1381 C   0  0  0  0  0  0  0  0  0  0  0  0
   11.0456   -2.9774   18.2694 N   0  0  0  0  0  0  0  0  0  0  0  0
   10.4788   -3.0457   21.8593 C   0  0  0  0  0  0  0  0  0  0  0  0
    8.8693   -5.8099   18.4657 N   0  0  0  0  0  0  0  0  0  0  0  0
    8.9892   -0.7926   25.4573 C   0  0  0  0  0  0  0  0  0  0  0  0
   10.5677   -3.4462   20.5323 C   0  0  0  0  0  0  0  0  0  0  0  0
  1  8  1  0
  1 12  4  0
  1 14  4  0
  2  3  4  0
  2 18  4  0
  3 20  4  0
  3 22  4  0
  4 11  4  0
  4 21  4  0
  5  9  4  0
  5 16  4  0
  6 15  4  0
  6 16  4  0
  7 22  4  0
  7 26  4  0
  8 10  4  0
  8 25  4  0
  9 15  4  0
  9 17  1  0
 10 21  4  0
 11 25  4  0
 12 23  4  0
 13 20  4  0
 13 26  4  0
 14 19  4  0
 17 18  4  0
 17 24  4  0
 19 23  4  0
 20 24  4  0
 23 26  1  0
M  END
$$$$

 Created by Python create_sdf_string function

 26 30  0  0  0  0  0  0  0  0999 V2000
   10.0084   -1.8019   23.4945 C   0  0  0  0  0  0  0  0  0  0  0  0
   10.0005   -4.2520   16.5631 C   0  0  0  0  0  0  0  0  0  0  0  0
   10.2759   -4.0036   17.8845 C   0  0  0  0  0  0  0  0  0  0  0  0
    8.5652    1.5478   25.3778 N   0  0  0  0  0  0  0  0  0  0  0  0
    6.8048   -7.5457   17.8752 C   0  0  0  0  0  0  0  0  0  0  0  0
    6.1721   -8.2186   15.9886 N   0  0  0  0  0  0  0  0  0  0  0  0
   11.1764   -2.6600   19.5604 C   0  0  0  0  0  0  0  0  0  0  0  0
    9.5491   -0.6380   24.1912 C   0  0  0  0  0  0  0  0  0  0  0  0
    7.5337   -6.9256   16.9519 C   0  0  0  0  0  0  0  0  0  0  0  0
    9.6782    0.5671   23.5143 C   0  0  0  0  0  0  0  0  0  0  0  0
    8.4532    0.3482   26.0821 C   0  0  0  0  0  0  0  0  0  0  0  0
   10.4239   -1.7677   22.2230 N   0  0  0  0  0  0  0  0  0  0  0  0
    9.9468   -4.5953   20.1709 C   0  0  0  0  0  0  0  0  0  0  0  0
   10.0366   -3.0590   23.9864 N   0  0  0  0  0  0  0  0  0  0  0  0
    7.1191   -7.3636   15.7739 C   0  0  0  0  0  0  0  0  0  0  0  0
    5.9612   -8.3203   17.2732 N   0  0  0  0  0  0  0  0  0  0  0  0
    8.5296   -5.9814   17.1841 C   0  0  0  0  0  0  0  0  0  0  0  0
    9.1527   -5.2118   16.2116 C   0  0  0  0  0  0  0  0  0  0  0  0
   10.3364   -3.8368   22.9255 O   0  0  0  0  0  0  0  0  0  0  0  0
    9.6947   -4.8407   18.8534 C   0  0  0  0  0  0  0  0  0  0  0  0
    9.1596    1.7042   24.1381 C   0  0  0  0  0  0  0  0  0  0  0  0
   11.0456   -2.9774   18.2694 N   0  0  0  0  0  0  0  0  0  0  0  0
   10.4788   -3.0457   21.8593 C   0  0  0  0  0  0  0  0  0  0  0  0
    8.8693   -5.8099   18.4657 N   0  0  0  0  0  0  0  0  0  0  0  0
    8.9892   -0.7926   25.4573 C   0  0  0  0  0  0  0  0  0  0  0  0
   10.5677   -3.4462   20.5323 C   0  0  0  0  0  0  0  0  0  0  0  0
  1  8  1  0
  1 12  4  0
  1 14  4  0
  2  3  4  0
  2 18  4  0
  3 20  4  0
  3 22  4  0
  4 11  4  0
  4 21  4  0
  5  9  4  0
  5 16  4  0
  6 15  4  0
  6 16  4  0
  7 22  4  0
  7 26  4  0
  8 10  4  0
  8 25  4  0
  9 15  4  0
  9 17  1  0
 10 21  4  0
 11 25  4  0
 12 23  4  0
 13 20  4  0
 13 26  4  0
 14 19  4  0
 17 18  4  0
 17 24  4  0
 19 23  4  0
 20 24  4  0
 23 26  1  0
M  END
$$$$

 Created by Python create_sdf_string function

 26 30  0  0  0  0  0  0  0  0999 V2000
   10.0084   -1.8019   23.4945 C   0  0  0  0  0  0  0  0  0  0  0  0
   10.0005   -4.2520   16.5631 C   0  0  0  0  0  0  0  0  0  0  0  0
   10.2759   -4.0036   17.8845 C   0  0  0  0  0  0  0  0  0  0  0  0
    8.5652    1.5478   25.3778 N   0  0  0  0  0  0  0  0  0  0  0  0
    6.8048   -7.5457   17.8752 C   0  0  0  0  0  0  0  0  0  0  0  0
    6.1721   -8.2186   15.9886 N   0  0  0  0  0  0  0  0  0  0  0  0
   11.1764   -2.6600   19.5604 C   0  0  0  0  0  0  0  0  0  0  0  0
    9.5491   -0.6380   24.1912 C   0  0  0  0  0  0  0  0  0  0  0  0
    7.5337   -6.9256   16.9519 C   0  0  0  0  0  0  0  0  0  0  0  0
    9.6782    0.5671   23.5143 C   0  0  0  0  0  0  0  0  0  0  0  0
    8.4532    0.3482   26.0821 C   0  0  0  0  0  0  0  0  0  0  0  0
   10.4239   -1.7677   22.2230 N   0  0  0  0  0  0  0  0  0  0  0  0
    9.9468   -4.5953   20.1709 C   0  0  0  0  0  0  0  0  0  0  0  0
   10.0366   -3.0590   23.9864 N   0  0  0  0  0  0  0  0  0  0  0  0
    7.1191   -7.3636   15.7739 C   0  0  0  0  0  0  0  0  0  0  0  0
    5.9612   -8.3203   17.2732 N   0  0  0  0  0  0  0  0  0  0  0  0
    8.5296   -5.9814   17.1841 C   0  0  0  0  0  0  0  0  0  0  0  0
    9.1527   -5.2118   16.2116 C   0  0  0  0  0  0  0  0  0  0  0  0
   10.3364   -3.8368   22.9255 O   0  0  0  0  0  0  0  0  0  0  0  0
    9.6947   -4.8407   18.8534 C   0  0  0  0  0  0  0  0  0  0  0  0
    9.1596    1.7042   24.1381 C   0  0  0  0  0  0  0  0  0  0  0  0
   11.0456   -2.9774   18.2694 N   0  0  0  0  0  0  0  0  0  0  0  0
   10.4788   -3.0457   21.8593 C   0  0  0  0  0  0  0  0  0  0  0  0
    8.8693   -5.8099   18.4657 N   0  0  0  0  0  0  0  0  0  0  0  0
    8.9892   -0.7926   25.4573 C   0  0  0  0  0  0  0  0  0  0  0  0
   10.5677   -3.4462   20.5323 C   0  0  0  0  0  0  0  0  0  0  0  0
  1  8  1  0
  1 12  4  0
  1 14  4  0
  2  3  4  0
  2 18  4  0
  3 20  4  0
  3 22  4  0
  4 11  4  0
  4 21  4  0
  5  9  4  0
  5 16  4  0
  6 15  4  0
  6 16  4  0
  7 22  4  0
  7 26  4  0
  8 10  4  0
  8 25  4  0
  9 15  4  0
  9 17  1  0
 10 21  4  0
 11 25  4  0
 12 23  4  0
 13 20  4  0
 13 26  4  0
 14 19  4  0
 17 18  4  0
 17 24  4  0
 19 23  4  0
 20 24  4  0
 23 26  1  0
M  END
$$$$

 Created by Python create_sdf_string function

 26 30  0  0  0  0  0  0  0  0999 V2000
   10.0084   -1.8019   23.4945 C   0  0  0  0  0  0  0  0  0  0  0  0
   10.0005   -4.2520   16.5631 C   0  0  0  0  0  0  0  0  0  0  0  0
   10.2759   -4.0036   17.8845 C   0  0  0  0  0  0  0  0  0  0  0  0
    8.5652    1.5478   25.3778 N   0  0  0  0  0  0  0  0  0  0  0  0
    6.8048   -7.5457   17.8752 C   0  0  0  0  0  0  0  0  0  0  0  0
    6.1721   -8.2186   15.9886 N   0  0  0  0  0  0  0  0  0  0  0  0
   11.1764   -2.6600   19.5604 C   0  0  0  0  0  0  0  0  0  0  0  0
    9.5491   -0.6380   24.1912 C   0  0  0  0  0  0  0  0  0  0  0  0
    7.5337   -6.9256   16.9519 C   0  0  0  0  0  0  0  0  0  0  0  0
    9.6782    0.5671   23.5143 C   0  0  0  0  0  0  0  0  0  0  0  0
    8.4532    0.3482   26.0821 C   0  0  0  0  0  0  0  0  0  0  0  0
   10.4239   -1.7677   22.2230 N   0  0  0  0  0  0  0  0  0  0  0  0
    9.9468   -4.5953   20.1709 C   0  0  0  0  0  0  0  0  0  0  0  0
   10.0366   -3.0590   23.9864 N   0  0  0  0  0  0  0  0  0  0  0  0
    7.1191   -7.3636   15.7739 C   0  0  0  0  0  0  0  0  0  0  0  0
    5.9612   -8.3203   17.2732 N   0  0  0  0  0  0  0  0  0  0  0  0
    8.5296   -5.9814   17.1841 C   0  0  0  0  0  0  0  0  0  0  0  0
    9.1527   -5.2118   16.2116 C   0  0  0  0  0  0  0  0  0  0  0  0
   10.3364   -3.8368   22.9255 O   0  0  0  0  0  0  0  0  0  0  0  0
    9.6947   -4.8407   18.8534 C   0  0  0  0  0  0  0  0  0  0  0  0
    9.1596    1.7042   24.1381 C   0  0  0  0  0  0  0  0  0  0  0  0
   11.0456   -2.9774   18.2694 N   0  0  0  0  0  0  0  0  0  0  0  0
   10.4788   -3.0457   21.8593 C   0  0  0  0  0  0  0  0  0  0  0  0
    8.8693   -5.8099   18.4657 N   0  0  0  0  0  0  0  0  0  0  0  0
    8.9892   -0.7926   25.4573 C   0  0  0  0  0  0  0  0  0  0  0  0
   10.5677   -3.4462   20.5323 C   0  0  0  0  0  0  0  0  0  0  0  0
  1  8  1  0
  1 12  4  0
  1 14  4  0
  2  3  4  0
  2 18  4  0
  3 20  4  0
  3 22  4  0
  4 11  4  0
  4 21  4  0
  5  9  4  0
  5 16  4  0
  6 15  4  0
  6 16  4  0
  7 22  4  0
  7 26  4  0
  8 10  4  0
  8 25  4  0
  9 15  4  0
  9 17  1  0
 10 21  4  0
 11 25  4  0
 12 23  4  0
 13 20  4  0
 13 26  4  0
 14 19  4  0
 17 18  4  0
 17 24  4  0
 19 23  4  0
 20 24  4  0
 23 26  1  0
M  END
$$$$

 Created by Python create_sdf_string function

 26 30  0  0  0  0  0  0  0  0999 V2000
   10.0084   -1.8019   23.4945 C   0  0  0  0  0  0  0  0  0  0  0  0
   10.0005   -4.2520   16.5631 C   0  0  0  0  0  0  0  0  0  0  0  0
   10.2759   -4.0036   17.8845 C   0  0  0  0  0  0  0  0  0  0  0  0
    8.5652    1.5478   25.3778 N   0  0  0  0  0  0  0  0  0  0  0  0
    6.8048   -7.5457   17.8752 C   0  0  0  0  0  0  0  0  0  0  0  0
    6.1721   -8.2186   15.9886 N   0  0  0  0  0  0  0  0  0  0  0  0
   11.1764   -2.6600   19.5604 C   0  0  0  0  0  0  0  0  0  0  0  0
    9.5491   -0.6380   24.1912 C   0  0  0  0  0  0  0  0  0  0  0  0
    7.5337   -6.9256   16.9519 C   0  0  0  0  0  0  0  0  0  0  0  0
    9.6782    0.5671   23.5143 C   0  0  0  0  0  0  0  0  0  0  0  0
    8.4532    0.3482   26.0821 C   0  0  0  0  0  0  0  0  0  0  0  0
   10.4239   -1.7677   22.2230 N   0  0  0  0  0  0  0  0  0  0  0  0
    9.9468   -4.5953   20.1709 C   0  0  0  0  0  0  0  0  0  0  0  0
   10.0366   -3.0590   23.9864 N   0  0  0  0  0  0  0  0  0  0  0  0
    7.1191   -7.3636   15.7739 C   0  0  0  0  0  0  0  0  0  0  0  0
    5.9612   -8.3203   17.2732 N   0  0  0  0  0  0  0  0  0  0  0  0
    8.5296   -5.9814   17.1841 C   0  0  0  0  0  0  0  0  0  0  0  0
    9.1527   -5.2118   16.2116 C   0  0  0  0  0  0  0  0  0  0  0  0
   10.3364   -3.8368   22.9255 O   0  0  0  0  0  0  0  0  0  0  0  0
    9.6947   -4.8407   18.8534 C   0  0  0  0  0  0  0  0  0  0  0  0
    9.1596    1.7042   24.1381 C   0  0  0  0  0  0  0  0  0  0  0  0
   11.0456   -2.9774   18.2694 N   0  0  0  0  0  0  0  0  0  0  0  0
   10.4788   -3.0457   21.8593 C   0  0  0  0  0  0  0  0  0  0  0  0
    8.8693   -5.8099   18.4657 N   0  0  0  0  0  0  0  0  0  0  0  0
    8.9892   -0.7926   25.4573 C   0  0  0  0  0  0  0  0  0  0  0  0
   10.5677   -3.4462   20.5323 C   0  0  0  0  0  0  0  0  0  0  0  0
  1  8  1  0
  1 12  4  0
  1 14  4  0
  2  3  4  0
  2 18  4  0
  3 20  4  0
  3 22  4  0
  4 11  4  0
  4 21  4  0
  5  9  4  0
  5 16  4  0
  6 15  4  0
  6 16  4  0
  7 22  4  0
  7 26  4  0
  8 10  4  0
  8 25  4  0
  9 15  4  0
  9 17  1  0
 10 21  4  0
 11 25  4  0
 12 23  4  0
 13 20  4  0
 13 26  4  0
 14 19  4  0
 17 18  4  0
 17 24  4  0
 19 23  4  0
 20 24  4  0
 23 26  1  0
M  END
$$$$

 Created by Python create_sdf_string function

 26 30  0  0  0  0  0  0  0  0999 V2000
   10.0084   -1.8019   23.4945 C   0  0  0  0  0  0  0  0  0  0  0  0
   10.0005   -4.2520   16.5631 C   0  0  0  0  0  0  0  0  0  0  0  0
   10.2759   -4.0036   17.8845 C   0  0  0  0  0  0  0  0  0  0  0  0
    8.5652    1.5478   25.3778 N   0  0  0  0  0  0  0  0  0  0  0  0
    6.8048   -7.5457   17.8752 C   0  0  0  0  0  0  0  0  0  0  0  0
    6.1721   -8.2186   15.9886 N   0  0  0  0  0  0  0  0  0  0  0  0
   11.1764   -2.6600   19.5604 C   0  0  0  0  0  0  0  0  0  0  0  0
    9.5491   -0.6380   24.1912 C   0  0  0  0  0  0  0  0  0  0  0  0
    7.5337   -6.9256   16.9519 C   0  0  0  0  0  0  0  0  0  0  0  0
    9.6782    0.5671   23.5143 C   0  0  0  0  0  0  0  0  0  0  0  0
    8.4532    0.3482   26.0821 C   0  0  0  0  0  0  0  0  0  0  0  0
   10.4239   -1.7677   22.2230 N   0  0  0  0  0  0  0  0  0  0  0  0
    9.9468   -4.5953   20.1709 C   0  0  0  0  0  0  0  0  0  0  0  0
   10.0366   -3.0590   23.9864 N   0  0  0  0  0  0  0  0  0  0  0  0
    7.1191   -7.3636   15.7739 C   0  0  0  0  0  0  0  0  0  0  0  0
    5.9612   -8.3203   17.2732 N   0  0  0  0  0  0  0  0  0  0  0  0
    8.5296   -5.9814   17.1841 C   0  0  0  0  0  0  0  0  0  0  0  0
    9.1527   -5.2118   16.2116 C   0  0  0  0  0  0  0  0  0  0  0  0
   10.3364   -3.8368   22.9255 O   0  0  0  0  0  0  0  0  0  0  0  0
    9.6947   -4.8407   18.8534 C   0  0  0  0  0  0  0  0  0  0  0  0
    9.1596    1.7042   24.1381 C   0  0  0  0  0  0  0  0  0  0  0  0
   11.0456   -2.9774   18.2694 N   0  0  0  0  0  0  0  0  0  0  0  0
   10.4788   -3.0457   21.8593 C   0  0  0  0  0  0  0  0  0  0  0  0
    8.8693   -5.8099   18.4657 N   0  0  0  0  0  0  0  0  0  0  0  0
    8.9892   -0.7926   25.4573 C   0  0  0  0  0  0  0  0  0  0  0  0
   10.5677   -3.4462   20.5323 C   0  0  0  0  0  0  0  0  0  0  0  0
  1  8  1  0
  1 12  4  0
  1 14  4  0
  2  3  4  0
  2 18  4  0
  3 20  4  0
  3 22  4  0
  4 11  4  0
  4 21  4  0
  5  9  4  0
  5 16  4  0
  6 15  4  0
  6 16  4  0
  7 22  4  0
  7 26  4  0
  8 10  4  0
  8 25  4  0
  9 15  4  0
  9 17  1  0
 10 21  4  0
 11 25  4  0
 12 23  4  0
 13 20  4  0
 13 26  4  0
 14 19  4  0
 17 18  4  0
 17 24  4  0
 19 23  4  0
 20 24  4  0
 23 26  1  0
M  END
$$$$

 Created by Python create_sdf_string function

 26 30  0  0  0  0  0  0  0  0999 V2000
   10.0084   -1.8019   23.4945 C   0  0  0  0  0  0  0  0  0  0  0  0
   10.0005   -4.2520   16.5631 C   0  0  0  0  0  0  0  0  0  0  0  0
   10.2759   -4.0036   17.8845 C   0  0  0  0  0  0  0  0  0  0  0  0
    8.5652    1.5478   25.3778 N   0  0  0  0  0  0  0  0  0  0  0  0
    6.8048   -7.5457   17.8752 C   0  0  0  0  0  0  0  0  0  0  0  0
    6.1721   -8.2186   15.9886 N   0  0  0  0  0  0  0  0  0  0  0  0
   11.1764   -2.6600   19.5604 C   0  0  0  0  0  0  0  0  0  0  0  0
    9.5491   -0.6380   24.1912 C   0  0  0  0  0  0  0  0  0  0  0  0
    7.5337   -6.9256   16.9519 C   0  0  0  0  0  0  0  0  0  0  0  0
    9.6782    0.5671   23.5143 C   0  0  0  0  0  0  0  0  0  0  0  0
    8.4532    0.3482   26.0821 C   0  0  0  0  0  0  0  0  0  0  0  0
   10.4239   -1.7677   22.2230 N   0  0  0  0  0  0  0  0  0  0  0  0
    9.9468   -4.5953   20.1709 C   0  0  0  0  0  0  0  0  0  0  0  0
   10.0366   -3.0590   23.9864 N   0  0  0  0  0  0  0  0  0  0  0  0
    7.1191   -7.3636   15.7739 C   0  0  0  0  0  0  0  0  0  0  0  0
    5.9612   -8.3203   17.2732 N   0  0  0  0  0  0  0  0  0  0  0  0
    8.5296   -5.9814   17.1841 C   0  0  0  0  0  0  0  0  0  0  0  0
    9.1527   -5.2118   16.2116 C   0  0  0  0  0  0  0  0  0  0  0  0
   10.3364   -3.8368   22.9255 O   0  0  0  0  0  0  0  0  0  0  0  0
    9.6947   -4.8407   18.8534 C   0  0  0  0  0  0  0  0  0  0  0  0
    9.1596    1.7042   24.1381 C   0  0  0  0  0  0  0  0  0  0  0  0
   11.0456   -2.9774   18.2694 N   0  0  0  0  0  0  0  0  0  0  0  0
   10.4788   -3.0457   21.8593 C   0  0  0  0  0  0  0  0  0  0  0  0
    8.8693   -5.8099   18.4657 N   0  0  0  0  0  0  0  0  0  0  0  0
    8.9892   -0.7926   25.4573 C   0  0  0  0  0  0  0  0  0  0  0  0
   10.5677   -3.4462   20.5323 C   0  0  0  0  0  0  0  0  0  0  0  0
  1  8  1  0
  1 12  4  0
  1 14  4  0
  2  3  4  0
  2 18  4  0
  3 20  4  0
  3 22  4  0
  4 11  4  0
  4 21  4  0
  5  9  4  0
  5 16  4  0
  6 15  4  0
  6 16  4  0
  7 22  4  0
  7 26  4  0
  8 10  4  0
  8 25  4  0
  9 15  4  0
  9 17  1  0
 10 21  4  0
 11 25  4  0
 12 23  4  0
 13 20  4  0
 13 26  4  0
 14 19  4  0
 17 18  4  0
 17 24  4  0
 19 23  4  0
 20 24  4  0
 23 26  1  0
M  END
$$$$

 Created by Python create_sdf_string function

 26 30  0  0  0  0  0  0  0  0999 V2000
   10.0084   -1.8019   23.4945 C   0  0  0  0  0  0  0  0  0  0  0  0
   10.0005   -4.2520   16.5631 C   0  0  0  0  0  0  0  0  0  0  0  0
   10.2759   -4.0036   17.8845 C   0  0  0  0  0  0  0  0  0  0  0  0
    8.5652    1.5478   25.3778 N   0  0  0  0  0  0  0  0  0  0  0  0
    6.8048   -7.5457   17.8752 C   0  0  0  0  0  0  0  0  0  0  0  0
    6.1721   -8.2186   15.9886 N   0  0  0  0  0  0  0  0  0  0  0  0
   11.1764   -2.6600   19.5604 C   0  0  0  0  0  0  0  0  0  0  0  0
    9.5491   -0.6380   24.1912 C   0  0  0  0  0  0  0  0  0  0  0  0
    7.5337   -6.9256   16.9519 C   0  0  0  0  0  0  0  0  0  0  0  0
    9.6782    0.5671   23.5143 C   0  0  0  0  0  0  0  0  0  0  0  0
    8.4532    0.3482   26.0821 C   0  0  0  0  0  0  0  0  0  0  0  0
   10.4239   -1.7677   22.2230 N   0  0  0  0  0  0  0  0  0  0  0  0
    9.9468   -4.5953   20.1709 C   0  0  0  0  0  0  0  0  0  0  0  0
   10.0366   -3.0590   23.9864 N   0  0  0  0  0  0  0  0  0  0  0  0
    7.1191   -7.3636   15.7739 C   0  0  0  0  0  0  0  0  0  0  0  0
    5.9612   -8.3203   17.2732 N   0  0  0  0  0  0  0  0  0  0  0  0
    8.5296   -5.9814   17.1841 C   0  0  0  0  0  0  0  0  0  0  0  0
    9.1527   -5.2118   16.2116 C   0  0  0  0  0  0  0  0  0  0  0  0
   10.3364   -3.8368   22.9255 O   0  0  0  0  0  0  0  0  0  0  0  0
    9.6947   -4.8407   18.8534 C   0  0  0  0  0  0  0  0  0  0  0  0
    9.1596    1.7042   24.1381 C   0  0  0  0  0  0  0  0  0  0  0  0
   11.0456   -2.9774   18.2694 N   0  0  0  0  0  0  0  0  0  0  0  0
   10.4788   -3.0457   21.8593 C   0  0  0  0  0  0  0  0  0  0  0  0
    8.8693   -5.8099   18.4657 N   0  0  0  0  0  0  0  0  0  0  0  0
    8.9892   -0.7926   25.4573 C   0  0  0  0  0  0  0  0  0  0  0  0
   10.5677   -3.4462   20.5323 C   0  0  0  0  0  0  0  0  0  0  0  0
  1  8  1  0
  1 12  4  0
  1 14  4  0
  2  3  4  0
  2 18  4  0
  3 20  4  0
  3 22  4  0
  4 11  4  0
  4 21  4  0
  5  9  4  0
  5 16  4  0
  6 15  4  0
  6 16  4  0
  7 22  4  0
  7 26  4  0
  8 10  4  0
  8 25  4  0
  9 15  4  0
  9 17  1  0
 10 21  4  0
 11 25  4  0
 12 23  4  0
 13 20  4  0
 13 26  4  0
 14 19  4  0
 17 18  4  0
 17 24  4  0
 19 23  4  0
 20 24  4  0
 23 26  1  0
M  END
$$$$

 Created by Python create_sdf_string function

 26 30  0  0  0  0  0  0  0  0999 V2000
   10.0084   -1.8019   23.4945 C   0  0  0  0  0  0  0  0  0  0  0  0
   10.0005   -4.2520   16.5631 C   0  0  0  0  0  0  0  0  0  0  0  0
   10.2759   -4.0036   17.8845 C   0  0  0  0  0  0  0  0  0  0  0  0
    8.5652    1.5478   25.3778 N   0  0  0  0  0  0  0  0  0  0  0  0
    6.8048   -7.5457   17.8752 C   0  0  0  0  0  0  0  0  0  0  0  0
    6.1721   -8.2186   15.9886 N   0  0  0  0  0  0  0  0  0  0  0  0
   11.1764   -2.6600   19.5604 C   0  0  0  0  0  0  0  0  0  0  0  0
    9.5491   -0.6380   24.1912 C   0  0  0  0  0  0  0  0  0  0  0  0
    7.5337   -6.9256   16.9519 C   0  0  0  0  0  0  0  0  0  0  0  0
    9.6782    0.5671   23.5143 C   0  0  0  0  0  0  0  0  0  0  0  0
    8.4532    0.3482   26.0821 C   0  0  0  0  0  0  0  0  0  0  0  0
   10.4239   -1.7677   22.2230 N   0  0  0  0  0  0  0  0  0  0  0  0
    9.9468   -4.5953   20.1709 C   0  0  0  0  0  0  0  0  0  0  0  0
   10.0366   -3.0590   23.9864 N   0  0  0  0  0  0  0  0  0  0  0  0
    7.1191   -7.3636   15.7739 C   0  0  0  0  0  0  0  0  0  0  0  0
    5.9612   -8.3203   17.2732 N   0  0  0  0  0  0  0  0  0  0  0  0
    8.5296   -5.9814   17.1841 C   0  0  0  0  0  0  0  0  0  0  0  0
    9.1527   -5.2118   16.2116 C   0  0  0  0  0  0  0  0  0  0  0  0
   10.3364   -3.8368   22.9255 O   0  0  0  0  0  0  0  0  0  0  0  0
    9.6947   -4.8407   18.8534 C   0  0  0  0  0  0  0  0  0  0  0  0
    9.1596    1.7042   24.1381 C   0  0  0  0  0  0  0  0  0  0  0  0
   11.0456   -2.9774   18.2694 N   0  0  0  0  0  0  0  0  0  0  0  0
   10.4788   -3.0457   21.8593 C   0  0  0  0  0  0  0  0  0  0  0  0
    8.8693   -5.8099   18.4657 N   0  0  0  0  0  0  0  0  0  0  0  0
    8.9892   -0.7926   25.4573 C   0  0  0  0  0  0  0  0  0  0  0  0
   10.5677   -3.4462   20.5323 C   0  0  0  0  0  0  0  0  0  0  0  0
  1  8  1  0
  1 12  4  0
  1 14  4  0
  2  3  4  0
  2 18  4  0
  3 20  4  0
  3 22  4  0
  4 11  4  0
  4 21  4  0
  5  9  4  0
  5 16  4  0
  6 15  4  0
  6 16  4  0
  7 22  4  0
  7 26  4  0
  8 10  4  0
  8 25  4  0
  9 15  4  0
  9 17  1  0
 10 21  4  0
 11 25  4  0
 12 23  4  0
 13 20  4  0
 13 26  4  0
 14 19  4  0
 17 18  4  0
 17 24  4  0
 19 23  4  0
 20 24  4  0
 23 26  1  0
M  END
$$$$

 Created by Python create_sdf_string function

 26 30  0  0  0  0  0  0  0  0999 V2000
   10.0084   -1.8019   23.4945 C   0  0  0  0  0  0  0  0  0  0  0  0
   10.0005   -4.2520   16.5631 C   0  0  0  0  0  0  0  0  0  0  0  0
   10.2759   -4.0036   17.8845 C   0  0  0  0  0  0  0  0  0  0  0  0
    8.5652    1.5478   25.3778 N   0  0  0  0  0  0  0  0  0  0  0  0
    6.8048   -7.5457   17.8752 C   0  0  0  0  0  0  0  0  0  0  0  0
    6.1721   -8.2186   15.9886 N   0  0  0  0  0  0  0  0  0  0  0  0
   11.1764   -2.6600   19.5604 C   0  0  0  0  0  0  0  0  0  0  0  0
    9.5491   -0.6380   24.1912 C   0  0  0  0  0  0  0  0  0  0  0  0
    7.5337   -6.9256   16.9519 C   0  0  0  0  0  0  0  0  0  0  0  0
    9.6782    0.5671   23.5143 C   0  0  0  0  0  0  0  0  0  0  0  0
    8.4532    0.3482   26.0821 C   0  0  0  0  0  0  0  0  0  0  0  0
   10.4239   -1.7677   22.2230 N   0  0  0  0  0  0  0  0  0  0  0  0
    9.9468   -4.5953   20.1709 C   0  0  0  0  0  0  0  0  0  0  0  0
   10.0366   -3.0590   23.9864 N   0  0  0  0  0  0  0  0  0  0  0  0
    7.1191   -7.3636   15.7739 C   0  0  0  0  0  0  0  0  0  0  0  0
    5.9612   -8.3203   17.2732 N   0  0  0  0  0  0  0  0  0  0  0  0
    8.5296   -5.9814   17.1841 C   0  0  0  0  0  0  0  0  0  0  0  0
    9.1527   -5.2118   16.2116 C   0  0  0  0  0  0  0  0  0  0  0  0
   10.3364   -3.8368   22.9255 O   0  0  0  0  0  0  0  0  0  0  0  0
    9.6947   -4.8407   18.8534 C   0  0  0  0  0  0  0  0  0  0  0  0
    9.1596    1.7042   24.1381 C   0  0  0  0  0  0  0  0  0  0  0  0
   11.0456   -2.9774   18.2694 N   0  0  0  0  0  0  0  0  0  0  0  0
   10.4788   -3.0457   21.8593 C   0  0  0  0  0  0  0  0  0  0  0  0
    8.8693   -5.8099   18.4657 N   0  0  0  0  0  0  0  0  0  0  0  0
    8.9892   -0.7926   25.4573 C   0  0  0  0  0  0  0  0  0  0  0  0
   10.5677   -3.4462   20.5323 C   0  0  0  0  0  0  0  0  0  0  0  0
  1  8  1  0
  1 12  4  0
  1 14  4  0
  2  3  4  0
  2 18  4  0
  3 20  4  0
  3 22  4  0
  4 11  4  0
  4 21  4  0
  5  9  4  0
  5 16  4  0
  6 15  4  0
  6 16  4  0
  7 22  4  0
  7 26  4  0
  8 10  4  0
  8 25  4  0
  9 15  4  0
  9 17  1  0
 10 21  4  0
 11 25  4  0
 12 23  4  0
 13 20  4  0
 13 26  4  0
 14 19  4  0
 17 18  4  0
 17 24  4  0
 19 23  4  0
 20 24  4  0
 23 26  1  0
M  END
$$$$

 Created by Python create_sdf_string function

 26 30  0  0  0  0  0  0  0  0999 V2000
   10.0084   -1.8019   23.4945 C   0  0  0  0  0  0  0  0  0  0  0  0
   10.0005   -4.2520   16.5631 C   0  0  0  0  0  0  0  0  0  0  0  0
   10.2759   -4.0036   17.8845 C   0  0  0  0  0  0  0  0  0  0  0  0
    8.5652    1.5478   25.3778 N   0  0  0  0  0  0  0  0  0  0  0  0
    6.8048   -7.5457   17.8752 C   0  0  0  0  0  0  0  0  0  0  0  0
    6.1721   -8.2186   15.9886 N   0  0  0  0  0  0  0  0  0  0  0  0
   11.1764   -2.6600   19.5604 C   0  0  0  0  0  0  0  0  0  0  0  0
    9.5491   -0.6380   24.1912 C   0  0  0  0  0  0  0  0  0  0  0  0
    7.5337   -6.9256   16.9519 C   0  0  0  0  0  0  0  0  0  0  0  0
    9.6782    0.5671   23.5143 C   0  0  0  0  0  0  0  0  0  0  0  0
    8.4532    0.3482   26.0821 C   0  0  0  0  0  0  0  0  0  0  0  0
   10.4239   -1.7677   22.2230 N   0  0  0  0  0  0  0  0  0  0  0  0
    9.9468   -4.5953   20.1709 C   0  0  0  0  0  0  0  0  0  0  0  0
   10.0366   -3.0590   23.9864 N   0  0  0  0  0  0  0  0  0  0  0  0
    7.1191   -7.3636   15.7739 C   0  0  0  0  0  0  0  0  0  0  0  0
    5.9612   -8.3203   17.2732 N   0  0  0  0  0  0  0  0  0  0  0  0
    8.5296   -5.9814   17.1841 C   0  0  0  0  0  0  0  0  0  0  0  0
    9.1527   -5.2118   16.2116 C   0  0  0  0  0  0  0  0  0  0  0  0
   10.3364   -3.8368   22.9255 O   0  0  0  0  0  0  0  0  0  0  0  0
    9.6947   -4.8407   18.8534 C   0  0  0  0  0  0  0  0  0  0  0  0
    9.1596    1.7042   24.1381 C   0  0  0  0  0  0  0  0  0  0  0  0
   11.0456   -2.9774   18.2694 N   0  0  0  0  0  0  0  0  0  0  0  0
   10.4788   -3.0457   21.8593 C   0  0  0  0  0  0  0  0  0  0  0  0
    8.8693   -5.8099   18.4657 N   0  0  0  0  0  0  0  0  0  0  0  0
    8.9892   -0.7926   25.4573 C   0  0  0  0  0  0  0  0  0  0  0  0
   10.5677   -3.4462   20.5323 C   0  0  0  0  0  0  0  0  0  0  0  0
  1  8  1  0
  1 12  4  0
  1 14  4  0
  2  3  4  0
  2 18  4  0
  3 20  4  0
  3 22  4  0
  4 11  4  0
  4 21  4  0
  5  9  4  0
  5 16  4  0
  6 15  4  0
  6 16  4  0
  7 22  4  0
  7 26  4  0
  8 10  4  0
  8 25  4  0
  9 15  4  0
  9 17  1  0
 10 21  4  0
 11 25  4  0
 12 23  4  0
 13 20  4  0
 13 26  4  0
 14 19  4  0
 17 18  4  0
 17 24  4  0
 19 23  4  0
 20 24  4  0
 23 26  1  0
M  END
$$$$

 Created by Python create_sdf_string function

 26 30  0  0  0  0  0  0  0  0999 V2000
   10.0084   -1.8019   23.4945 C   0  0  0  0  0  0  0  0  0  0  0  0
   10.0005   -4.2520   16.5631 C   0  0  0  0  0  0  0  0  0  0  0  0
   10.2759   -4.0036   17.8845 C   0  0  0  0  0  0  0  0  0  0  0  0
    8.5652    1.5478   25.3778 N   0  0  0  0  0  0  0  0  0  0  0  0
    6.8048   -7.5457   17.8752 C   0  0  0  0  0  0  0  0  0  0  0  0
    6.1721   -8.2186   15.9886 N   0  0  0  0  0  0  0  0  0  0  0  0
   11.1764   -2.6600   19.5604 C   0  0  0  0  0  0  0  0  0  0  0  0
    9.5491   -0.6380   24.1912 C   0  0  0  0  0  0  0  0  0  0  0  0
    7.5337   -6.9256   16.9519 C   0  0  0  0  0  0  0  0  0  0  0  0
    9.6782    0.5671   23.5143 C   0  0  0  0  0  0  0  0  0  0  0  0
    8.4532    0.3482   26.0821 C   0  0  0  0  0  0  0  0  0  0  0  0
   10.4239   -1.7677   22.2230 N   0  0  0  0  0  0  0  0  0  0  0  0
    9.9468   -4.5953   20.1709 C   0  0  0  0  0  0  0  0  0  0  0  0
   10.0366   -3.0590   23.9864 N   0  0  0  0  0  0  0  0  0  0  0  0
    7.1191   -7.3636   15.7739 C   0  0  0  0  0  0  0  0  0  0  0  0
    5.9612   -8.3203   17.2732 N   0  0  0  0  0  0  0  0  0  0  0  0
    8.5296   -5.9814   17.1841 C   0  0  0  0  0  0  0  0  0  0  0  0
    9.1527   -5.2118   16.2116 C   0  0  0  0  0  0  0  0  0  0  0  0
   10.3364   -3.8368   22.9255 O   0  0  0  0  0  0  0  0  0  0  0  0
    9.6947   -4.8407   18.8534 C   0  0  0  0  0  0  0  0  0  0  0  0
    9.1596    1.7042   24.1381 C   0  0  0  0  0  0  0  0  0  0  0  0
   11.0456   -2.9774   18.2694 N   0  0  0  0  0  0  0  0  0  0  0  0
   10.4788   -3.0457   21.8593 C   0  0  0  0  0  0  0  0  0  0  0  0
    8.8693   -5.8099   18.4657 N   0  0  0  0  0  0  0  0  0  0  0  0
    8.9892   -0.7926   25.4573 C   0  0  0  0  0  0  0  0  0  0  0  0
   10.5677   -3.4462   20.5323 C   0  0  0  0  0  0  0  0  0  0  0  0
  1  8  1  0
  1 12  4  0
  1 14  4  0
  2  3  4  0
  2 18  4  0
  3 20  4  0
  3 22  4  0
  4 11  4  0
  4 21  4  0
  5  9  4  0
  5 16  4  0
  6 15  4  0
  6 16  4  0
  7 22  4  0
  7 26  4  0
  8 10  4  0
  8 25  4  0
  9 15  4  0
  9 17  1  0
 10 21  4  0
 11 25  4  0
 12 23  4  0
 13 20  4  0
 13 26  4  0
 14 19  4  0
 17 18  4  0
 17 24  4  0
 19 23  4  0
 20 24  4  0
 23 26  1  0
M  END
$$$$

 Created by Python create_sdf_string function

 26 30  0  0  0  0  0  0  0  0999 V2000
   10.0084   -1.8019   23.4945 C   0  0  0  0  0  0  0  0  0  0  0  0
   10.0005   -4.2520   16.5631 C   0  0  0  0  0  0  0  0  0  0  0  0
   10.2759   -4.0036   17.8845 C   0  0  0  0  0  0  0  0  0  0  0  0
    8.5652    1.5478   25.3778 N   0  0  0  0  0  0  0  0  0  0  0  0
    6.8048   -7.5457   17.8752 C   0  0  0  0  0  0  0  0  0  0  0  0
    6.1721   -8.2186   15.9886 N   0  0  0  0  0  0  0  0  0  0  0  0
   11.1764   -2.6600   19.5604 C   0  0  0  0  0  0  0  0  0  0  0  0
    9.5491   -0.6380   24.1912 C   0  0  0  0  0  0  0  0  0  0  0  0
    7.5337   -6.9256   16.9519 C   0  0  0  0  0  0  0  0  0  0  0  0
    9.6782    0.5671   23.5143 C   0  0  0  0  0  0  0  0  0  0  0  0
    8.4532    0.3482   26.0821 C   0  0  0  0  0  0  0  0  0  0  0  0
   10.4239   -1.7677   22.2230 N   0  0  0  0  0  0  0  0  0  0  0  0
    9.9468   -4.5953   20.1709 C   0  0  0  0  0  0  0  0  0  0  0  0
   10.0366   -3.0590   23.9864 N   0  0  0  0  0  0  0  0  0  0  0  0
    7.1191   -7.3636   15.7739 C   0  0  0  0  0  0  0  0  0  0  0  0
    5.9612   -8.3203   17.2732 N   0  0  0  0  0  0  0  0  0  0  0  0
    8.5296   -5.9814   17.1841 C   0  0  0  0  0  0  0  0  0  0  0  0
    9.1527   -5.2118   16.2116 C   0  0  0  0  0  0  0  0  0  0  0  0
   10.3364   -3.8368   22.9255 O   0  0  0  0  0  0  0  0  0  0  0  0
    9.6947   -4.8407   18.8534 C   0  0  0  0  0  0  0  0  0  0  0  0
    9.1596    1.7042   24.1381 C   0  0  0  0  0  0  0  0  0  0  0  0
   11.0456   -2.9774   18.2694 N   0  0  0  0  0  0  0  0  0  0  0  0
   10.4788   -3.0457   21.8593 C   0  0  0  0  0  0  0  0  0  0  0  0
    8.8693   -5.8099   18.4657 N   0  0  0  0  0  0  0  0  0  0  0  0
    8.9892   -0.7926   25.4573 C   0  0  0  0  0  0  0  0  0  0  0  0
   10.5677   -3.4462   20.5323 C   0  0  0  0  0  0  0  0  0  0  0  0
  1  8  1  0
  1 12  4  0
  1 14  4  0
  2  3  4  0
  2 18  4  0
  3 20  4  0
  3 22  4  0
  4 11  4  0
  4 21  4  0
  5  9  4  0
  5 16  4  0
  6 15  4  0
  6 16  4  0
  7 22  4  0
  7 26  4  0
  8 10  4  0
  8 25  4  0
  9 15  4  0
  9 17  1  0
 10 21  4  0
 11 25  4  0
 12 23  4  0
 13 20  4  0
 13 26  4  0
 14 19  4  0
 17 18  4  0
 17 24  4  0
 19 23  4  0
 20 24  4  0
 23 26  1  0
M  END
$$$$

 Created by Python create_sdf_string function

 26 30  0  0  0  0  0  0  0  0999 V2000
   10.0084   -1.8019   23.4945 C   0  0  0  0  0  0  0  0  0  0  0  0
   10.0005   -4.2520   16.5631 C   0  0  0  0  0  0  0  0  0  0  0  0
   10.2759   -4.0036   17.8845 C   0  0  0  0  0  0  0  0  0  0  0  0
    8.5652    1.5478   25.3778 N   0  0  0  0  0  0  0  0  0  0  0  0
    6.8048   -7.5457   17.8752 C   0  0  0  0  0  0  0  0  0  0  0  0
    6.1721   -8.2186   15.9886 N   0  0  0  0  0  0  0  0  0  0  0  0
   11.1764   -2.6600   19.5604 C   0  0  0  0  0  0  0  0  0  0  0  0
    9.5491   -0.6380   24.1912 C   0  0  0  0  0  0  0  0  0  0  0  0
    7.5337   -6.9256   16.9519 C   0  0  0  0  0  0  0  0  0  0  0  0
    9.6782    0.5671   23.5143 C   0  0  0  0  0  0  0  0  0  0  0  0
    8.4532    0.3482   26.0821 C   0  0  0  0  0  0  0  0  0  0  0  0
   10.4239   -1.7677   22.2230 N   0  0  0  0  0  0  0  0  0  0  0  0
    9.9468   -4.5953   20.1709 C   0  0  0  0  0  0  0  0  0  0  0  0
   10.0366   -3.0590   23.9864 N   0  0  0  0  0  0  0  0  0  0  0  0
    7.1191   -7.3636   15.7739 C   0  0  0  0  0  0  0  0  0  0  0  0
    5.9612   -8.3203   17.2732 N   0  0  0  0  0  0  0  0  0  0  0  0
    8.5296   -5.9814   17.1841 C   0  0  0  0  0  0  0  0  0  0  0  0
    9.1527   -5.2118   16.2116 C   0  0  0  0  0  0  0  0  0  0  0  0
   10.3364   -3.8368   22.9255 O   0  0  0  0  0  0  0  0  0  0  0  0
    9.6947   -4.8407   18.8534 C   0  0  0  0  0  0  0  0  0  0  0  0
    9.1596    1.7042   24.1381 C   0  0  0  0  0  0  0  0  0  0  0  0
   11.0456   -2.9774   18.2694 N   0  0  0  0  0  0  0  0  0  0  0  0
   10.4788   -3.0457   21.8593 C   0  0  0  0  0  0  0  0  0  0  0  0
    8.8693   -5.8099   18.4657 N   0  0  0  0  0  0  0  0  0  0  0  0
    8.9892   -0.7926   25.4573 C   0  0  0  0  0  0  0  0  0  0  0  0
   10.5677   -3.4462   20.5323 C   0  0  0  0  0  0  0  0  0  0  0  0
  1  8  1  0
  1 12  4  0
  1 14  4  0
  2  3  4  0
  2 18  4  0
  3 20  4  0
  3 22  4  0
  4 11  4  0
  4 21  4  0
  5  9  4  0
  5 16  4  0
  6 15  4  0
  6 16  4  0
  7 22  4  0
  7 26  4  0
  8 10  4  0
  8 25  4  0
  9 15  4  0
  9 17  1  0
 10 21  4  0
 11 25  4  0
 12 23  4  0
 13 20  4  0
 13 26  4  0
 14 19  4  0
 17 18  4  0
 17 24  4  0
 19 23  4  0
 20 24  4  0
 23 26  1  0
M  END
$$$$

 Created by Python create_sdf_string function

 26 30  0  0  0  0  0  0  0  0999 V2000
   10.0084   -1.8019   23.4945 C   0  0  0  0  0  0  0  0  0  0  0  0
   10.0005   -4.2520   16.5631 C   0  0  0  0  0  0  0  0  0  0  0  0
   10.2759   -4.0036   17.8845 C   0  0  0  0  0  0  0  0  0  0  0  0
    8.5652    1.5478   25.3778 N   0  0  0  0  0  0  0  0  0  0  0  0
    6.8048   -7.5457   17.8752 C   0  0  0  0  0  0  0  0  0  0  0  0
    6.1721   -8.2186   15.9886 N   0  0  0  0  0  0  0  0  0  0  0  0
   11.1764   -2.6600   19.5604 C   0  0  0  0  0  0  0  0  0  0  0  0
    9.5491   -0.6380   24.1912 C   0  0  0  0  0  0  0  0  0  0  0  0
    7.5337   -6.9256   16.9519 C   0  0  0  0  0  0  0  0  0  0  0  0
    9.6782    0.5671   23.5143 C   0  0  0  0  0  0  0  0  0  0  0  0
    8.4532    0.3482   26.0821 C   0  0  0  0  0  0  0  0  0  0  0  0
   10.4239   -1.7677   22.2230 N   0  0  0  0  0  0  0  0  0  0  0  0
    9.9468   -4.5953   20.1709 C   0  0  0  0  0  0  0  0  0  0  0  0
   10.0366   -3.0590   23.9864 N   0  0  0  0  0  0  0  0  0  0  0  0
    7.1191   -7.3636   15.7739 C   0  0  0  0  0  0  0  0  0  0  0  0
    5.9612   -8.3203   17.2732 N   0  0  0  0  0  0  0  0  0  0  0  0
    8.5296   -5.9814   17.1841 C   0  0  0  0  0  0  0  0  0  0  0  0
    9.1527   -5.2118   16.2116 C   0  0  0  0  0  0  0  0  0  0  0  0
   10.3364   -3.8368   22.9255 O   0  0  0  0  0  0  0  0  0  0  0  0
    9.6947   -4.8407   18.8534 C   0  0  0  0  0  0  0  0  0  0  0  0
    9.1596    1.7042   24.1381 C   0  0  0  0  0  0  0  0  0  0  0  0
   11.0456   -2.9774   18.2694 N   0  0  0  0  0  0  0  0  0  0  0  0
   10.4788   -3.0457   21.8593 C   0  0  0  0  0  0  0  0  0  0  0  0
    8.8693   -5.8099   18.4657 N   0  0  0  0  0  0  0  0  0  0  0  0
    8.9892   -0.7926   25.4573 C   0  0  0  0  0  0  0  0  0  0  0  0
   10.5677   -3.4462   20.5323 C   0  0  0  0  0  0  0  0  0  0  0  0
  1  8  1  0
  1 12  4  0
  1 14  4  0
  2  3  4  0
  2 18  4  0
  3 20  4  0
  3 22  4  0
  4 11  4  0
  4 21  4  0
  5  9  4  0
  5 16  4  0
  6 15  4  0
  6 16  4  0
  7 22  4  0
  7 26  4  0
  8 10  4  0
  8 25  4  0
  9 15  4  0
  9 17  1  0
 10 21  4  0
 11 25  4  0
 12 23  4  0
 13 20  4  0
 13 26  4  0
 14 19  4  0
 17 18  4  0
 17 24  4  0
 19 23  4  0
 20 24  4  0
 23 26  1  0
M  END
$$$$

 Created by Python create_sdf_string function

 26 30  0  0  0  0  0  0  0  0999 V2000
   10.0084   -1.8019   23.4945 C   0  0  0  0  0  0  0  0  0  0  0  0
   10.0005   -4.2520   16.5631 C   0  0  0  0  0  0  0  0  0  0  0  0
   10.2759   -4.0036   17.8845 C   0  0  0  0  0  0  0  0  0  0  0  0
    8.5652    1.5478   25.3778 N   0  0  0  0  0  0  0  0  0  0  0  0
    6.8048   -7.5457   17.8752 C   0  0  0  0  0  0  0  0  0  0  0  0
    6.1721   -8.2186   15.9886 N   0  0  0  0  0  0  0  0  0  0  0  0
   11.1764   -2.6600   19.5604 C   0  0  0  0  0  0  0  0  0  0  0  0
    9.5491   -0.6380   24.1912 C   0  0  0  0  0  0  0  0  0  0  0  0
    7.5337   -6.9256   16.9519 C   0  0  0  0  0  0  0  0  0  0  0  0
    9.6782    0.5671   23.5143 C   0  0  0  0  0  0  0  0  0  0  0  0
    8.4532    0.3482   26.0821 C   0  0  0  0  0  0  0  0  0  0  0  0
   10.4239   -1.7677   22.2230 N   0  0  0  0  0  0  0  0  0  0  0  0
    9.9468   -4.5953   20.1709 C   0  0  0  0  0  0  0  0  0  0  0  0
   10.0366   -3.0590   23.9864 N   0  0  0  0  0  0  0  0  0  0  0  0
    7.1191   -7.3636   15.7739 C   0  0  0  0  0  0  0  0  0  0  0  0
    5.9612   -8.3203   17.2732 N   0  0  0  0  0  0  0  0  0  0  0  0
    8.5296   -5.9814   17.1841 C   0  0  0  0  0  0  0  0  0  0  0  0
    9.1527   -5.2118   16.2116 C   0  0  0  0  0  0  0  0  0  0  0  0
   10.3364   -3.8368   22.9255 O   0  0  0  0  0  0  0  0  0  0  0  0
    9.6947   -4.8407   18.8534 C   0  0  0  0  0  0  0  0  0  0  0  0
    9.1596    1.7042   24.1381 C   0  0  0  0  0  0  0  0  0  0  0  0
   11.0456   -2.9774   18.2694 N   0  0  0  0  0  0  0  0  0  0  0  0
   10.4788   -3.0457   21.8593 C   0  0  0  0  0  0  0  0  0  0  0  0
    8.8693   -5.8099   18.4657 N   0  0  0  0  0  0  0  0  0  0  0  0
    8.9892   -0.7926   25.4573 C   0  0  0  0  0  0  0  0  0  0  0  0
   10.5677   -3.4462   20.5323 C   0  0  0  0  0  0  0  0  0  0  0  0
  1  8  1  0
  1 12  4  0
  1 14  4  0
  2  3  4  0
  2 18  4  0
  3 20  4  0
  3 22  4  0
  4 11  4  0
  4 21  4  0
  5  9  4  0
  5 16  4  0
  6 15  4  0
  6 16  4  0
  7 22  4  0
  7 26  4  0
  8 10  4  0
  8 25  4  0
  9 15  4  0
  9 17  1  0
 10 21  4  0
 11 25  4  0
 12 23  4  0
 13 20  4  0
 13 26  4  0
 14 19  4  0
 17 18  4  0
 17 24  4  0
 19 23  4  0
 20 24  4  0
 23 26  1  0
M  END
$$$$

 Created by Python create_sdf_string function

 26 30  0  0  0  0  0  0  0  0999 V2000
   10.0084   -1.8019   23.4945 C   0  0  0  0  0  0  0  0  0  0  0  0
   10.0005   -4.2520   16.5631 C   0  0  0  0  0  0  0  0  0  0  0  0
   10.2759   -4.0036   17.8845 C   0  0  0  0  0  0  0  0  0  0  0  0
    8.5652    1.5478   25.3778 N   0  0  0  0  0  0  0  0  0  0  0  0
    6.8048   -7.5457   17.8752 C   0  0  0  0  0  0  0  0  0  0  0  0
    6.1721   -8.2186   15.9886 N   0  0  0  0  0  0  0  0  0  0  0  0
   11.1764   -2.6600   19.5604 C   0  0  0  0  0  0  0  0  0  0  0  0
    9.5491   -0.6380   24.1912 C   0  0  0  0  0  0  0  0  0  0  0  0
    7.5337   -6.9256   16.9519 C   0  0  0  0  0  0  0  0  0  0  0  0
    9.6782    0.5671   23.5143 C   0  0  0  0  0  0  0  0  0  0  0  0
    8.4532    0.3482   26.0821 C   0  0  0  0  0  0  0  0  0  0  0  0
   10.4239   -1.7677   22.2230 N   0  0  0  0  0  0  0  0  0  0  0  0
    9.9468   -4.5953   20.1709 C   0  0  0  0  0  0  0  0  0  0  0  0
   10.0366   -3.0590   23.9864 N   0  0  0  0  0  0  0  0  0  0  0  0
    7.1191   -7.3636   15.7739 C   0  0  0  0  0  0  0  0  0  0  0  0
    5.9612   -8.3203   17.2732 N   0  0  0  0  0  0  0  0  0  0  0  0
    8.5296   -5.9814   17.1841 C   0  0  0  0  0  0  0  0  0  0  0  0
    9.1527   -5.2118   16.2116 C   0  0  0  0  0  0  0  0  0  0  0  0
   10.3364   -3.8368   22.9255 O   0  0  0  0  0  0  0  0  0  0  0  0
    9.6947   -4.8407   18.8534 C   0  0  0  0  0  0  0  0  0  0  0  0
    9.1596    1.7042   24.1381 C   0  0  0  0  0  0  0  0  0  0  0  0
   11.0456   -2.9774   18.2694 N   0  0  0  0  0  0  0  0  0  0  0  0
   10.4788   -3.0457   21.8593 C   0  0  0  0  0  0  0  0  0  0  0  0
    8.8693   -5.8099   18.4657 N   0  0  0  0  0  0  0  0  0  0  0  0
    8.9892   -0.7926   25.4573 C   0  0  0  0  0  0  0  0  0  0  0  0
   10.5677   -3.4462   20.5323 C   0  0  0  0  0  0  0  0  0  0  0  0
  1  8  1  0
  1 12  4  0
  1 14  4  0
  2  3  4  0
  2 18  4  0
  3 20  4  0
  3 22  4  0
  4 11  4  0
  4 21  4  0
  5  9  4  0
  5 16  4  0
  6 15  4  0
  6 16  4  0
  7 22  4  0
  7 26  4  0
  8 10  4  0
  8 25  4  0
  9 15  4  0
  9 17  1  0
 10 21  4  0
 11 25  4  0
 12 23  4  0
 13 20  4  0
 13 26  4  0
 14 19  4  0
 17 18  4  0
 17 24  4  0
 19 23  4  0
 20 24  4  0
 23 26  1  0
M  END
$$$$

 Created by Python create_sdf_string function

 26 30  0  0  0  0  0  0  0  0999 V2000
   10.0084   -1.8019   23.4945 C   0  0  0  0  0  0  0  0  0  0  0  0
   10.0005   -4.2520   16.5631 C   0  0  0  0  0  0  0  0  0  0  0  0
   10.2759   -4.0036   17.8845 C   0  0  0  0  0  0  0  0  0  0  0  0
    8.5652    1.5478   25.3778 N   0  0  0  0  0  0  0  0  0  0  0  0
    6.8048   -7.5457   17.8752 C   0  0  0  0  0  0  0  0  0  0  0  0
    6.1721   -8.2186   15.9886 N   0  0  0  0  0  0  0  0  0  0  0  0
   11.1764   -2.6600   19.5604 C   0  0  0  0  0  0  0  0  0  0  0  0
    9.5491   -0.6380   24.1912 C   0  0  0  0  0  0  0  0  0  0  0  0
    7.5337   -6.9256   16.9519 C   0  0  0  0  0  0  0  0  0  0  0  0
    9.6782    0.5671   23.5143 C   0  0  0  0  0  0  0  0  0  0  0  0
    8.4532    0.3482   26.0821 C   0  0  0  0  0  0  0  0  0  0  0  0
   10.4239   -1.7677   22.2230 N   0  0  0  0  0  0  0  0  0  0  0  0
    9.9468   -4.5953   20.1709 C   0  0  0  0  0  0  0  0  0  0  0  0
   10.0366   -3.0590   23.9864 N   0  0  0  0  0  0  0  0  0  0  0  0
    7.1191   -7.3636   15.7739 C   0  0  0  0  0  0  0  0  0  0  0  0
    5.9612   -8.3203   17.2732 N   0  0  0  0  0  0  0  0  0  0  0  0
    8.5296   -5.9814   17.1841 C   0  0  0  0  0  0  0  0  0  0  0  0
    9.1527   -5.2118   16.2116 C   0  0  0  0  0  0  0  0  0  0  0  0
   10.3364   -3.8368   22.9255 O   0  0  0  0  0  0  0  0  0  0  0  0
    9.6947   -4.8407   18.8534 C   0  0  0  0  0  0  0  0  0  0  0  0
    9.1596    1.7042   24.1381 C   0  0  0  0  0  0  0  0  0  0  0  0
   11.0456   -2.9774   18.2694 N   0  0  0  0  0  0  0  0  0  0  0  0
   10.4788   -3.0457   21.8593 C   0  0  0  0  0  0  0  0  0  0  0  0
    8.8693   -5.8099   18.4657 N   0  0  0  0  0  0  0  0  0  0  0  0
    8.9892   -0.7926   25.4573 C   0  0  0  0  0  0  0  0  0  0  0  0
   10.5677   -3.4462   20.5323 C   0  0  0  0  0  0  0  0  0  0  0  0
  1  8  1  0
  1 12  4  0
  1 14  4  0
  2  3  4  0
  2 18  4  0
  3 20  4  0
  3 22  4  0
  4 11  4  0
  4 21  4  0
  5  9  4  0
  5 16  4  0
  6 15  4  0
  6 16  4  0
  7 22  4  0
  7 26  4  0
  8 10  4  0
  8 25  4  0
  9 15  4  0
  9 17  1  0
 10 21  4  0
 11 25  4  0
 12 23  4  0
 13 20  4  0
 13 26  4  0
 14 19  4  0
 17 18  4  0
 17 24  4  0
 19 23  4  0
 20 24  4  0
 23 26  1  0
M  END
$$$$

 Created by Python create_sdf_string function

 26 30  0  0  0  0  0  0  0  0999 V2000
   10.0084   -1.8019   23.4945 C   0  0  0  0  0  0  0  0  0  0  0  0
   10.0005   -4.2520   16.5631 C   0  0  0  0  0  0  0  0  0  0  0  0
   10.2759   -4.0036   17.8845 C   0  0  0  0  0  0  0  0  0  0  0  0
    8.5652    1.5478   25.3778 N   0  0  0  0  0  0  0  0  0  0  0  0
    6.8048   -7.5457   17.8752 C   0  0  0  0  0  0  0  0  0  0  0  0
    6.1721   -8.2186   15.9886 N   0  0  0  0  0  0  0  0  0  0  0  0
   11.1764   -2.6600   19.5604 C   0  0  0  0  0  0  0  0  0  0  0  0
    9.5491   -0.6380   24.1912 C   0  0  0  0  0  0  0  0  0  0  0  0
    7.5337   -6.9256   16.9519 C   0  0  0  0  0  0  0  0  0  0  0  0
    9.6782    0.5671   23.5143 C   0  0  0  0  0  0  0  0  0  0  0  0
    8.4532    0.3482   26.0821 C   0  0  0  0  0  0  0  0  0  0  0  0
   10.4239   -1.7677   22.2230 N   0  0  0  0  0  0  0  0  0  0  0  0
    9.9468   -4.5953   20.1709 C   0  0  0  0  0  0  0  0  0  0  0  0
   10.0366   -3.0590   23.9864 N   0  0  0  0  0  0  0  0  0  0  0  0
    7.1191   -7.3636   15.7739 C   0  0  0  0  0  0  0  0  0  0  0  0
    5.9612   -8.3203   17.2732 N   0  0  0  0  0  0  0  0  0  0  0  0
    8.5296   -5.9814   17.1841 C   0  0  0  0  0  0  0  0  0  0  0  0
    9.1527   -5.2118   16.2116 C   0  0  0  0  0  0  0  0  0  0  0  0
   10.3364   -3.8368   22.9255 O   0  0  0  0  0  0  0  0  0  0  0  0
    9.6947   -4.8407   18.8534 C   0  0  0  0  0  0  0  0  0  0  0  0
    9.1596    1.7042   24.1381 C   0  0  0  0  0  0  0  0  0  0  0  0
   11.0456   -2.9774   18.2694 N   0  0  0  0  0  0  0  0  0  0  0  0
   10.4788   -3.0457   21.8593 C   0  0  0  0  0  0  0  0  0  0  0  0
    8.8693   -5.8099   18.4657 N   0  0  0  0  0  0  0  0  0  0  0  0
    8.9892   -0.7926   25.4573 C   0  0  0  0  0  0  0  0  0  0  0  0
   10.5677   -3.4462   20.5323 C   0  0  0  0  0  0  0  0  0  0  0  0
  1  8  1  0
  1 12  4  0
  1 14  4  0
  2  3  4  0
  2 18  4  0
  3 20  4  0
  3 22  4  0
  4 11  4  0
  4 21  4  0
  5  9  4  0
  5 16  4  0
  6 15  4  0
  6 16  4  0
  7 22  4  0
  7 26  4  0
  8 10  4  0
  8 25  4  0
  9 15  4  0
  9 17  1  0
 10 21  4  0
 11 25  4  0
 12 23  4  0
 13 20  4  0
 13 26  4  0
 14 19  4  0
 17 18  4  0
 17 24  4  0
 19 23  4  0
 20 24  4  0
 23 26  1  0
M  END
$$$$

 Created by Python create_sdf_string function

 26 30  0  0  0  0  0  0  0  0999 V2000
   10.0084   -1.8019   23.4945 C   0  0  0  0  0  0  0  0  0  0  0  0
   10.0005   -4.2520   16.5631 C   0  0  0  0  0  0  0  0  0  0  0  0
   10.2759   -4.0036   17.8845 C   0  0  0  0  0  0  0  0  0  0  0  0
    8.5652    1.5478   25.3778 N   0  0  0  0  0  0  0  0  0  0  0  0
    6.8048   -7.5457   17.8752 C   0  0  0  0  0  0  0  0  0  0  0  0
    6.1721   -8.2186   15.9886 N   0  0  0  0  0  0  0  0  0  0  0  0
   11.1764   -2.6600   19.5604 C   0  0  0  0  0  0  0  0  0  0  0  0
    9.5491   -0.6380   24.1912 C   0  0  0  0  0  0  0  0  0  0  0  0
    7.5337   -6.9256   16.9519 C   0  0  0  0  0  0  0  0  0  0  0  0
    9.6782    0.5671   23.5143 C   0  0  0  0  0  0  0  0  0  0  0  0
    8.4532    0.3482   26.0821 C   0  0  0  0  0  0  0  0  0  0  0  0
   10.4239   -1.7677   22.2230 N   0  0  0  0  0  0  0  0  0  0  0  0
    9.9468   -4.5953   20.1709 C   0  0  0  0  0  0  0  0  0  0  0  0
   10.0366   -3.0590   23.9864 N   0  0  0  0  0  0  0  0  0  0  0  0
    7.1191   -7.3636   15.7739 C   0  0  0  0  0  0  0  0  0  0  0  0
    5.9612   -8.3203   17.2732 N   0  0  0  0  0  0  0  0  0  0  0  0
    8.5296   -5.9814   17.1841 C   0  0  0  0  0  0  0  0  0  0  0  0
    9.1527   -5.2118   16.2116 C   0  0  0  0  0  0  0  0  0  0  0  0
   10.3364   -3.8368   22.9255 O   0  0  0  0  0  0  0  0  0  0  0  0
    9.6947   -4.8407   18.8534 C   0  0  0  0  0  0  0  0  0  0  0  0
    9.1596    1.7042   24.1381 C   0  0  0  0  0  0  0  0  0  0  0  0
   11.0456   -2.9774   18.2694 N   0  0  0  0  0  0  0  0  0  0  0  0
   10.4788   -3.0457   21.8593 C   0  0  0  0  0  0  0  0  0  0  0  0
    8.8693   -5.8099   18.4657 N   0  0  0  0  0  0  0  0  0  0  0  0
    8.9892   -0.7926   25.4573 C   0  0  0  0  0  0  0  0  0  0  0  0
   10.5677   -3.4462   20.5323 C   0  0  0  0  0  0  0  0  0  0  0  0
  1  8  1  0
  1 12  4  0
  1 14  4  0
  2  3  4  0
  2 18  4  0
  3 20  4  0
  3 22  4  0
  4 11  4  0
  4 21  4  0
  5  9  4  0
  5 16  4  0
  6 15  4  0
  6 16  4  0
  7 22  4  0
  7 26  4  0
  8 10  4  0
  8 25  4  0
  9 15  4  0
  9 17  1  0
 10 21  4  0
 11 25  4  0
 12 23  4  0
 13 20  4  0
 13 26  4  0
 14 19  4  0
 17 18  4  0
 17 24  4  0
 19 23  4  0
 20 24  4  0
 23 26  1  0
M  END
$$$$

 Created by Python create_sdf_string function

 26 30  0  0  0  0  0  0  0  0999 V2000
   10.0084   -1.8019   23.4945 C   0  0  0  0  0  0  0  0  0  0  0  0
   10.0005   -4.2520   16.5631 C   0  0  0  0  0  0  0  0  0  0  0  0
   10.2759   -4.0036   17.8845 C   0  0  0  0  0  0  0  0  0  0  0  0
    8.5652    1.5478   25.3778 N   0  0  0  0  0  0  0  0  0  0  0  0
    6.8048   -7.5457   17.8752 C   0  0  0  0  0  0  0  0  0  0  0  0
    6.1721   -8.2186   15.9886 N   0  0  0  0  0  0  0  0  0  0  0  0
   11.1764   -2.6600   19.5604 C   0  0  0  0  0  0  0  0  0  0  0  0
    9.5491   -0.6380   24.1912 C   0  0  0  0  0  0  0  0  0  0  0  0
    7.5337   -6.9256   16.9519 C   0  0  0  0  0  0  0  0  0  0  0  0
    9.6782    0.5671   23.5143 C   0  0  0  0  0  0  0  0  0  0  0  0
    8.4532    0.3482   26.0821 C   0  0  0  0  0  0  0  0  0  0  0  0
   10.4239   -1.7677   22.2230 N   0  0  0  0  0  0  0  0  0  0  0  0
    9.9468   -4.5953   20.1709 C   0  0  0  0  0  0  0  0  0  0  0  0
   10.0366   -3.0590   23.9864 N   0  0  0  0  0  0  0  0  0  0  0  0
    7.1191   -7.3636   15.7739 C   0  0  0  0  0  0  0  0  0  0  0  0
    5.9612   -8.3203   17.2732 N   0  0  0  0  0  0  0  0  0  0  0  0
    8.5296   -5.9814   17.1841 C   0  0  0  0  0  0  0  0  0  0  0  0
    9.1527   -5.2118   16.2116 C   0  0  0  0  0  0  0  0  0  0  0  0
   10.3364   -3.8368   22.9255 O   0  0  0  0  0  0  0  0  0  0  0  0
    9.6947   -4.8407   18.8534 C   0  0  0  0  0  0  0  0  0  0  0  0
    9.1596    1.7042   24.1381 C   0  0  0  0  0  0  0  0  0  0  0  0
   11.0456   -2.9774   18.2694 N   0  0  0  0  0  0  0  0  0  0  0  0
   10.4788   -3.0457   21.8593 C   0  0  0  0  0  0  0  0  0  0  0  0
    8.8693   -5.8099   18.4657 N   0  0  0  0  0  0  0  0  0  0  0  0
    8.9892   -0.7926   25.4573 C   0  0  0  0  0  0  0  0  0  0  0  0
   10.5677   -3.4462   20.5323 C   0  0  0  0  0  0  0  0  0  0  0  0
  1  8  1  0
  1 12  4  0
  1 14  4  0
  2  3  4  0
  2 18  4  0
  3 20  4  0
  3 22  4  0
  4 11  4  0
  4 21  4  0
  5  9  4  0
  5 16  4  0
  6 15  4  0
  6 16  4  0
  7 22  4  0
  7 26  4  0
  8 10  4  0
  8 25  4  0
  9 15  4  0
  9 17  1  0
 10 21  4  0
 11 25  4  0
 12 23  4  0
 13 20  4  0
 13 26  4  0
 14 19  4  0
 17 18  4  0
 17 24  4  0
 19 23  4  0
 20 24  4  0
 23 26  1  0
M  END
$$$$

 Created by Python create_sdf_string function

 26 30  0  0  0  0  0  0  0  0999 V2000
   10.0084   -1.8019   23.4945 C   0  0  0  0  0  0  0  0  0  0  0  0
   10.0005   -4.2520   16.5631 C   0  0  0  0  0  0  0  0  0  0  0  0
   10.2759   -4.0036   17.8845 C   0  0  0  0  0  0  0  0  0  0  0  0
    8.5652    1.5478   25.3778 N   0  0  0  0  0  0  0  0  0  0  0  0
    6.8048   -7.5457   17.8752 C   0  0  0  0  0  0  0  0  0  0  0  0
    6.1721   -8.2186   15.9886 N   0  0  0  0  0  0  0  0  0  0  0  0
   11.1764   -2.6600   19.5604 C   0  0  0  0  0  0  0  0  0  0  0  0
    9.5491   -0.6380   24.1912 C   0  0  0  0  0  0  0  0  0  0  0  0
    7.5337   -6.9256   16.9519 C   0  0  0  0  0  0  0  0  0  0  0  0
    9.6782    0.5671   23.5143 C   0  0  0  0  0  0  0  0  0  0  0  0
    8.4532    0.3482   26.0821 C   0  0  0  0  0  0  0  0  0  0  0  0
   10.4239   -1.7677   22.2230 N   0  0  0  0  0  0  0  0  0  0  0  0
    9.9468   -4.5953   20.1709 C   0  0  0  0  0  0  0  0  0  0  0  0
   10.0366   -3.0590   23.9864 N   0  0  0  0  0  0  0  0  0  0  0  0
    7.1191   -7.3636   15.7739 C   0  0  0  0  0  0  0  0  0  0  0  0
    5.9612   -8.3203   17.2732 N   0  0  0  0  0  0  0  0  0  0  0  0
    8.5296   -5.9814   17.1841 C   0  0  0  0  0  0  0  0  0  0  0  0
    9.1527   -5.2118   16.2116 C   0  0  0  0  0  0  0  0  0  0  0  0
   10.3364   -3.8368   22.9255 O   0  0  0  0  0  0  0  0  0  0  0  0
    9.6947   -4.8407   18.8534 C   0  0  0  0  0  0  0  0  0  0  0  0
    9.1596    1.7042   24.1381 C   0  0  0  0  0  0  0  0  0  0  0  0
   11.0456   -2.9774   18.2694 N   0  0  0  0  0  0  0  0  0  0  0  0
   10.4788   -3.0457   21.8593 C   0  0  0  0  0  0  0  0  0  0  0  0
    8.8693   -5.8099   18.4657 N   0  0  0  0  0  0  0  0  0  0  0  0
    8.9892   -0.7926   25.4573 C   0  0  0  0  0  0  0  0  0  0  0  0
   10.5677   -3.4462   20.5323 C   0  0  0  0  0  0  0  0  0  0  0  0
  1  8  1  0
  1 12  4  0
  1 14  4  0
  2  3  4  0
  2 18  4  0
  3 20  4  0
  3 22  4  0
  4 11  4  0
  4 21  4  0
  5  9  4  0
  5 16  4  0
  6 15  4  0
  6 16  4  0
  7 22  4  0
  7 26  4  0
  8 10  4  0
  8 25  4  0
  9 15  4  0
  9 17  1  0
 10 21  4  0
 11 25  4  0
 12 23  4  0
 13 20  4  0
 13 26  4  0
 14 19  4  0
 17 18  4  0
 17 24  4  0
 19 23  4  0
 20 24  4  0
 23 26  1  0
M  END
$$$$

 Created by Python create_sdf_string function

 26 30  0  0  0  0  0  0  0  0999 V2000
   10.0084   -1.8019   23.4945 C   0  0  0  0  0  0  0  0  0  0  0  0
   10.0005   -4.2520   16.5631 C   0  0  0  0  0  0  0  0  0  0  0  0
   10.2759   -4.0036   17.8845 C   0  0  0  0  0  0  0  0  0  0  0  0
    8.5652    1.5478   25.3778 N   0  0  0  0  0  0  0  0  0  0  0  0
    6.8048   -7.5457   17.8752 C   0  0  0  0  0  0  0  0  0  0  0  0
    6.1721   -8.2186   15.9886 N   0  0  0  0  0  0  0  0  0  0  0  0
   11.1764   -2.6600   19.5604 C   0  0  0  0  0  0  0  0  0  0  0  0
    9.5491   -0.6380   24.1912 C   0  0  0  0  0  0  0  0  0  0  0  0
    7.5337   -6.9256   16.9519 C   0  0  0  0  0  0  0  0  0  0  0  0
    9.6782    0.5671   23.5143 C   0  0  0  0  0  0  0  0  0  0  0  0
    8.4532    0.3482   26.0821 C   0  0  0  0  0  0  0  0  0  0  0  0
   10.4239   -1.7677   22.2230 N   0  0  0  0  0  0  0  0  0  0  0  0
    9.9468   -4.5953   20.1709 C   0  0  0  0  0  0  0  0  0  0  0  0
   10.0366   -3.0590   23.9864 N   0  0  0  0  0  0  0  0  0  0  0  0
    7.1191   -7.3636   15.7739 C   0  0  0  0  0  0  0  0  0  0  0  0
    5.9612   -8.3203   17.2732 N   0  0  0  0  0  0  0  0  0  0  0  0
    8.5296   -5.9814   17.1841 C   0  0  0  0  0  0  0  0  0  0  0  0
    9.1527   -5.2118   16.2116 C   0  0  0  0  0  0  0  0  0  0  0  0
   10.3364   -3.8368   22.9255 O   0  0  0  0  0  0  0  0  0  0  0  0
    9.6947   -4.8407   18.8534 C   0  0  0  0  0  0  0  0  0  0  0  0
    9.1596    1.7042   24.1381 C   0  0  0  0  0  0  0  0  0  0  0  0
   11.0456   -2.9774   18.2694 N   0  0  0  0  0  0  0  0  0  0  0  0
   10.4788   -3.0457   21.8593 C   0  0  0  0  0  0  0  0  0  0  0  0
    8.8693   -5.8099   18.4657 N   0  0  0  0  0  0  0  0  0  0  0  0
    8.9892   -0.7926   25.4573 C   0  0  0  0  0  0  0  0  0  0  0  0
   10.5677   -3.4462   20.5323 C   0  0  0  0  0  0  0  0  0  0  0  0
  1  8  1  0
  1 12  4  0
  1 14  4  0
  2  3  4  0
  2 18  4  0
  3 20  4  0
  3 22  4  0
  4 11  4  0
  4 21  4  0
  5  9  4  0
  5 16  4  0
  6 15  4  0
  6 16  4  0
  7 22  4  0
  7 26  4  0
  8 10  4  0
  8 25  4  0
  9 15  4  0
  9 17  1  0
 10 21  4  0
 11 25  4  0
 12 23  4  0
 13 20  4  0
 13 26  4  0
 14 19  4  0
 17 18  4  0
 17 24  4  0
 19 23  4  0
 20 24  4  0
 23 26  1  0
M  END
$$$$

 Created by Python create_sdf_string function

 26 30  0  0  0  0  0  0  0  0999 V2000
   10.0084   -1.8019   23.4945 C   0  0  0  0  0  0  0  0  0  0  0  0
   10.0005   -4.2520   16.5631 C   0  0  0  0  0  0  0  0  0  0  0  0
   10.2759   -4.0036   17.8845 C   0  0  0  0  0  0  0  0  0  0  0  0
    8.5652    1.5478   25.3778 N   0  0  0  0  0  0  0  0  0  0  0  0
    6.8048   -7.5457   17.8752 C   0  0  0  0  0  0  0  0  0  0  0  0
    6.1721   -8.2186   15.9886 N   0  0  0  0  0  0  0  0  0  0  0  0
   11.1764   -2.6600   19.5604 C   0  0  0  0  0  0  0  0  0  0  0  0
    9.5491   -0.6380   24.1912 C   0  0  0  0  0  0  0  0  0  0  0  0
    7.5337   -6.9256   16.9519 C   0  0  0  0  0  0  0  0  0  0  0  0
    9.6782    0.5671   23.5143 C   0  0  0  0  0  0  0  0  0  0  0  0
    8.4532    0.3482   26.0821 C   0  0  0  0  0  0  0  0  0  0  0  0
   10.4239   -1.7677   22.2230 N   0  0  0  0  0  0  0  0  0  0  0  0
    9.9468   -4.5953   20.1709 C   0  0  0  0  0  0  0  0  0  0  0  0
   10.0366   -3.0590   23.9864 N   0  0  0  0  0  0  0  0  0  0  0  0
    7.1191   -7.3636   15.7739 C   0  0  0  0  0  0  0  0  0  0  0  0
    5.9612   -8.3203   17.2732 N   0  0  0  0  0  0  0  0  0  0  0  0
    8.5296   -5.9814   17.1841 C   0  0  0  0  0  0  0  0  0  0  0  0
    9.1527   -5.2118   16.2116 C   0  0  0  0  0  0  0  0  0  0  0  0
   10.3364   -3.8368   22.9255 O   0  0  0  0  0  0  0  0  0  0  0  0
    9.6947   -4.8407   18.8534 C   0  0  0  0  0  0  0  0  0  0  0  0
    9.1596    1.7042   24.1381 C   0  0  0  0  0  0  0  0  0  0  0  0
   11.0456   -2.9774   18.2694 N   0  0  0  0  0  0  0  0  0  0  0  0
   10.4788   -3.0457   21.8593 C   0  0  0  0  0  0  0  0  0  0  0  0
    8.8693   -5.8099   18.4657 N   0  0  0  0  0  0  0  0  0  0  0  0
    8.9892   -0.7926   25.4573 C   0  0  0  0  0  0  0  0  0  0  0  0
   10.5677   -3.4462   20.5323 C   0  0  0  0  0  0  0  0  0  0  0  0
  1  8  1  0
  1 12  4  0
  1 14  4  0
  2  3  4  0
  2 18  4  0
  3 20  4  0
  3 22  4  0
  4 11  4  0
  4 21  4  0
  5  9  4  0
  5 16  4  0
  6 15  4  0
  6 16  4  0
  7 22  4  0
  7 26  4  0
  8 10  4  0
  8 25  4  0
  9 15  4  0
  9 17  1  0
 10 21  4  0
 11 25  4  0
 12 23  4  0
 13 20  4  0
 13 26  4  0
 14 19  4  0
 17 18  4  0
 17 24  4  0
 19 23  4  0
 20 24  4  0
 23 26  1  0
M  END
$$$$

 Created by Python create_sdf_string function

 26 30  0  0  0  0  0  0  0  0999 V2000
   10.0084   -1.8019   23.4945 C   0  0  0  0  0  0  0  0  0  0  0  0
   10.0005   -4.2520   16.5631 C   0  0  0  0  0  0  0  0  0  0  0  0
   10.2759   -4.0036   17.8845 C   0  0  0  0  0  0  0  0  0  0  0  0
    8.5652    1.5478   25.3778 N   0  0  0  0  0  0  0  0  0  0  0  0
    6.8048   -7.5457   17.8752 C   0  0  0  0  0  0  0  0  0  0  0  0
    6.1721   -8.2186   15.9886 N   0  0  0  0  0  0  0  0  0  0  0  0
   11.1764   -2.6600   19.5604 C   0  0  0  0  0  0  0  0  0  0  0  0
    9.5491   -0.6380   24.1912 C   0  0  0  0  0  0  0  0  0  0  0  0
    7.5337   -6.9256   16.9519 C   0  0  0  0  0  0  0  0  0  0  0  0
    9.6782    0.5671   23.5143 C   0  0  0  0  0  0  0  0  0  0  0  0
    8.4532    0.3482   26.0821 C   0  0  0  0  0  0  0  0  0  0  0  0
   10.4239   -1.7677   22.2230 N   0  0  0  0  0  0  0  0  0  0  0  0
    9.9468   -4.5953   20.1709 C   0  0  0  0  0  0  0  0  0  0  0  0
   10.0366   -3.0590   23.9864 N   0  0  0  0  0  0  0  0  0  0  0  0
    7.1191   -7.3636   15.7739 C   0  0  0  0  0  0  0  0  0  0  0  0
    5.9612   -8.3203   17.2732 N   0  0  0  0  0  0  0  0  0  0  0  0
    8.5296   -5.9814   17.1841 C   0  0  0  0  0  0  0  0  0  0  0  0
    9.1527   -5.2118   16.2116 C   0  0  0  0  0  0  0  0  0  0  0  0
   10.3364   -3.8368   22.9255 O   0  0  0  0  0  0  0  0  0  0  0  0
    9.6947   -4.8407   18.8534 C   0  0  0  0  0  0  0  0  0  0  0  0
    9.1596    1.7042   24.1381 C   0  0  0  0  0  0  0  0  0  0  0  0
   11.0456   -2.9774   18.2694 N   0  0  0  0  0  0  0  0  0  0  0  0
   10.4788   -3.0457   21.8593 C   0  0  0  0  0  0  0  0  0  0  0  0
    8.8693   -5.8099   18.4657 N   0  0  0  0  0  0  0  0  0  0  0  0
    8.9892   -0.7926   25.4573 C   0  0  0  0  0  0  0  0  0  0  0  0
   10.5677   -3.4462   20.5323 C   0  0  0  0  0  0  0  0  0  0  0  0
  1  8  1  0
  1 12  4  0
  1 14  4  0
  2  3  4  0
  2 18  4  0
  3 20  4  0
  3 22  4  0
  4 11  4  0
  4 21  4  0
  5  9  4  0
  5 16  4  0
  6 15  4  0
  6 16  4  0
  7 22  4  0
  7 26  4  0
  8 10  4  0
  8 25  4  0
  9 15  4  0
  9 17  1  0
 10 21  4  0
 11 25  4  0
 12 23  4  0
 13 20  4  0
 13 26  4  0
 14 19  4  0
 17 18  4  0
 17 24  4  0
 19 23  4  0
 20 24  4  0
 23 26  1  0
M  END
$$$$

 Created by Python create_sdf_string function

 26 30  0  0  0  0  0  0  0  0999 V2000
   10.0084   -1.8019   23.4945 C   0  0  0  0  0  0  0  0  0  0  0  0
   10.0005   -4.2520   16.5631 C   0  0  0  0  0  0  0  0  0  0  0  0
   10.2759   -4.0036   17.8845 C   0  0  0  0  0  0  0  0  0  0  0  0
    8.5652    1.5478   25.3778 N   0  0  0  0  0  0  0  0  0  0  0  0
    6.8048   -7.5457   17.8752 C   0  0  0  0  0  0  0  0  0  0  0  0
    6.1721   -8.2186   15.9886 N   0  0  0  0  0  0  0  0  0  0  0  0
   11.1764   -2.6600   19.5604 C   0  0  0  0  0  0  0  0  0  0  0  0
    9.5491   -0.6380   24.1912 C   0  0  0  0  0  0  0  0  0  0  0  0
    7.5337   -6.9256   16.9519 C   0  0  0  0  0  0  0  0  0  0  0  0
    9.6782    0.5671   23.5143 C   0  0  0  0  0  0  0  0  0  0  0  0
    8.4532    0.3482   26.0821 C   0  0  0  0  0  0  0  0  0  0  0  0
   10.4239   -1.7677   22.2230 N   0  0  0  0  0  0  0  0  0  0  0  0
    9.9468   -4.5953   20.1709 C   0  0  0  0  0  0  0  0  0  0  0  0
   10.0366   -3.0590   23.9864 N   0  0  0  0  0  0  0  0  0  0  0  0
    7.1191   -7.3636   15.7739 C   0  0  0  0  0  0  0  0  0  0  0  0
    5.9612   -8.3203   17.2732 N   0  0  0  0  0  0  0  0  0  0  0  0
    8.5296   -5.9814   17.1841 C   0  0  0  0  0  0  0  0  0  0  0  0
    9.1527   -5.2118   16.2116 C   0  0  0  0  0  0  0  0  0  0  0  0
   10.3364   -3.8368   22.9255 O   0  0  0  0  0  0  0  0  0  0  0  0
    9.6947   -4.8407   18.8534 C   0  0  0  0  0  0  0  0  0  0  0  0
    9.1596    1.7042   24.1381 C   0  0  0  0  0  0  0  0  0  0  0  0
   11.0456   -2.9774   18.2694 N   0  0  0  0  0  0  0  0  0  0  0  0
   10.4788   -3.0457   21.8593 C   0  0  0  0  0  0  0  0  0  0  0  0
    8.8693   -5.8099   18.4657 N   0  0  0  0  0  0  0  0  0  0  0  0
    8.9892   -0.7926   25.4573 C   0  0  0  0  0  0  0  0  0  0  0  0
   10.5677   -3.4462   20.5323 C   0  0  0  0  0  0  0  0  0  0  0  0
  1  8  1  0
  1 12  4  0
  1 14  4  0
  2  3  4  0
  2 18  4  0
  3 20  4  0
  3 22  4  0
  4 11  4  0
  4 21  4  0
  5  9  4  0
  5 16  4  0
  6 15  4  0
  6 16  4  0
  7 22  4  0
  7 26  4  0
  8 10  4  0
  8 25  4  0
  9 15  4  0
  9 17  1  0
 10 21  4  0
 11 25  4  0
 12 23  4  0
 13 20  4  0
 13 26  4  0
 14 19  4  0
 17 18  4  0
 17 24  4  0
 19 23  4  0
 20 24  4  0
 23 26  1  0
M  END
$$$$

 Created by Python create_sdf_string function

 26 30  0  0  0  0  0  0  0  0999 V2000
   10.0084   -1.8019   23.4945 C   0  0  0  0  0  0  0  0  0  0  0  0
   10.0005   -4.2520   16.5631 C   0  0  0  0  0  0  0  0  0  0  0  0
   10.2759   -4.0036   17.8845 C   0  0  0  0  0  0  0  0  0  0  0  0
    8.5652    1.5478   25.3778 N   0  0  0  0  0  0  0  0  0  0  0  0
    6.8048   -7.5457   17.8752 C   0  0  0  0  0  0  0  0  0  0  0  0
    6.1721   -8.2186   15.9886 N   0  0  0  0  0  0  0  0  0  0  0  0
   11.1764   -2.6600   19.5604 C   0  0  0  0  0  0  0  0  0  0  0  0
    9.5491   -0.6380   24.1912 C   0  0  0  0  0  0  0  0  0  0  0  0
    7.5337   -6.9256   16.9519 C   0  0  0  0  0  0  0  0  0  0  0  0
    9.6782    0.5671   23.5143 C   0  0  0  0  0  0  0  0  0  0  0  0
    8.4532    0.3482   26.0821 C   0  0  0  0  0  0  0  0  0  0  0  0
   10.4239   -1.7677   22.2230 N   0  0  0  0  0  0  0  0  0  0  0  0
    9.9468   -4.5953   20.1709 C   0  0  0  0  0  0  0  0  0  0  0  0
   10.0366   -3.0590   23.9864 N   0  0  0  0  0  0  0  0  0  0  0  0
    7.1191   -7.3636   15.7739 C   0  0  0  0  0  0  0  0  0  0  0  0
    5.9612   -8.3203   17.2732 N   0  0  0  0  0  0  0  0  0  0  0  0
    8.5296   -5.9814   17.1841 C   0  0  0  0  0  0  0  0  0  0  0  0
    9.1527   -5.2118   16.2116 C   0  0  0  0  0  0  0  0  0  0  0  0
   10.3364   -3.8368   22.9255 O   0  0  0  0  0  0  0  0  0  0  0  0
    9.6947   -4.8407   18.8534 C   0  0  0  0  0  0  0  0  0  0  0  0
    9.1596    1.7042   24.1381 C   0  0  0  0  0  0  0  0  0  0  0  0
   11.0456   -2.9774   18.2694 N   0  0  0  0  0  0  0  0  0  0  0  0
   10.4788   -3.0457   21.8593 C   0  0  0  0  0  0  0  0  0  0  0  0
    8.8693   -5.8099   18.4657 N   0  0  0  0  0  0  0  0  0  0  0  0
    8.9892   -0.7926   25.4573 C   0  0  0  0  0  0  0  0  0  0  0  0
   10.5677   -3.4462   20.5323 C   0  0  0  0  0  0  0  0  0  0  0  0
  1  8  1  0
  1 12  4  0
  1 14  4  0
  2  3  4  0
  2 18  4  0
  3 20  4  0
  3 22  4  0
  4 11  4  0
  4 21  4  0
  5  9  4  0
  5 16  4  0
  6 15  4  0
  6 16  4  0
  7 22  4  0
  7 26  4  0
  8 10  4  0
  8 25  4  0
  9 15  4  0
  9 17  1  0
 10 21  4  0
 11 25  4  0
 12 23  4  0
 13 20  4  0
 13 26  4  0
 14 19  4  0
 17 18  4  0
 17 24  4  0
 19 23  4  0
 20 24  4  0
 23 26  1  0
M  END
$$$$

 Created by Python create_sdf_string function

 26 30  0  0  0  0  0  0  0  0999 V2000
   10.0084   -1.8019   23.4945 C   0  0  0  0  0  0  0  0  0  0  0  0
   10.0005   -4.2520   16.5631 C   0  0  0  0  0  0  0  0  0  0  0  0
   10.2759   -4.0036   17.8845 C   0  0  0  0  0  0  0  0  0  0  0  0
    8.5652    1.5478   25.3778 N   0  0  0  0  0  0  0  0  0  0  0  0
    6.8048   -7.5457   17.8752 C   0  0  0  0  0  0  0  0  0  0  0  0
    6.1721   -8.2186   15.9886 N   0  0  0  0  0  0  0  0  0  0  0  0
   11.1764   -2.6600   19.5604 C   0  0  0  0  0  0  0  0  0  0  0  0
    9.5491   -0.6380   24.1912 C   0  0  0  0  0  0  0  0  0  0  0  0
    7.5337   -6.9256   16.9519 C   0  0  0  0  0  0  0  0  0  0  0  0
    9.6782    0.5671   23.5143 C   0  0  0  0  0  0  0  0  0  0  0  0
    8.4532    0.3482   26.0821 C   0  0  0  0  0  0  0  0  0  0  0  0
   10.4239   -1.7677   22.2230 N   0  0  0  0  0  0  0  0  0  0  0  0
    9.9468   -4.5953   20.1709 C   0  0  0  0  0  0  0  0  0  0  0  0
   10.0366   -3.0590   23.9864 N   0  0  0  0  0  0  0  0  0  0  0  0
    7.1191   -7.3636   15.7739 C   0  0  0  0  0  0  0  0  0  0  0  0
    5.9612   -8.3203   17.2732 N   0  0  0  0  0  0  0  0  0  0  0  0
    8.5296   -5.9814   17.1841 C   0  0  0  0  0  0  0  0  0  0  0  0
    9.1527   -5.2118   16.2116 C   0  0  0  0  0  0  0  0  0  0  0  0
   10.3364   -3.8368   22.9255 O   0  0  0  0  0  0  0  0  0  0  0  0
    9.6947   -4.8407   18.8534 C   0  0  0  0  0  0  0  0  0  0  0  0
    9.1596    1.7042   24.1381 C   0  0  0  0  0  0  0  0  0  0  0  0
   11.0456   -2.9774   18.2694 N   0  0  0  0  0  0  0  0  0  0  0  0
   10.4788   -3.0457   21.8593 C   0  0  0  0  0  0  0  0  0  0  0  0
    8.8693   -5.8099   18.4657 N   0  0  0  0  0  0  0  0  0  0  0  0
    8.9892   -0.7926   25.4573 C   0  0  0  0  0  0  0  0  0  0  0  0
   10.5677   -3.4462   20.5323 C   0  0  0  0  0  0  0  0  0  0  0  0
  1  8  1  0
  1 12  4  0
  1 14  4  0
  2  3  4  0
  2 18  4  0
  3 20  4  0
  3 22  4  0
  4 11  4  0
  4 21  4  0
  5  9  4  0
  5 16  4  0
  6 15  4  0
  6 16  4  0
  7 22  4  0
  7 26  4  0
  8 10  4  0
  8 25  4  0
  9 15  4  0
  9 17  1  0
 10 21  4  0
 11 25  4  0
 12 23  4  0
 13 20  4  0
 13 26  4  0
 14 19  4  0
 17 18  4  0
 17 24  4  0
 19 23  4  0
 20 24  4  0
 23 26  1  0
M  END
$$$$

 Created by Python create_sdf_string function

 26 30  0  0  0  0  0  0  0  0999 V2000
   10.0084   -1.8019   23.4945 C   0  0  0  0  0  0  0  0  0  0  0  0
   10.0005   -4.2520   16.5631 C   0  0  0  0  0  0  0  0  0  0  0  0
   10.2759   -4.0036   17.8845 C   0  0  0  0  0  0  0  0  0  0  0  0
    8.5652    1.5478   25.3778 N   0  0  0  0  0  0  0  0  0  0  0  0
    6.8048   -7.5457   17.8752 C   0  0  0  0  0  0  0  0  0  0  0  0
    6.1721   -8.2186   15.9886 N   0  0  0  0  0  0  0  0  0  0  0  0
   11.1764   -2.6600   19.5604 C   0  0  0  0  0  0  0  0  0  0  0  0
    9.5491   -0.6380   24.1912 C   0  0  0  0  0  0  0  0  0  0  0  0
    7.5337   -6.9256   16.9519 C   0  0  0  0  0  0  0  0  0  0  0  0
    9.6782    0.5671   23.5143 C   0  0  0  0  0  0  0  0  0  0  0  0
    8.4532    0.3482   26.0821 C   0  0  0  0  0  0  0  0  0  0  0  0
   10.4239   -1.7677   22.2230 N   0  0  0  0  0  0  0  0  0  0  0  0
    9.9468   -4.5953   20.1709 C   0  0  0  0  0  0  0  0  0  0  0  0
   10.0366   -3.0590   23.9864 N   0  0  0  0  0  0  0  0  0  0  0  0
    7.1191   -7.3636   15.7739 C   0  0  0  0  0  0  0  0  0  0  0  0
    5.9612   -8.3203   17.2732 N   0  0  0  0  0  0  0  0  0  0  0  0
    8.5296   -5.9814   17.1841 C   0  0  0  0  0  0  0  0  0  0  0  0
    9.1527   -5.2118   16.2116 C   0  0  0  0  0  0  0  0  0  0  0  0
   10.3364   -3.8368   22.9255 O   0  0  0  0  0  0  0  0  0  0  0  0
    9.6947   -4.8407   18.8534 C   0  0  0  0  0  0  0  0  0  0  0  0
    9.1596    1.7042   24.1381 C   0  0  0  0  0  0  0  0  0  0  0  0
   11.0456   -2.9774   18.2694 N   0  0  0  0  0  0  0  0  0  0  0  0
   10.4788   -3.0457   21.8593 C   0  0  0  0  0  0  0  0  0  0  0  0
    8.8693   -5.8099   18.4657 N   0  0  0  0  0  0  0  0  0  0  0  0
    8.9892   -0.7926   25.4573 C   0  0  0  0  0  0  0  0  0  0  0  0
   10.5677   -3.4462   20.5323 C   0  0  0  0  0  0  0  0  0  0  0  0
  1  8  1  0
  1 12  4  0
  1 14  4  0
  2  3  4  0
  2 18  4  0
  3 20  4  0
  3 22  4  0
  4 11  4  0
  4 21  4  0
  5  9  4  0
  5 16  4  0
  6 15  4  0
  6 16  4  0
  7 22  4  0
  7 26  4  0
  8 10  4  0
  8 25  4  0
  9 15  4  0
  9 17  1  0
 10 21  4  0
 11 25  4  0
 12 23  4  0
 13 20  4  0
 13 26  4  0
 14 19  4  0
 17 18  4  0
 17 24  4  0
 19 23  4  0
 20 24  4  0
 23 26  1  0
M  END
$$$$

 Created by Python create_sdf_string function

 26 30  0  0  0  0  0  0  0  0999 V2000
   10.0084   -1.8019   23.4945 C   0  0  0  0  0  0  0  0  0  0  0  0
   10.0005   -4.2520   16.5631 C   0  0  0  0  0  0  0  0  0  0  0  0
   10.2759   -4.0036   17.8845 C   0  0  0  0  0  0  0  0  0  0  0  0
    8.5652    1.5478   25.3778 N   0  0  0  0  0  0  0  0  0  0  0  0
    6.8048   -7.5457   17.8752 C   0  0  0  0  0  0  0  0  0  0  0  0
    6.1721   -8.2186   15.9886 N   0  0  0  0  0  0  0  0  0  0  0  0
   11.1764   -2.6600   19.5604 C   0  0  0  0  0  0  0  0  0  0  0  0
    9.5491   -0.6380   24.1912 C   0  0  0  0  0  0  0  0  0  0  0  0
    7.5337   -6.9256   16.9519 C   0  0  0  0  0  0  0  0  0  0  0  0
    9.6782    0.5671   23.5143 C   0  0  0  0  0  0  0  0  0  0  0  0
    8.4532    0.3482   26.0821 C   0  0  0  0  0  0  0  0  0  0  0  0
   10.4239   -1.7677   22.2230 N   0  0  0  0  0  0  0  0  0  0  0  0
    9.9468   -4.5953   20.1709 C   0  0  0  0  0  0  0  0  0  0  0  0
   10.0366   -3.0590   23.9864 N   0  0  0  0  0  0  0  0  0  0  0  0
    7.1191   -7.3636   15.7739 C   0  0  0  0  0  0  0  0  0  0  0  0
    5.9612   -8.3203   17.2732 N   0  0  0  0  0  0  0  0  0  0  0  0
    8.5296   -5.9814   17.1841 C   0  0  0  0  0  0  0  0  0  0  0  0
    9.1527   -5.2118   16.2116 C   0  0  0  0  0  0  0  0  0  0  0  0
   10.3364   -3.8368   22.9255 O   0  0  0  0  0  0  0  0  0  0  0  0
    9.6947   -4.8407   18.8534 C   0  0  0  0  0  0  0  0  0  0  0  0
    9.1596    1.7042   24.1381 C   0  0  0  0  0  0  0  0  0  0  0  0
   11.0456   -2.9774   18.2694 N   0  0  0  0  0  0  0  0  0  0  0  0
   10.4788   -3.0457   21.8593 C   0  0  0  0  0  0  0  0  0  0  0  0
    8.8693   -5.8099   18.4657 N   0  0  0  0  0  0  0  0  0  0  0  0
    8.9892   -0.7926   25.4573 C   0  0  0  0  0  0  0  0  0  0  0  0
   10.5677   -3.4462   20.5323 C   0  0  0  0  0  0  0  0  0  0  0  0
  1  8  1  0
  1 12  4  0
  1 14  4  0
  2  3  4  0
  2 18  4  0
  3 20  4  0
  3 22  4  0
  4 11  4  0
  4 21  4  0
  5  9  4  0
  5 16  4  0
  6 15  4  0
  6 16  4  0
  7 22  4  0
  7 26  4  0
  8 10  4  0
  8 25  4  0
  9 15  4  0
  9 17  1  0
 10 21  4  0
 11 25  4  0
 12 23  4  0
 13 20  4  0
 13 26  4  0
 14 19  4  0
 17 18  4  0
 17 24  4  0
 19 23  4  0
 20 24  4  0
 23 26  1  0
M  END
$$$$

 Created by Python create_sdf_string function

 26 30  0  0  0  0  0  0  0  0999 V2000
   10.0084   -1.8019   23.4945 C   0  0  0  0  0  0  0  0  0  0  0  0
   10.0005   -4.2520   16.5631 C   0  0  0  0  0  0  0  0  0  0  0  0
   10.2759   -4.0036   17.8845 C   0  0  0  0  0  0  0  0  0  0  0  0
    8.5652    1.5478   25.3778 N   0  0  0  0  0  0  0  0  0  0  0  0
    6.8048   -7.5457   17.8752 C   0  0  0  0  0  0  0  0  0  0  0  0
    6.1721   -8.2186   15.9886 N   0  0  0  0  0  0  0  0  0  0  0  0
   11.1764   -2.6600   19.5604 C   0  0  0  0  0  0  0  0  0  0  0  0
    9.5491   -0.6380   24.1912 C   0  0  0  0  0  0  0  0  0  0  0  0
    7.5337   -6.9256   16.9519 C   0  0  0  0  0  0  0  0  0  0  0  0
    9.6782    0.5671   23.5143 C   0  0  0  0  0  0  0  0  0  0  0  0
    8.4532    0.3482   26.0821 C   0  0  0  0  0  0  0  0  0  0  0  0
   10.4239   -1.7677   22.2230 N   0  0  0  0  0  0  0  0  0  0  0  0
    9.9468   -4.5953   20.1709 C   0  0  0  0  0  0  0  0  0  0  0  0
   10.0366   -3.0590   23.9864 N   0  0  0  0  0  0  0  0  0  0  0  0
    7.1191   -7.3636   15.7739 C   0  0  0  0  0  0  0  0  0  0  0  0
    5.9612   -8.3203   17.2732 N   0  0  0  0  0  0  0  0  0  0  0  0
    8.5296   -5.9814   17.1841 C   0  0  0  0  0  0  0  0  0  0  0  0
    9.1527   -5.2118   16.2116 C   0  0  0  0  0  0  0  0  0  0  0  0
   10.3364   -3.8368   22.9255 O   0  0  0  0  0  0  0  0  0  0  0  0
    9.6947   -4.8407   18.8534 C   0  0  0  0  0  0  0  0  0  0  0  0
    9.1596    1.7042   24.1381 C   0  0  0  0  0  0  0  0  0  0  0  0
   11.0456   -2.9774   18.2694 N   0  0  0  0  0  0  0  0  0  0  0  0
   10.4788   -3.0457   21.8593 C   0  0  0  0  0  0  0  0  0  0  0  0
    8.8693   -5.8099   18.4657 N   0  0  0  0  0  0  0  0  0  0  0  0
    8.9892   -0.7926   25.4573 C   0  0  0  0  0  0  0  0  0  0  0  0
   10.5677   -3.4462   20.5323 C   0  0  0  0  0  0  0  0  0  0  0  0
  1  8  1  0
  1 12  4  0
  1 14  4  0
  2  3  4  0
  2 18  4  0
  3 20  4  0
  3 22  4  0
  4 11  4  0
  4 21  4  0
  5  9  4  0
  5 16  4  0
  6 15  4  0
  6 16  4  0
  7 22  4  0
  7 26  4  0
  8 10  4  0
  8 25  4  0
  9 15  4  0
  9 17  1  0
 10 21  4  0
 11 25  4  0
 12 23  4  0
 13 20  4  0
 13 26  4  0
 14 19  4  0
 17 18  4  0
 17 24  4  0
 19 23  4  0
 20 24  4  0
 23 26  1  0
M  END
$$$$

 Created by Python create_sdf_string function

 26 30  0  0  0  0  0  0  0  0999 V2000
   10.0084   -1.8019   23.4945 C   0  0  0  0  0  0  0  0  0  0  0  0
   10.0005   -4.2520   16.5631 C   0  0  0  0  0  0  0  0  0  0  0  0
   10.2759   -4.0036   17.8845 C   0  0  0  0  0  0  0  0  0  0  0  0
    8.5652    1.5478   25.3778 N   0  0  0  0  0  0  0  0  0  0  0  0
    6.8048   -7.5457   17.8752 C   0  0  0  0  0  0  0  0  0  0  0  0
    6.1721   -8.2186   15.9886 N   0  0  0  0  0  0  0  0  0  0  0  0
   11.1764   -2.6600   19.5604 C   0  0  0  0  0  0  0  0  0  0  0  0
    9.5491   -0.6380   24.1912 C   0  0  0  0  0  0  0  0  0  0  0  0
    7.5337   -6.9256   16.9519 C   0  0  0  0  0  0  0  0  0  0  0  0
    9.6782    0.5671   23.5143 C   0  0  0  0  0  0  0  0  0  0  0  0
    8.4532    0.3482   26.0821 C   0  0  0  0  0  0  0  0  0  0  0  0
   10.4239   -1.7677   22.2230 N   0  0  0  0  0  0  0  0  0  0  0  0
    9.9468   -4.5953   20.1709 C   0  0  0  0  0  0  0  0  0  0  0  0
   10.0366   -3.0590   23.9864 N   0  0  0  0  0  0  0  0  0  0  0  0
    7.1191   -7.3636   15.7739 C   0  0  0  0  0  0  0  0  0  0  0  0
    5.9612   -8.3203   17.2732 N   0  0  0  0  0  0  0  0  0  0  0  0
    8.5296   -5.9814   17.1841 C   0  0  0  0  0  0  0  0  0  0  0  0
    9.1527   -5.2118   16.2116 C   0  0  0  0  0  0  0  0  0  0  0  0
   10.3364   -3.8368   22.9255 O   0  0  0  0  0  0  0  0  0  0  0  0
    9.6947   -4.8407   18.8534 C   0  0  0  0  0  0  0  0  0  0  0  0
    9.1596    1.7042   24.1381 C   0  0  0  0  0  0  0  0  0  0  0  0
   11.0456   -2.9774   18.2694 N   0  0  0  0  0  0  0  0  0  0  0  0
   10.4788   -3.0457   21.8593 C   0  0  0  0  0  0  0  0  0  0  0  0
    8.8693   -5.8099   18.4657 N   0  0  0  0  0  0  0  0  0  0  0  0
    8.9892   -0.7926   25.4573 C   0  0  0  0  0  0  0  0  0  0  0  0
   10.5677   -3.4462   20.5323 C   0  0  0  0  0  0  0  0  0  0  0  0
  1  8  1  0
  1 12  4  0
  1 14  4  0
  2  3  4  0
  2 18  4  0
  3 20  4  0
  3 22  4  0
  4 11  4  0
  4 21  4  0
  5  9  4  0
  5 16  4  0
  6 15  4  0
  6 16  4  0
  7 22  4  0
  7 26  4  0
  8 10  4  0
  8 25  4  0
  9 15  4  0
  9 17  1  0
 10 21  4  0
 11 25  4  0
 12 23  4  0
 13 20  4  0
 13 26  4  0
 14 19  4  0
 17 18  4  0
 17 24  4  0
 19 23  4  0
 20 24  4  0
 23 26  1  0
M  END
$$$$

 Created by Python create_sdf_string function

 26 30  0  0  0  0  0  0  0  0999 V2000
   10.0084   -1.8019   23.4945 C   0  0  0  0  0  0  0  0  0  0  0  0
   10.0005   -4.2520   16.5631 C   0  0  0  0  0  0  0  0  0  0  0  0
   10.2759   -4.0036   17.8845 C   0  0  0  0  0  0  0  0  0  0  0  0
    8.5652    1.5478   25.3778 N   0  0  0  0  0  0  0  0  0  0  0  0
    6.8048   -7.5457   17.8752 C   0  0  0  0  0  0  0  0  0  0  0  0
    6.1721   -8.2186   15.9886 N   0  0  0  0  0  0  0  0  0  0  0  0
   11.1764   -2.6600   19.5604 C   0  0  0  0  0  0  0  0  0  0  0  0
    9.5491   -0.6380   24.1912 C   0  0  0  0  0  0  0  0  0  0  0  0
    7.5337   -6.9256   16.9519 C   0  0  0  0  0  0  0  0  0  0  0  0
    9.6782    0.5671   23.5143 C   0  0  0  0  0  0  0  0  0  0  0  0
    8.4532    0.3482   26.0821 C   0  0  0  0  0  0  0  0  0  0  0  0
   10.4239   -1.7677   22.2230 N   0  0  0  0  0  0  0  0  0  0  0  0
    9.9468   -4.5953   20.1709 C   0  0  0  0  0  0  0  0  0  0  0  0
   10.0366   -3.0590   23.9864 N   0  0  0  0  0  0  0  0  0  0  0  0
    7.1191   -7.3636   15.7739 C   0  0  0  0  0  0  0  0  0  0  0  0
    5.9612   -8.3203   17.2732 N   0  0  0  0  0  0  0  0  0  0  0  0
    8.5296   -5.9814   17.1841 C   0  0  0  0  0  0  0  0  0  0  0  0
    9.1527   -5.2118   16.2116 C   0  0  0  0  0  0  0  0  0  0  0  0
   10.3364   -3.8368   22.9255 O   0  0  0  0  0  0  0  0  0  0  0  0
    9.6947   -4.8407   18.8534 C   0  0  0  0  0  0  0  0  0  0  0  0
    9.1596    1.7042   24.1381 C   0  0  0  0  0  0  0  0  0  0  0  0
   11.0456   -2.9774   18.2694 N   0  0  0  0  0  0  0  0  0  0  0  0
   10.4788   -3.0457   21.8593 C   0  0  0  0  0  0  0  0  0  0  0  0
    8.8693   -5.8099   18.4657 N   0  0  0  0  0  0  0  0  0  0  0  0
    8.9892   -0.7926   25.4573 C   0  0  0  0  0  0  0  0  0  0  0  0
   10.5677   -3.4462   20.5323 C   0  0  0  0  0  0  0  0  0  0  0  0
  1  8  1  0
  1 12  4  0
  1 14  4  0
  2  3  4  0
  2 18  4  0
  3 20  4  0
  3 22  4  0
  4 11  4  0
  4 21  4  0
  5  9  4  0
  5 16  4  0
  6 15  4  0
  6 16  4  0
  7 22  4  0
  7 26  4  0
  8 10  4  0
  8 25  4  0
  9 15  4  0
  9 17  1  0
 10 21  4  0
 11 25  4  0
 12 23  4  0
 13 20  4  0
 13 26  4  0
 14 19  4  0
 17 18  4  0
 17 24  4  0
 19 23  4  0
 20 24  4  0
 23 26  1  0
M  END
$$$$

 Created by Python create_sdf_string function

 26 30  0  0  0  0  0  0  0  0999 V2000
   10.0084   -1.8019   23.4945 C   0  0  0  0  0  0  0  0  0  0  0  0
   10.0005   -4.2520   16.5631 C   0  0  0  0  0  0  0  0  0  0  0  0
   10.2759   -4.0036   17.8845 C   0  0  0  0  0  0  0  0  0  0  0  0
    8.5652    1.5478   25.3778 N   0  0  0  0  0  0  0  0  0  0  0  0
    6.8048   -7.5457   17.8752 C   0  0  0  0  0  0  0  0  0  0  0  0
    6.1721   -8.2186   15.9886 N   0  0  0  0  0  0  0  0  0  0  0  0
   11.1764   -2.6600   19.5604 C   0  0  0  0  0  0  0  0  0  0  0  0
    9.5491   -0.6380   24.1912 C   0  0  0  0  0  0  0  0  0  0  0  0
    7.5337   -6.9256   16.9519 C   0  0  0  0  0  0  0  0  0  0  0  0
    9.6782    0.5671   23.5143 C   0  0  0  0  0  0  0  0  0  0  0  0
    8.4532    0.3482   26.0821 C   0  0  0  0  0  0  0  0  0  0  0  0
   10.4239   -1.7677   22.2230 N   0  0  0  0  0  0  0  0  0  0  0  0
    9.9468   -4.5953   20.1709 C   0  0  0  0  0  0  0  0  0  0  0  0
   10.0366   -3.0590   23.9864 N   0  0  0  0  0  0  0  0  0  0  0  0
    7.1191   -7.3636   15.7739 C   0  0  0  0  0  0  0  0  0  0  0  0
    5.9612   -8.3203   17.2732 N   0  0  0  0  0  0  0  0  0  0  0  0
    8.5296   -5.9814   17.1841 C   0  0  0  0  0  0  0  0  0  0  0  0
    9.1527   -5.2118   16.2116 C   0  0  0  0  0  0  0  0  0  0  0  0
   10.3364   -3.8368   22.9255 O   0  0  0  0  0  0  0  0  0  0  0  0
    9.6947   -4.8407   18.8534 C   0  0  0  0  0  0  0  0  0  0  0  0
    9.1596    1.7042   24.1381 C   0  0  0  0  0  0  0  0  0  0  0  0
   11.0456   -2.9774   18.2694 N   0  0  0  0  0  0  0  0  0  0  0  0
   10.4788   -3.0457   21.8593 C   0  0  0  0  0  0  0  0  0  0  0  0
    8.8693   -5.8099   18.4657 N   0  0  0  0  0  0  0  0  0  0  0  0
    8.9892   -0.7926   25.4573 C   0  0  0  0  0  0  0  0  0  0  0  0
   10.5677   -3.4462   20.5323 C   0  0  0  0  0  0  0  0  0  0  0  0
  1  8  1  0
  1 12  4  0
  1 14  4  0
  2  3  4  0
  2 18  4  0
  3 20  4  0
  3 22  4  0
  4 11  4  0
  4 21  4  0
  5  9  4  0
  5 16  4  0
  6 15  4  0
  6 16  4  0
  7 22  4  0
  7 26  4  0
  8 10  4  0
  8 25  4  0
  9 15  4  0
  9 17  1  0
 10 21  4  0
 11 25  4  0
 12 23  4  0
 13 20  4  0
 13 26  4  0
 14 19  4  0
 17 18  4  0
 17 24  4  0
 19 23  4  0
 20 24  4  0
 23 26  1  0
M  END
$$$$

 Created by Python create_sdf_string function

 26 30  0  0  0  0  0  0  0  0999 V2000
   10.0084   -1.8019   23.4945 C   0  0  0  0  0  0  0  0  0  0  0  0
   10.0005   -4.2520   16.5631 C   0  0  0  0  0  0  0  0  0  0  0  0
   10.2759   -4.0036   17.8845 C   0  0  0  0  0  0  0  0  0  0  0  0
    8.5652    1.5478   25.3778 N   0  0  0  0  0  0  0  0  0  0  0  0
    6.8048   -7.5457   17.8752 C   0  0  0  0  0  0  0  0  0  0  0  0
    6.1721   -8.2186   15.9886 N   0  0  0  0  0  0  0  0  0  0  0  0
   11.1764   -2.6600   19.5604 C   0  0  0  0  0  0  0  0  0  0  0  0
    9.5491   -0.6380   24.1912 C   0  0  0  0  0  0  0  0  0  0  0  0
    7.5337   -6.9256   16.9519 C   0  0  0  0  0  0  0  0  0  0  0  0
    9.6782    0.5671   23.5143 C   0  0  0  0  0  0  0  0  0  0  0  0
    8.4532    0.3482   26.0821 C   0  0  0  0  0  0  0  0  0  0  0  0
   10.4239   -1.7677   22.2230 N   0  0  0  0  0  0  0  0  0  0  0  0
    9.9468   -4.5953   20.1709 C   0  0  0  0  0  0  0  0  0  0  0  0
   10.0366   -3.0590   23.9864 N   0  0  0  0  0  0  0  0  0  0  0  0
    7.1191   -7.3636   15.7739 C   0  0  0  0  0  0  0  0  0  0  0  0
    5.9612   -8.3203   17.2732 N   0  0  0  0  0  0  0  0  0  0  0  0
    8.5296   -5.9814   17.1841 C   0  0  0  0  0  0  0  0  0  0  0  0
    9.1527   -5.2118   16.2116 C   0  0  0  0  0  0  0  0  0  0  0  0
   10.3364   -3.8368   22.9255 O   0  0  0  0  0  0  0  0  0  0  0  0
    9.6947   -4.8407   18.8534 C   0  0  0  0  0  0  0  0  0  0  0  0
    9.1596    1.7042   24.1381 C   0  0  0  0  0  0  0  0  0  0  0  0
   11.0456   -2.9774   18.2694 N   0  0  0  0  0  0  0  0  0  0  0  0
   10.4788   -3.0457   21.8593 C   0  0  0  0  0  0  0  0  0  0  0  0
    8.8693   -5.8099   18.4657 N   0  0  0  0  0  0  0  0  0  0  0  0
    8.9892   -0.7926   25.4573 C   0  0  0  0  0  0  0  0  0  0  0  0
   10.5677   -3.4462   20.5323 C   0  0  0  0  0  0  0  0  0  0  0  0
  1  8  1  0
  1 12  4  0
  1 14  4  0
  2  3  4  0
  2 18  4  0
  3 20  4  0
  3 22  4  0
  4 11  4  0
  4 21  4  0
  5  9  4  0
  5 16  4  0
  6 15  4  0
  6 16  4  0
  7 22  4  0
  7 26  4  0
  8 10  4  0
  8 25  4  0
  9 15  4  0
  9 17  1  0
 10 21  4  0
 11 25  4  0
 12 23  4  0
 13 20  4  0
 13 26  4  0
 14 19  4  0
 17 18  4  0
 17 24  4  0
 19 23  4  0
 20 24  4  0
 23 26  1  0
M  END
$$$$

 Created by Python create_sdf_string function

 26 30  0  0  0  0  0  0  0  0999 V2000
   10.0084   -1.8019   23.4945 C   0  0  0  0  0  0  0  0  0  0  0  0
   10.0005   -4.2520   16.5631 C   0  0  0  0  0  0  0  0  0  0  0  0
   10.2759   -4.0036   17.8845 C   0  0  0  0  0  0  0  0  0  0  0  0
    8.5652    1.5478   25.3778 N   0  0  0  0  0  0  0  0  0  0  0  0
    6.8048   -7.5457   17.8752 C   0  0  0  0  0  0  0  0  0  0  0  0
    6.1721   -8.2186   15.9886 N   0  0  0  0  0  0  0  0  0  0  0  0
   11.1764   -2.6600   19.5604 C   0  0  0  0  0  0  0  0  0  0  0  0
    9.5491   -0.6380   24.1912 C   0  0  0  0  0  0  0  0  0  0  0  0
    7.5337   -6.9256   16.9519 C   0  0  0  0  0  0  0  0  0  0  0  0
    9.6782    0.5671   23.5143 C   0  0  0  0  0  0  0  0  0  0  0  0
    8.4532    0.3482   26.0821 C   0  0  0  0  0  0  0  0  0  0  0  0
   10.4239   -1.7677   22.2230 N   0  0  0  0  0  0  0  0  0  0  0  0
    9.9468   -4.5953   20.1709 C   0  0  0  0  0  0  0  0  0  0  0  0
   10.0366   -3.0590   23.9864 N   0  0  0  0  0  0  0  0  0  0  0  0
    7.1191   -7.3636   15.7739 C   0  0  0  0  0  0  0  0  0  0  0  0
    5.9612   -8.3203   17.2732 N   0  0  0  0  0  0  0  0  0  0  0  0
    8.5296   -5.9814   17.1841 C   0  0  0  0  0  0  0  0  0  0  0  0
    9.1527   -5.2118   16.2116 C   0  0  0  0  0  0  0  0  0  0  0  0
   10.3364   -3.8368   22.9255 O   0  0  0  0  0  0  0  0  0  0  0  0
    9.6947   -4.8407   18.8534 C   0  0  0  0  0  0  0  0  0  0  0  0
    9.1596    1.7042   24.1381 C   0  0  0  0  0  0  0  0  0  0  0  0
   11.0456   -2.9774   18.2694 N   0  0  0  0  0  0  0  0  0  0  0  0
   10.4788   -3.0457   21.8593 C   0  0  0  0  0  0  0  0  0  0  0  0
    8.8693   -5.8099   18.4657 N   0  0  0  0  0  0  0  0  0  0  0  0
    8.9892   -0.7926   25.4573 C   0  0  0  0  0  0  0  0  0  0  0  0
   10.5677   -3.4462   20.5323 C   0  0  0  0  0  0  0  0  0  0  0  0
  1  8  1  0
  1 12  4  0
  1 14  4  0
  2  3  4  0
  2 18  4  0
  3 20  4  0
  3 22  4  0
  4 11  4  0
  4 21  4  0
  5  9  4  0
  5 16  4  0
  6 15  4  0
  6 16  4  0
  7 22  4  0
  7 26  4  0
  8 10  4  0
  8 25  4  0
  9 15  4  0
  9 17  1  0
 10 21  4  0
 11 25  4  0
 12 23  4  0
 13 20  4  0
 13 26  4  0
 14 19  4  0
 17 18  4  0
 17 24  4  0
 19 23  4  0
 20 24  4  0
 23 26  1  0
M  END
$$$$

 Created by Python create_sdf_string function

 26 30  0  0  0  0  0  0  0  0999 V2000
   10.0084   -1.8019   23.4945 C   0  0  0  0  0  0  0  0  0  0  0  0
   10.0005   -4.2520   16.5631 C   0  0  0  0  0  0  0  0  0  0  0  0
   10.2759   -4.0036   17.8845 C   0  0  0  0  0  0  0  0  0  0  0  0
    8.5652    1.5478   25.3778 N   0  0  0  0  0  0  0  0  0  0  0  0
    6.8048   -7.5457   17.8752 C   0  0  0  0  0  0  0  0  0  0  0  0
    6.1721   -8.2186   15.9886 N   0  0  0  0  0  0  0  0  0  0  0  0
   11.1764   -2.6600   19.5604 C   0  0  0  0  0  0  0  0  0  0  0  0
    9.5491   -0.6380   24.1912 C   0  0  0  0  0  0  0  0  0  0  0  0
    7.5337   -6.9256   16.9519 C   0  0  0  0  0  0  0  0  0  0  0  0
    9.6782    0.5671   23.5143 C   0  0  0  0  0  0  0  0  0  0  0  0
    8.4532    0.3482   26.0821 C   0  0  0  0  0  0  0  0  0  0  0  0
   10.4239   -1.7677   22.2230 N   0  0  0  0  0  0  0  0  0  0  0  0
    9.9468   -4.5953   20.1709 C   0  0  0  0  0  0  0  0  0  0  0  0
   10.0366   -3.0590   23.9864 N   0  0  0  0  0  0  0  0  0  0  0  0
    7.1191   -7.3636   15.7739 C   0  0  0  0  0  0  0  0  0  0  0  0
    5.9612   -8.3203   17.2732 N   0  0  0  0  0  0  0  0  0  0  0  0
    8.5296   -5.9814   17.1841 C   0  0  0  0  0  0  0  0  0  0  0  0
    9.1527   -5.2118   16.2116 C   0  0  0  0  0  0  0  0  0  0  0  0
   10.3364   -3.8368   22.9255 O   0  0  0  0  0  0  0  0  0  0  0  0
    9.6947   -4.8407   18.8534 C   0  0  0  0  0  0  0  0  0  0  0  0
    9.1596    1.7042   24.1381 C   0  0  0  0  0  0  0  0  0  0  0  0
   11.0456   -2.9774   18.2694 N   0  0  0  0  0  0  0  0  0  0  0  0
   10.4788   -3.0457   21.8593 C   0  0  0  0  0  0  0  0  0  0  0  0
    8.8693   -5.8099   18.4657 N   0  0  0  0  0  0  0  0  0  0  0  0
    8.9892   -0.7926   25.4573 C   0  0  0  0  0  0  0  0  0  0  0  0
   10.5677   -3.4462   20.5323 C   0  0  0  0  0  0  0  0  0  0  0  0
  1  8  1  0
  1 12  4  0
  1 14  4  0
  2  3  4  0
  2 18  4  0
  3 20  4  0
  3 22  4  0
  4 11  4  0
  4 21  4  0
  5  9  4  0
  5 16  4  0
  6 15  4  0
  6 16  4  0
  7 22  4  0
  7 26  4  0
  8 10  4  0
  8 25  4  0
  9 15  4  0
  9 17  1  0
 10 21  4  0
 11 25  4  0
 12 23  4  0
 13 20  4  0
 13 26  4  0
 14 19  4  0
 17 18  4  0
 17 24  4  0
 19 23  4  0
 20 24  4  0
 23 26  1  0
M  END
$$$$

 Created by Python create_sdf_string function

 26 30  0  0  0  0  0  0  0  0999 V2000
   10.0084   -1.8019   23.4945 C   0  0  0  0  0  0  0  0  0  0  0  0
   10.0005   -4.2520   16.5631 C   0  0  0  0  0  0  0  0  0  0  0  0
   10.2759   -4.0036   17.8845 C   0  0  0  0  0  0  0  0  0  0  0  0
    8.5652    1.5478   25.3778 N   0  0  0  0  0  0  0  0  0  0  0  0
    6.8048   -7.5457   17.8752 C   0  0  0  0  0  0  0  0  0  0  0  0
    6.1721   -8.2186   15.9886 N   0  0  0  0  0  0  0  0  0  0  0  0
   11.1764   -2.6600   19.5604 C   0  0  0  0  0  0  0  0  0  0  0  0
    9.5491   -0.6380   24.1912 C   0  0  0  0  0  0  0  0  0  0  0  0
    7.5337   -6.9256   16.9519 C   0  0  0  0  0  0  0  0  0  0  0  0
    9.6782    0.5671   23.5143 C   0  0  0  0  0  0  0  0  0  0  0  0
    8.4532    0.3482   26.0821 C   0  0  0  0  0  0  0  0  0  0  0  0
   10.4239   -1.7677   22.2230 N   0  0  0  0  0  0  0  0  0  0  0  0
    9.9468   -4.5953   20.1709 C   0  0  0  0  0  0  0  0  0  0  0  0
   10.0366   -3.0590   23.9864 N   0  0  0  0  0  0  0  0  0  0  0  0
    7.1191   -7.3636   15.7739 C   0  0  0  0  0  0  0  0  0  0  0  0
    5.9612   -8.3203   17.2732 N   0  0  0  0  0  0  0  0  0  0  0  0
    8.5296   -5.9814   17.1841 C   0  0  0  0  0  0  0  0  0  0  0  0
    9.1527   -5.2118   16.2116 C   0  0  0  0  0  0  0  0  0  0  0  0
   10.3364   -3.8368   22.9255 O   0  0  0  0  0  0  0  0  0  0  0  0
    9.6947   -4.8407   18.8534 C   0  0  0  0  0  0  0  0  0  0  0  0
    9.1596    1.7042   24.1381 C   0  0  0  0  0  0  0  0  0  0  0  0
   11.0456   -2.9774   18.2694 N   0  0  0  0  0  0  0  0  0  0  0  0
   10.4788   -3.0457   21.8593 C   0  0  0  0  0  0  0  0  0  0  0  0
    8.8693   -5.8099   18.4657 N   0  0  0  0  0  0  0  0  0  0  0  0
    8.9892   -0.7926   25.4573 C   0  0  0  0  0  0  0  0  0  0  0  0
   10.5677   -3.4462   20.5323 C   0  0  0  0  0  0  0  0  0  0  0  0
  1  8  1  0
  1 12  4  0
  1 14  4  0
  2  3  4  0
  2 18  4  0
  3 20  4  0
  3 22  4  0
  4 11  4  0
  4 21  4  0
  5  9  4  0
  5 16  4  0
  6 15  4  0
  6 16  4  0
  7 22  4  0
  7 26  4  0
  8 10  4  0
  8 25  4  0
  9 15  4  0
  9 17  1  0
 10 21  4  0
 11 25  4  0
 12 23  4  0
 13 20  4  0
 13 26  4  0
 14 19  4  0
 17 18  4  0
 17 24  4  0
 19 23  4  0
 20 24  4  0
 23 26  1  0
M  END
$$$$

 Created by Python create_sdf_string function

 26 30  0  0  0  0  0  0  0  0999 V2000
   10.0084   -1.8019   23.4945 C   0  0  0  0  0  0  0  0  0  0  0  0
   10.0005   -4.2520   16.5631 C   0  0  0  0  0  0  0  0  0  0  0  0
   10.2759   -4.0036   17.8845 C   0  0  0  0  0  0  0  0  0  0  0  0
    8.5652    1.5478   25.3778 N   0  0  0  0  0  0  0  0  0  0  0  0
    6.8048   -7.5457   17.8752 C   0  0  0  0  0  0  0  0  0  0  0  0
    6.1721   -8.2186   15.9886 N   0  0  0  0  0  0  0  0  0  0  0  0
   11.1764   -2.6600   19.5604 C   0  0  0  0  0  0  0  0  0  0  0  0
    9.5491   -0.6380   24.1912 C   0  0  0  0  0  0  0  0  0  0  0  0
    7.5337   -6.9256   16.9519 C   0  0  0  0  0  0  0  0  0  0  0  0
    9.6782    0.5671   23.5143 C   0  0  0  0  0  0  0  0  0  0  0  0
    8.4532    0.3482   26.0821 C   0  0  0  0  0  0  0  0  0  0  0  0
   10.4239   -1.7677   22.2230 N   0  0  0  0  0  0  0  0  0  0  0  0
    9.9468   -4.5953   20.1709 C   0  0  0  0  0  0  0  0  0  0  0  0
   10.0366   -3.0590   23.9864 N   0  0  0  0  0  0  0  0  0  0  0  0
    7.1191   -7.3636   15.7739 C   0  0  0  0  0  0  0  0  0  0  0  0
    5.9612   -8.3203   17.2732 N   0  0  0  0  0  0  0  0  0  0  0  0
    8.5296   -5.9814   17.1841 C   0  0  0  0  0  0  0  0  0  0  0  0
    9.1527   -5.2118   16.2116 C   0  0  0  0  0  0  0  0  0  0  0  0
   10.3364   -3.8368   22.9255 O   0  0  0  0  0  0  0  0  0  0  0  0
    9.6947   -4.8407   18.8534 C   0  0  0  0  0  0  0  0  0  0  0  0
    9.1596    1.7042   24.1381 C   0  0  0  0  0  0  0  0  0  0  0  0
   11.0456   -2.9774   18.2694 N   0  0  0  0  0  0  0  0  0  0  0  0
   10.4788   -3.0457   21.8593 C   0  0  0  0  0  0  0  0  0  0  0  0
    8.8693   -5.8099   18.4657 N   0  0  0  0  0  0  0  0  0  0  0  0
    8.9892   -0.7926   25.4573 C   0  0  0  0  0  0  0  0  0  0  0  0
   10.5677   -3.4462   20.5323 C   0  0  0  0  0  0  0  0  0  0  0  0
  1  8  1  0
  1 12  4  0
  1 14  4  0
  2  3  4  0
  2 18  4  0
  3 20  4  0
  3 22  4  0
  4 11  4  0
  4 21  4  0
  5  9  4  0
  5 16  4  0
  6 15  4  0
  6 16  4  0
  7 22  4  0
  7 26  4  0
  8 10  4  0
  8 25  4  0
  9 15  4  0
  9 17  1  0
 10 21  4  0
 11 25  4  0
 12 23  4  0
 13 20  4  0
 13 26  4  0
 14 19  4  0
 17 18  4  0
 17 24  4  0
 19 23  4  0
 20 24  4  0
 23 26  1  0
M  END
$$$$

 Created by Python create_sdf_string function

 26 30  0  0  0  0  0  0  0  0999 V2000
   10.0084   -1.8019   23.4945 C   0  0  0  0  0  0  0  0  0  0  0  0
   10.0005   -4.2520   16.5631 C   0  0  0  0  0  0  0  0  0  0  0  0
   10.2759   -4.0036   17.8845 C   0  0  0  0  0  0  0  0  0  0  0  0
    8.5652    1.5478   25.3778 N   0  0  0  0  0  0  0  0  0  0  0  0
    6.8048   -7.5457   17.8752 C   0  0  0  0  0  0  0  0  0  0  0  0
    6.1721   -8.2186   15.9886 N   0  0  0  0  0  0  0  0  0  0  0  0
   11.1764   -2.6600   19.5604 C   0  0  0  0  0  0  0  0  0  0  0  0
    9.5491   -0.6380   24.1912 C   0  0  0  0  0  0  0  0  0  0  0  0
    7.5337   -6.9256   16.9519 C   0  0  0  0  0  0  0  0  0  0  0  0
    9.6782    0.5671   23.5143 C   0  0  0  0  0  0  0  0  0  0  0  0
    8.4532    0.3482   26.0821 C   0  0  0  0  0  0  0  0  0  0  0  0
   10.4239   -1.7677   22.2230 N   0  0  0  0  0  0  0  0  0  0  0  0
    9.9468   -4.5953   20.1709 C   0  0  0  0  0  0  0  0  0  0  0  0
   10.0366   -3.0590   23.9864 N   0  0  0  0  0  0  0  0  0  0  0  0
    7.1191   -7.3636   15.7739 C   0  0  0  0  0  0  0  0  0  0  0  0
    5.9612   -8.3203   17.2732 N   0  0  0  0  0  0  0  0  0  0  0  0
    8.5296   -5.9814   17.1841 C   0  0  0  0  0  0  0  0  0  0  0  0
    9.1527   -5.2118   16.2116 C   0  0  0  0  0  0  0  0  0  0  0  0
   10.3364   -3.8368   22.9255 O   0  0  0  0  0  0  0  0  0  0  0  0
    9.6947   -4.8407   18.8534 C   0  0  0  0  0  0  0  0  0  0  0  0
    9.1596    1.7042   24.1381 C   0  0  0  0  0  0  0  0  0  0  0  0
   11.0456   -2.9774   18.2694 N   0  0  0  0  0  0  0  0  0  0  0  0
   10.4788   -3.0457   21.8593 C   0  0  0  0  0  0  0  0  0  0  0  0
    8.8693   -5.8099   18.4657 N   0  0  0  0  0  0  0  0  0  0  0  0
    8.9892   -0.7926   25.4573 C   0  0  0  0  0  0  0  0  0  0  0  0
   10.5677   -3.4462   20.5323 C   0  0  0  0  0  0  0  0  0  0  0  0
  1  8  1  0
  1 12  4  0
  1 14  4  0
  2  3  4  0
  2 18  4  0
  3 20  4  0
  3 22  4  0
  4 11  4  0
  4 21  4  0
  5  9  4  0
  5 16  4  0
  6 15  4  0
  6 16  4  0
  7 22  4  0
  7 26  4  0
  8 10  4  0
  8 25  4  0
  9 15  4  0
  9 17  1  0
 10 21  4  0
 11 25  4  0
 12 23  4  0
 13 20  4  0
 13 26  4  0
 14 19  4  0
 17 18  4  0
 17 24  4  0
 19 23  4  0
 20 24  4  0
 23 26  1  0
M  END
$$$$

 Created by Python create_sdf_string function

 26 30  0  0  0  0  0  0  0  0999 V2000
   10.0084   -1.8019   23.4945 C   0  0  0  0  0  0  0  0  0  0  0  0
   10.0005   -4.2520   16.5631 C   0  0  0  0  0  0  0  0  0  0  0  0
   10.2759   -4.0036   17.8845 C   0  0  0  0  0  0  0  0  0  0  0  0
    8.5652    1.5478   25.3778 N   0  0  0  0  0  0  0  0  0  0  0  0
    6.8048   -7.5457   17.8752 C   0  0  0  0  0  0  0  0  0  0  0  0
    6.1721   -8.2186   15.9886 N   0  0  0  0  0  0  0  0  0  0  0  0
   11.1764   -2.6600   19.5604 C   0  0  0  0  0  0  0  0  0  0  0  0
    9.5491   -0.6380   24.1912 C   0  0  0  0  0  0  0  0  0  0  0  0
    7.5337   -6.9256   16.9519 C   0  0  0  0  0  0  0  0  0  0  0  0
    9.6782    0.5671   23.5143 C   0  0  0  0  0  0  0  0  0  0  0  0
    8.4532    0.3482   26.0821 C   0  0  0  0  0  0  0  0  0  0  0  0
   10.4239   -1.7677   22.2230 N   0  0  0  0  0  0  0  0  0  0  0  0
    9.9468   -4.5953   20.1709 C   0  0  0  0  0  0  0  0  0  0  0  0
   10.0366   -3.0590   23.9864 N   0  0  0  0  0  0  0  0  0  0  0  0
    7.1191   -7.3636   15.7739 C   0  0  0  0  0  0  0  0  0  0  0  0
    5.9612   -8.3203   17.2732 N   0  0  0  0  0  0  0  0  0  0  0  0
    8.5296   -5.9814   17.1841 C   0  0  0  0  0  0  0  0  0  0  0  0
    9.1527   -5.2118   16.2116 C   0  0  0  0  0  0  0  0  0  0  0  0
   10.3364   -3.8368   22.9255 O   0  0  0  0  0  0  0  0  0  0  0  0
    9.6947   -4.8407   18.8534 C   0  0  0  0  0  0  0  0  0  0  0  0
    9.1596    1.7042   24.1381 C   0  0  0  0  0  0  0  0  0  0  0  0
   11.0456   -2.9774   18.2694 N   0  0  0  0  0  0  0  0  0  0  0  0
   10.4788   -3.0457   21.8593 C   0  0  0  0  0  0  0  0  0  0  0  0
    8.8693   -5.8099   18.4657 N   0  0  0  0  0  0  0  0  0  0  0  0
    8.9892   -0.7926   25.4573 C   0  0  0  0  0  0  0  0  0  0  0  0
   10.5677   -3.4462   20.5323 C   0  0  0  0  0  0  0  0  0  0  0  0
  1  8  1  0
  1 12  4  0
  1 14  4  0
  2  3  4  0
  2 18  4  0
  3 20  4  0
  3 22  4  0
  4 11  4  0
  4 21  4  0
  5  9  4  0
  5 16  4  0
  6 15  4  0
  6 16  4  0
  7 22  4  0
  7 26  4  0
  8 10  4  0
  8 25  4  0
  9 15  4  0
  9 17  1  0
 10 21  4  0
 11 25  4  0
 12 23  4  0
 13 20  4  0
 13 26  4  0
 14 19  4  0
 17 18  4  0
 17 24  4  0
 19 23  4  0
 20 24  4  0
 23 26  1  0
M  END
$$$$

 Created by Python create_sdf_string function

 26 30  0  0  0  0  0  0  0  0999 V2000
   10.0084   -1.8019   23.4945 C   0  0  0  0  0  0  0  0  0  0  0  0
   10.0005   -4.2520   16.5631 C   0  0  0  0  0  0  0  0  0  0  0  0
   10.2759   -4.0036   17.8845 C   0  0  0  0  0  0  0  0  0  0  0  0
    8.5652    1.5478   25.3778 N   0  0  0  0  0  0  0  0  0  0  0  0
    6.8048   -7.5457   17.8752 C   0  0  0  0  0  0  0  0  0  0  0  0
    6.1721   -8.2186   15.9886 N   0  0  0  0  0  0  0  0  0  0  0  0
   11.1764   -2.6600   19.5604 C   0  0  0  0  0  0  0  0  0  0  0  0
    9.5491   -0.6380   24.1912 C   0  0  0  0  0  0  0  0  0  0  0  0
    7.5337   -6.9256   16.9519 C   0  0  0  0  0  0  0  0  0  0  0  0
    9.6782    0.5671   23.5143 C   0  0  0  0  0  0  0  0  0  0  0  0
    8.4532    0.3482   26.0821 C   0  0  0  0  0  0  0  0  0  0  0  0
   10.4239   -1.7677   22.2230 N   0  0  0  0  0  0  0  0  0  0  0  0
    9.9468   -4.5953   20.1709 C   0  0  0  0  0  0  0  0  0  0  0  0
   10.0366   -3.0590   23.9864 N   0  0  0  0  0  0  0  0  0  0  0  0
    7.1191   -7.3636   15.7739 C   0  0  0  0  0  0  0  0  0  0  0  0
    5.9612   -8.3203   17.2732 N   0  0  0  0  0  0  0  0  0  0  0  0
    8.5296   -5.9814   17.1841 C   0  0  0  0  0  0  0  0  0  0  0  0
    9.1527   -5.2118   16.2116 C   0  0  0  0  0  0  0  0  0  0  0  0
   10.3364   -3.8368   22.9255 O   0  0  0  0  0  0  0  0  0  0  0  0
    9.6947   -4.8407   18.8534 C   0  0  0  0  0  0  0  0  0  0  0  0
    9.1596    1.7042   24.1381 C   0  0  0  0  0  0  0  0  0  0  0  0
   11.0456   -2.9774   18.2694 N   0  0  0  0  0  0  0  0  0  0  0  0
   10.4788   -3.0457   21.8593 C   0  0  0  0  0  0  0  0  0  0  0  0
    8.8693   -5.8099   18.4657 N   0  0  0  0  0  0  0  0  0  0  0  0
    8.9892   -0.7926   25.4573 C   0  0  0  0  0  0  0  0  0  0  0  0
   10.5677   -3.4462   20.5323 C   0  0  0  0  0  0  0  0  0  0  0  0
  1  8  1  0
  1 12  4  0
  1 14  4  0
  2  3  4  0
  2 18  4  0
  3 20  4  0
  3 22  4  0
  4 11  4  0
  4 21  4  0
  5  9  4  0
  5 16  4  0
  6 15  4  0
  6 16  4  0
  7 22  4  0
  7 26  4  0
  8 10  4  0
  8 25  4  0
  9 15  4  0
  9 17  1  0
 10 21  4  0
 11 25  4  0
 12 23  4  0
 13 20  4  0
 13 26  4  0
 14 19  4  0
 17 18  4  0
 17 24  4  0
 19 23  4  0
 20 24  4  0
 23 26  1  0
M  END
$$$$

 Created by Python create_sdf_string function

 26 30  0  0  0  0  0  0  0  0999 V2000
   10.0084   -1.8019   23.4945 C   0  0  0  0  0  0  0  0  0  0  0  0
   10.0005   -4.2520   16.5631 C   0  0  0  0  0  0  0  0  0  0  0  0
   10.2759   -4.0036   17.8845 C   0  0  0  0  0  0  0  0  0  0  0  0
    8.5652    1.5478   25.3778 N   0  0  0  0  0  0  0  0  0  0  0  0
    6.8048   -7.5457   17.8752 C   0  0  0  0  0  0  0  0  0  0  0  0
    6.1721   -8.2186   15.9886 N   0  0  0  0  0  0  0  0  0  0  0  0
   11.1764   -2.6600   19.5604 C   0  0  0  0  0  0  0  0  0  0  0  0
    9.5491   -0.6380   24.1912 C   0  0  0  0  0  0  0  0  0  0  0  0
    7.5337   -6.9256   16.9519 C   0  0  0  0  0  0  0  0  0  0  0  0
    9.6782    0.5671   23.5143 C   0  0  0  0  0  0  0  0  0  0  0  0
    8.4532    0.3482   26.0821 C   0  0  0  0  0  0  0  0  0  0  0  0
   10.4239   -1.7677   22.2230 N   0  0  0  0  0  0  0  0  0  0  0  0
    9.9468   -4.5953   20.1709 C   0  0  0  0  0  0  0  0  0  0  0  0
   10.0366   -3.0590   23.9864 N   0  0  0  0  0  0  0  0  0  0  0  0
    7.1191   -7.3636   15.7739 C   0  0  0  0  0  0  0  0  0  0  0  0
    5.9612   -8.3203   17.2732 N   0  0  0  0  0  0  0  0  0  0  0  0
    8.5296   -5.9814   17.1841 C   0  0  0  0  0  0  0  0  0  0  0  0
    9.1527   -5.2118   16.2116 C   0  0  0  0  0  0  0  0  0  0  0  0
   10.3364   -3.8368   22.9255 O   0  0  0  0  0  0  0  0  0  0  0  0
    9.6947   -4.8407   18.8534 C   0  0  0  0  0  0  0  0  0  0  0  0
    9.1596    1.7042   24.1381 C   0  0  0  0  0  0  0  0  0  0  0  0
   11.0456   -2.9774   18.2694 N   0  0  0  0  0  0  0  0  0  0  0  0
   10.4788   -3.0457   21.8593 C   0  0  0  0  0  0  0  0  0  0  0  0
    8.8693   -5.8099   18.4657 N   0  0  0  0  0  0  0  0  0  0  0  0
    8.9892   -0.7926   25.4573 C   0  0  0  0  0  0  0  0  0  0  0  0
   10.5677   -3.4462   20.5323 C   0  0  0  0  0  0  0  0  0  0  0  0
  1  8  1  0
  1 12  4  0
  1 14  4  0
  2  3  4  0
  2 18  4  0
  3 20  4  0
  3 22  4  0
  4 11  4  0
  4 21  4  0
  5  9  4  0
  5 16  4  0
  6 15  4  0
  6 16  4  0
  7 22  4  0
  7 26  4  0
  8 10  4  0
  8 25  4  0
  9 15  4  0
  9 17  1  0
 10 21  4  0
 11 25  4  0
 12 23  4  0
 13 20  4  0
 13 26  4  0
 14 19  4  0
 17 18  4  0
 17 24  4  0
 19 23  4  0
 20 24  4  0
 23 26  1  0
M  END
$$$$

 Created by Python create_sdf_string function

 26 30  0  0  0  0  0  0  0  0999 V2000
   10.0084   -1.8019   23.4945 C   0  0  0  0  0  0  0  0  0  0  0  0
   10.0005   -4.2520   16.5631 C   0  0  0  0  0  0  0  0  0  0  0  0
   10.2759   -4.0036   17.8845 C   0  0  0  0  0  0  0  0  0  0  0  0
    8.5652    1.5478   25.3778 N   0  0  0  0  0  0  0  0  0  0  0  0
    6.8048   -7.5457   17.8752 C   0  0  0  0  0  0  0  0  0  0  0  0
    6.1721   -8.2186   15.9886 N   0  0  0  0  0  0  0  0  0  0  0  0
   11.1764   -2.6600   19.5604 C   0  0  0  0  0  0  0  0  0  0  0  0
    9.5491   -0.6380   24.1912 C   0  0  0  0  0  0  0  0  0  0  0  0
    7.5337   -6.9256   16.9519 C   0  0  0  0  0  0  0  0  0  0  0  0
    9.6782    0.5671   23.5143 C   0  0  0  0  0  0  0  0  0  0  0  0
    8.4532    0.3482   26.0821 C   0  0  0  0  0  0  0  0  0  0  0  0
   10.4239   -1.7677   22.2230 N   0  0  0  0  0  0  0  0  0  0  0  0
    9.9468   -4.5953   20.1709 C   0  0  0  0  0  0  0  0  0  0  0  0
   10.0366   -3.0590   23.9864 N   0  0  0  0  0  0  0  0  0  0  0  0
    7.1191   -7.3636   15.7739 C   0  0  0  0  0  0  0  0  0  0  0  0
    5.9612   -8.3203   17.2732 N   0  0  0  0  0  0  0  0  0  0  0  0
    8.5296   -5.9814   17.1841 C   0  0  0  0  0  0  0  0  0  0  0  0
    9.1527   -5.2118   16.2116 C   0  0  0  0  0  0  0  0  0  0  0  0
   10.3364   -3.8368   22.9255 O   0  0  0  0  0  0  0  0  0  0  0  0
    9.6947   -4.8407   18.8534 C   0  0  0  0  0  0  0  0  0  0  0  0
    9.1596    1.7042   24.1381 C   0  0  0  0  0  0  0  0  0  0  0  0
   11.0456   -2.9774   18.2694 N   0  0  0  0  0  0  0  0  0  0  0  0
   10.4788   -3.0457   21.8593 C   0  0  0  0  0  0  0  0  0  0  0  0
    8.8693   -5.8099   18.4657 N   0  0  0  0  0  0  0  0  0  0  0  0
    8.9892   -0.7926   25.4573 C   0  0  0  0  0  0  0  0  0  0  0  0
   10.5677   -3.4462   20.5323 C   0  0  0  0  0  0  0  0  0  0  0  0
  1  8  1  0
  1 12  4  0
  1 14  4  0
  2  3  4  0
  2 18  4  0
  3 20  4  0
  3 22  4  0
  4 11  4  0
  4 21  4  0
  5  9  4  0
  5 16  4  0
  6 15  4  0
  6 16  4  0
  7 22  4  0
  7 26  4  0
  8 10  4  0
  8 25  4  0
  9 15  4  0
  9 17  1  0
 10 21  4  0
 11 25  4  0
 12 23  4  0
 13 20  4  0
 13 26  4  0
 14 19  4  0
 17 18  4  0
 17 24  4  0
 19 23  4  0
 20 24  4  0
 23 26  1  0
M  END
$$$$

 Created by Python create_sdf_string function

 26 30  0  0  0  0  0  0  0  0999 V2000
   10.0084   -1.8019   23.4945 C   0  0  0  0  0  0  0  0  0  0  0  0
   10.0005   -4.2520   16.5631 C   0  0  0  0  0  0  0  0  0  0  0  0
   10.2759   -4.0036   17.8845 C   0  0  0  0  0  0  0  0  0  0  0  0
    8.5652    1.5478   25.3778 N   0  0  0  0  0  0  0  0  0  0  0  0
    6.8048   -7.5457   17.8752 C   0  0  0  0  0  0  0  0  0  0  0  0
    6.1721   -8.2186   15.9886 N   0  0  0  0  0  0  0  0  0  0  0  0
   11.1764   -2.6600   19.5604 C   0  0  0  0  0  0  0  0  0  0  0  0
    9.5491   -0.6380   24.1912 C   0  0  0  0  0  0  0  0  0  0  0  0
    7.5337   -6.9256   16.9519 C   0  0  0  0  0  0  0  0  0  0  0  0
    9.6782    0.5671   23.5143 C   0  0  0  0  0  0  0  0  0  0  0  0
    8.4532    0.3482   26.0821 C   0  0  0  0  0  0  0  0  0  0  0  0
   10.4239   -1.7677   22.2230 N   0  0  0  0  0  0  0  0  0  0  0  0
    9.9468   -4.5953   20.1709 C   0  0  0  0  0  0  0  0  0  0  0  0
   10.0366   -3.0590   23.9864 N   0  0  0  0  0  0  0  0  0  0  0  0
    7.1191   -7.3636   15.7739 C   0  0  0  0  0  0  0  0  0  0  0  0
    5.9612   -8.3203   17.2732 N   0  0  0  0  0  0  0  0  0  0  0  0
    8.5296   -5.9814   17.1841 C   0  0  0  0  0  0  0  0  0  0  0  0
    9.1527   -5.2118   16.2116 C   0  0  0  0  0  0  0  0  0  0  0  0
   10.3364   -3.8368   22.9255 O   0  0  0  0  0  0  0  0  0  0  0  0
    9.6947   -4.8407   18.8534 C   0  0  0  0  0  0  0  0  0  0  0  0
    9.1596    1.7042   24.1381 C   0  0  0  0  0  0  0  0  0  0  0  0
   11.0456   -2.9774   18.2694 N   0  0  0  0  0  0  0  0  0  0  0  0
   10.4788   -3.0457   21.8593 C   0  0  0  0  0  0  0  0  0  0  0  0
    8.8693   -5.8099   18.4657 N   0  0  0  0  0  0  0  0  0  0  0  0
    8.9892   -0.7926   25.4573 C   0  0  0  0  0  0  0  0  0  0  0  0
   10.5677   -3.4462   20.5323 C   0  0  0  0  0  0  0  0  0  0  0  0
  1  8  1  0
  1 12  4  0
  1 14  4  0
  2  3  4  0
  2 18  4  0
  3 20  4  0
  3 22  4  0
  4 11  4  0
  4 21  4  0
  5  9  4  0
  5 16  4  0
  6 15  4  0
  6 16  4  0
  7 22  4  0
  7 26  4  0
  8 10  4  0
  8 25  4  0
  9 15  4  0
  9 17  1  0
 10 21  4  0
 11 25  4  0
 12 23  4  0
 13 20  4  0
 13 26  4  0
 14 19  4  0
 17 18  4  0
 17 24  4  0
 19 23  4  0
 20 24  4  0
 23 26  1  0
M  END
$$$$

 Created by Python create_sdf_string function

 26 30  0  0  0  0  0  0  0  0999 V2000
   10.0084   -1.8019   23.4945 C   0  0  0  0  0  0  0  0  0  0  0  0
   10.0005   -4.2520   16.5631 C   0  0  0  0  0  0  0  0  0  0  0  0
   10.2759   -4.0036   17.8845 C   0  0  0  0  0  0  0  0  0  0  0  0
    8.5652    1.5478   25.3778 N   0  0  0  0  0  0  0  0  0  0  0  0
    6.8048   -7.5457   17.8752 C   0  0  0  0  0  0  0  0  0  0  0  0
    6.1721   -8.2186   15.9886 N   0  0  0  0  0  0  0  0  0  0  0  0
   11.1764   -2.6600   19.5604 C   0  0  0  0  0  0  0  0  0  0  0  0
    9.5491   -0.6380   24.1912 C   0  0  0  0  0  0  0  0  0  0  0  0
    7.5337   -6.9256   16.9519 C   0  0  0  0  0  0  0  0  0  0  0  0
    9.6782    0.5671   23.5143 C   0  0  0  0  0  0  0  0  0  0  0  0
    8.4532    0.3482   26.0821 C   0  0  0  0  0  0  0  0  0  0  0  0
   10.4239   -1.7677   22.2230 N   0  0  0  0  0  0  0  0  0  0  0  0
    9.9468   -4.5953   20.1709 C   0  0  0  0  0  0  0  0  0  0  0  0
   10.0366   -3.0590   23.9864 N   0  0  0  0  0  0  0  0  0  0  0  0
    7.1191   -7.3636   15.7739 C   0  0  0  0  0  0  0  0  0  0  0  0
    5.9612   -8.3203   17.2732 N   0  0  0  0  0  0  0  0  0  0  0  0
    8.5296   -5.9814   17.1841 C   0  0  0  0  0  0  0  0  0  0  0  0
    9.1527   -5.2118   16.2116 C   0  0  0  0  0  0  0  0  0  0  0  0
   10.3364   -3.8368   22.9255 O   0  0  0  0  0  0  0  0  0  0  0  0
    9.6947   -4.8407   18.8534 C   0  0  0  0  0  0  0  0  0  0  0  0
    9.1596    1.7042   24.1381 C   0  0  0  0  0  0  0  0  0  0  0  0
   11.0456   -2.9774   18.2694 N   0  0  0  0  0  0  0  0  0  0  0  0
   10.4788   -3.0457   21.8593 C   0  0  0  0  0  0  0  0  0  0  0  0
    8.8693   -5.8099   18.4657 N   0  0  0  0  0  0  0  0  0  0  0  0
    8.9892   -0.7926   25.4573 C   0  0  0  0  0  0  0  0  0  0  0  0
   10.5677   -3.4462   20.5323 C   0  0  0  0  0  0  0  0  0  0  0  0
  1  8  1  0
  1 12  4  0
  1 14  4  0
  2  3  4  0
  2 18  4  0
  3 20  4  0
  3 22  4  0
  4 11  4  0
  4 21  4  0
  5  9  4  0
  5 16  4  0
  6 15  4  0
  6 16  4  0
  7 22  4  0
  7 26  4  0
  8 10  4  0
  8 25  4  0
  9 15  4  0
  9 17  1  0
 10 21  4  0
 11 25  4  0
 12 23  4  0
 13 20  4  0
 13 26  4  0
 14 19  4  0
 17 18  4  0
 17 24  4  0
 19 23  4  0
 20 24  4  0
 23 26  1  0
M  END
$$$$

 Created by Python create_sdf_string function

 26 30  0  0  0  0  0  0  0  0999 V2000
   10.0084   -1.8019   23.4945 C   0  0  0  0  0  0  0  0  0  0  0  0
   10.0005   -4.2520   16.5631 C   0  0  0  0  0  0  0  0  0  0  0  0
   10.2759   -4.0036   17.8845 C   0  0  0  0  0  0  0  0  0  0  0  0
    8.5652    1.5478   25.3778 N   0  0  0  0  0  0  0  0  0  0  0  0
    6.8048   -7.5457   17.8752 C   0  0  0  0  0  0  0  0  0  0  0  0
    6.1721   -8.2186   15.9886 N   0  0  0  0  0  0  0  0  0  0  0  0
   11.1764   -2.6600   19.5604 C   0  0  0  0  0  0  0  0  0  0  0  0
    9.5491   -0.6380   24.1912 C   0  0  0  0  0  0  0  0  0  0  0  0
    7.5337   -6.9256   16.9519 C   0  0  0  0  0  0  0  0  0  0  0  0
    9.6782    0.5671   23.5143 C   0  0  0  0  0  0  0  0  0  0  0  0
    8.4532    0.3482   26.0821 C   0  0  0  0  0  0  0  0  0  0  0  0
   10.4239   -1.7677   22.2230 N   0  0  0  0  0  0  0  0  0  0  0  0
    9.9468   -4.5953   20.1709 C   0  0  0  0  0  0  0  0  0  0  0  0
   10.0366   -3.0590   23.9864 N   0  0  0  0  0  0  0  0  0  0  0  0
    7.1191   -7.3636   15.7739 C   0  0  0  0  0  0  0  0  0  0  0  0
    5.9612   -8.3203   17.2732 N   0  0  0  0  0  0  0  0  0  0  0  0
    8.5296   -5.9814   17.1841 C   0  0  0  0  0  0  0  0  0  0  0  0
    9.1527   -5.2118   16.2116 C   0  0  0  0  0  0  0  0  0  0  0  0
   10.3364   -3.8368   22.9255 O   0  0  0  0  0  0  0  0  0  0  0  0
    9.6947   -4.8407   18.8534 C   0  0  0  0  0  0  0  0  0  0  0  0
    9.1596    1.7042   24.1381 C   0  0  0  0  0  0  0  0  0  0  0  0
   11.0456   -2.9774   18.2694 N   0  0  0  0  0  0  0  0  0  0  0  0
   10.4788   -3.0457   21.8593 C   0  0  0  0  0  0  0  0  0  0  0  0
    8.8693   -5.8099   18.4657 N   0  0  0  0  0  0  0  0  0  0  0  0
    8.9892   -0.7926   25.4573 C   0  0  0  0  0  0  0  0  0  0  0  0
   10.5677   -3.4462   20.5323 C   0  0  0  0  0  0  0  0  0  0  0  0
  1  8  1  0
  1 12  4  0
  1 14  4  0
  2  3  4  0
  2 18  4  0
  3 20  4  0
  3 22  4  0
  4 11  4  0
  4 21  4  0
  5  9  4  0
  5 16  4  0
  6 15  4  0
  6 16  4  0
  7 22  4  0
  7 26  4  0
  8 10  4  0
  8 25  4  0
  9 15  4  0
  9 17  1  0
 10 21  4  0
 11 25  4  0
 12 23  4  0
 13 20  4  0
 13 26  4  0
 14 19  4  0
 17 18  4  0
 17 24  4  0
 19 23  4  0
 20 24  4  0
 23 26  1  0
M  END
$$$$

 Created by Python create_sdf_string function

 26 30  0  0  0  0  0  0  0  0999 V2000
   10.0084   -1.8019   23.4945 C   0  0  0  0  0  0  0  0  0  0  0  0
   10.0005   -4.2520   16.5631 C   0  0  0  0  0  0  0  0  0  0  0  0
   10.2759   -4.0036   17.8845 C   0  0  0  0  0  0  0  0  0  0  0  0
    8.5652    1.5478   25.3778 N   0  0  0  0  0  0  0  0  0  0  0  0
    6.8048   -7.5457   17.8752 C   0  0  0  0  0  0  0  0  0  0  0  0
    6.1721   -8.2186   15.9886 N   0  0  0  0  0  0  0  0  0  0  0  0
   11.1764   -2.6600   19.5604 C   0  0  0  0  0  0  0  0  0  0  0  0
    9.5491   -0.6380   24.1912 C   0  0  0  0  0  0  0  0  0  0  0  0
    7.5337   -6.9256   16.9519 C   0  0  0  0  0  0  0  0  0  0  0  0
    9.6782    0.5671   23.5143 C   0  0  0  0  0  0  0  0  0  0  0  0
    8.4532    0.3482   26.0821 C   0  0  0  0  0  0  0  0  0  0  0  0
   10.4239   -1.7677   22.2230 N   0  0  0  0  0  0  0  0  0  0  0  0
    9.9468   -4.5953   20.1709 C   0  0  0  0  0  0  0  0  0  0  0  0
   10.0366   -3.0590   23.9864 N   0  0  0  0  0  0  0  0  0  0  0  0
    7.1191   -7.3636   15.7739 C   0  0  0  0  0  0  0  0  0  0  0  0
    5.9612   -8.3203   17.2732 N   0  0  0  0  0  0  0  0  0  0  0  0
    8.5296   -5.9814   17.1841 C   0  0  0  0  0  0  0  0  0  0  0  0
    9.1527   -5.2118   16.2116 C   0  0  0  0  0  0  0  0  0  0  0  0
   10.3364   -3.8368   22.9255 O   0  0  0  0  0  0  0  0  0  0  0  0
    9.6947   -4.8407   18.8534 C   0  0  0  0  0  0  0  0  0  0  0  0
    9.1596    1.7042   24.1381 C   0  0  0  0  0  0  0  0  0  0  0  0
   11.0456   -2.9774   18.2694 N   0  0  0  0  0  0  0  0  0  0  0  0
   10.4788   -3.0457   21.8593 C   0  0  0  0  0  0  0  0  0  0  0  0
    8.8693   -5.8099   18.4657 N   0  0  0  0  0  0  0  0  0  0  0  0
    8.9892   -0.7926   25.4573 C   0  0  0  0  0  0  0  0  0  0  0  0
   10.5677   -3.4462   20.5323 C   0  0  0  0  0  0  0  0  0  0  0  0
  1  8  1  0
  1 12  4  0
  1 14  4  0
  2  3  4  0
  2 18  4  0
  3 20  4  0
  3 22  4  0
  4 11  4  0
  4 21  4  0
  5  9  4  0
  5 16  4  0
  6 15  4  0
  6 16  4  0
  7 22  4  0
  7 26  4  0
  8 10  4  0
  8 25  4  0
  9 15  4  0
  9 17  1  0
 10 21  4  0
 11 25  4  0
 12 23  4  0
 13 20  4  0
 13 26  4  0
 14 19  4  0
 17 18  4  0
 17 24  4  0
 19 23  4  0
 20 24  4  0
 23 26  1  0
M  END
$$$$

 Created by Python create_sdf_string function

 26 30  0  0  0  0  0  0  0  0999 V2000
   10.0084   -1.8019   23.4945 C   0  0  0  0  0  0  0  0  0  0  0  0
   10.0005   -4.2520   16.5631 C   0  0  0  0  0  0  0  0  0  0  0  0
   10.2759   -4.0036   17.8845 C   0  0  0  0  0  0  0  0  0  0  0  0
    8.5652    1.5478   25.3778 N   0  0  0  0  0  0  0  0  0  0  0  0
    6.8048   -7.5457   17.8752 C   0  0  0  0  0  0  0  0  0  0  0  0
    6.1721   -8.2186   15.9886 N   0  0  0  0  0  0  0  0  0  0  0  0
   11.1764   -2.6600   19.5604 C   0  0  0  0  0  0  0  0  0  0  0  0
    9.5491   -0.6380   24.1912 C   0  0  0  0  0  0  0  0  0  0  0  0
    7.5337   -6.9256   16.9519 C   0  0  0  0  0  0  0  0  0  0  0  0
    9.6782    0.5671   23.5143 C   0  0  0  0  0  0  0  0  0  0  0  0
    8.4532    0.3482   26.0821 C   0  0  0  0  0  0  0  0  0  0  0  0
   10.4239   -1.7677   22.2230 N   0  0  0  0  0  0  0  0  0  0  0  0
    9.9468   -4.5953   20.1709 C   0  0  0  0  0  0  0  0  0  0  0  0
   10.0366   -3.0590   23.9864 N   0  0  0  0  0  0  0  0  0  0  0  0
    7.1191   -7.3636   15.7739 C   0  0  0  0  0  0  0  0  0  0  0  0
    5.9612   -8.3203   17.2732 N   0  0  0  0  0  0  0  0  0  0  0  0
    8.5296   -5.9814   17.1841 C   0  0  0  0  0  0  0  0  0  0  0  0
    9.1527   -5.2118   16.2116 C   0  0  0  0  0  0  0  0  0  0  0  0
   10.3364   -3.8368   22.9255 O   0  0  0  0  0  0  0  0  0  0  0  0
    9.6947   -4.8407   18.8534 C   0  0  0  0  0  0  0  0  0  0  0  0
    9.1596    1.7042   24.1381 C   0  0  0  0  0  0  0  0  0  0  0  0
   11.0456   -2.9774   18.2694 N   0  0  0  0  0  0  0  0  0  0  0  0
   10.4788   -3.0457   21.8593 C   0  0  0  0  0  0  0  0  0  0  0  0
    8.8693   -5.8099   18.4657 N   0  0  0  0  0  0  0  0  0  0  0  0
    8.9892   -0.7926   25.4573 C   0  0  0  0  0  0  0  0  0  0  0  0
   10.5677   -3.4462   20.5323 C   0  0  0  0  0  0  0  0  0  0  0  0
  1  8  1  0
  1 12  4  0
  1 14  4  0
  2  3  4  0
  2 18  4  0
  3 20  4  0
  3 22  4  0
  4 11  4  0
  4 21  4  0
  5  9  4  0
  5 16  4  0
  6 15  4  0
  6 16  4  0
  7 22  4  0
  7 26  4  0
  8 10  4  0
  8 25  4  0
  9 15  4  0
  9 17  1  0
 10 21  4  0
 11 25  4  0
 12 23  4  0
 13 20  4  0
 13 26  4  0
 14 19  4  0
 17 18  4  0
 17 24  4  0
 19 23  4  0
 20 24  4  0
 23 26  1  0
M  END
$$$$

 Created by Python create_sdf_string function

 26 30  0  0  0  0  0  0  0  0999 V2000
   10.0084   -1.8019   23.4945 C   0  0  0  0  0  0  0  0  0  0  0  0
   10.0005   -4.2520   16.5631 C   0  0  0  0  0  0  0  0  0  0  0  0
   10.2759   -4.0036   17.8845 C   0  0  0  0  0  0  0  0  0  0  0  0
    8.5652    1.5478   25.3778 N   0  0  0  0  0  0  0  0  0  0  0  0
    6.8048   -7.5457   17.8752 C   0  0  0  0  0  0  0  0  0  0  0  0
    6.1721   -8.2186   15.9886 N   0  0  0  0  0  0  0  0  0  0  0  0
   11.1764   -2.6600   19.5604 C   0  0  0  0  0  0  0  0  0  0  0  0
    9.5491   -0.6380   24.1912 C   0  0  0  0  0  0  0  0  0  0  0  0
    7.5337   -6.9256   16.9519 C   0  0  0  0  0  0  0  0  0  0  0  0
    9.6782    0.5671   23.5143 C   0  0  0  0  0  0  0  0  0  0  0  0
    8.4532    0.3482   26.0821 C   0  0  0  0  0  0  0  0  0  0  0  0
   10.4239   -1.7677   22.2230 N   0  0  0  0  0  0  0  0  0  0  0  0
    9.9468   -4.5953   20.1709 C   0  0  0  0  0  0  0  0  0  0  0  0
   10.0366   -3.0590   23.9864 N   0  0  0  0  0  0  0  0  0  0  0  0
    7.1191   -7.3636   15.7739 C   0  0  0  0  0  0  0  0  0  0  0  0
    5.9612   -8.3203   17.2732 N   0  0  0  0  0  0  0  0  0  0  0  0
    8.5296   -5.9814   17.1841 C   0  0  0  0  0  0  0  0  0  0  0  0
    9.1527   -5.2118   16.2116 C   0  0  0  0  0  0  0  0  0  0  0  0
   10.3364   -3.8368   22.9255 O   0  0  0  0  0  0  0  0  0  0  0  0
    9.6947   -4.8407   18.8534 C   0  0  0  0  0  0  0  0  0  0  0  0
    9.1596    1.7042   24.1381 C   0  0  0  0  0  0  0  0  0  0  0  0
   11.0456   -2.9774   18.2694 N   0  0  0  0  0  0  0  0  0  0  0  0
   10.4788   -3.0457   21.8593 C   0  0  0  0  0  0  0  0  0  0  0  0
    8.8693   -5.8099   18.4657 N   0  0  0  0  0  0  0  0  0  0  0  0
    8.9892   -0.7926   25.4573 C   0  0  0  0  0  0  0  0  0  0  0  0
   10.5677   -3.4462   20.5323 C   0  0  0  0  0  0  0  0  0  0  0  0
  1  8  1  0
  1 12  4  0
  1 14  4  0
  2  3  4  0
  2 18  4  0
  3 20  4  0
  3 22  4  0
  4 11  4  0
  4 21  4  0
  5  9  4  0
  5 16  4  0
  6 15  4  0
  6 16  4  0
  7 22  4  0
  7 26  4  0
  8 10  4  0
  8 25  4  0
  9 15  4  0
  9 17  1  0
 10 21  4  0
 11 25  4  0
 12 23  4  0
 13 20  4  0
 13 26  4  0
 14 19  4  0
 17 18  4  0
 17 24  4  0
 19 23  4  0
 20 24  4  0
 23 26  1  0
M  END
$$$$

 Created by Python create_sdf_string function

 26 30  0  0  0  0  0  0  0  0999 V2000
   10.0084   -1.8019   23.4945 C   0  0  0  0  0  0  0  0  0  0  0  0
   10.0005   -4.2520   16.5631 C   0  0  0  0  0  0  0  0  0  0  0  0
   10.2759   -4.0036   17.8845 C   0  0  0  0  0  0  0  0  0  0  0  0
    8.5652    1.5478   25.3778 N   0  0  0  0  0  0  0  0  0  0  0  0
    6.8048   -7.5457   17.8752 C   0  0  0  0  0  0  0  0  0  0  0  0
    6.1721   -8.2186   15.9886 N   0  0  0  0  0  0  0  0  0  0  0  0
   11.1764   -2.6600   19.5604 C   0  0  0  0  0  0  0  0  0  0  0  0
    9.5491   -0.6380   24.1912 C   0  0  0  0  0  0  0  0  0  0  0  0
    7.5337   -6.9256   16.9519 C   0  0  0  0  0  0  0  0  0  0  0  0
    9.6782    0.5671   23.5143 C   0  0  0  0  0  0  0  0  0  0  0  0
    8.4532    0.3482   26.0821 C   0  0  0  0  0  0  0  0  0  0  0  0
   10.4239   -1.7677   22.2230 N   0  0  0  0  0  0  0  0  0  0  0  0
    9.9468   -4.5953   20.1709 C   0  0  0  0  0  0  0  0  0  0  0  0
   10.0366   -3.0590   23.9864 N   0  0  0  0  0  0  0  0  0  0  0  0
    7.1191   -7.3636   15.7739 C   0  0  0  0  0  0  0  0  0  0  0  0
    5.9612   -8.3203   17.2732 N   0  0  0  0  0  0  0  0  0  0  0  0
    8.5296   -5.9814   17.1841 C   0  0  0  0  0  0  0  0  0  0  0  0
    9.1527   -5.2118   16.2116 C   0  0  0  0  0  0  0  0  0  0  0  0
   10.3364   -3.8368   22.9255 O   0  0  0  0  0  0  0  0  0  0  0  0
    9.6947   -4.8407   18.8534 C   0  0  0  0  0  0  0  0  0  0  0  0
    9.1596    1.7042   24.1381 C   0  0  0  0  0  0  0  0  0  0  0  0
   11.0456   -2.9774   18.2694 N   0  0  0  0  0  0  0  0  0  0  0  0
   10.4788   -3.0457   21.8593 C   0  0  0  0  0  0  0  0  0  0  0  0
    8.8693   -5.8099   18.4657 N   0  0  0  0  0  0  0  0  0  0  0  0
    8.9892   -0.7926   25.4573 C   0  0  0  0  0  0  0  0  0  0  0  0
   10.5677   -3.4462   20.5323 C   0  0  0  0  0  0  0  0  0  0  0  0
  1  8  1  0
  1 12  4  0
  1 14  4  0
  2  3  4  0
  2 18  4  0
  3 20  4  0
  3 22  4  0
  4 11  4  0
  4 21  4  0
  5  9  4  0
  5 16  4  0
  6 15  4  0
  6 16  4  0
  7 22  4  0
  7 26  4  0
  8 10  4  0
  8 25  4  0
  9 15  4  0
  9 17  1  0
 10 21  4  0
 11 25  4  0
 12 23  4  0
 13 20  4  0
 13 26  4  0
 14 19  4  0
 17 18  4  0
 17 24  4  0
 19 23  4  0
 20 24  4  0
 23 26  1  0
M  END
$$$$

 Created by Python create_sdf_string function

 26 30  0  0  0  0  0  0  0  0999 V2000
   10.0084   -1.8019   23.4945 C   0  0  0  0  0  0  0  0  0  0  0  0
   10.0005   -4.2520   16.5631 C   0  0  0  0  0  0  0  0  0  0  0  0
   10.2759   -4.0036   17.8845 C   0  0  0  0  0  0  0  0  0  0  0  0
    8.5652    1.5478   25.3778 N   0  0  0  0  0  0  0  0  0  0  0  0
    6.8048   -7.5457   17.8752 C   0  0  0  0  0  0  0  0  0  0  0  0
    6.1721   -8.2186   15.9886 N   0  0  0  0  0  0  0  0  0  0  0  0
   11.1764   -2.6600   19.5604 C   0  0  0  0  0  0  0  0  0  0  0  0
    9.5491   -0.6380   24.1912 C   0  0  0  0  0  0  0  0  0  0  0  0
    7.5337   -6.9256   16.9519 C   0  0  0  0  0  0  0  0  0  0  0  0
    9.6782    0.5671   23.5143 C   0  0  0  0  0  0  0  0  0  0  0  0
    8.4532    0.3482   26.0821 C   0  0  0  0  0  0  0  0  0  0  0  0
   10.4239   -1.7677   22.2230 N   0  0  0  0  0  0  0  0  0  0  0  0
    9.9468   -4.5953   20.1709 C   0  0  0  0  0  0  0  0  0  0  0  0
   10.0366   -3.0590   23.9864 N   0  0  0  0  0  0  0  0  0  0  0  0
    7.1191   -7.3636   15.7739 C   0  0  0  0  0  0  0  0  0  0  0  0
    5.9612   -8.3203   17.2732 N   0  0  0  0  0  0  0  0  0  0  0  0
    8.5296   -5.9814   17.1841 C   0  0  0  0  0  0  0  0  0  0  0  0
    9.1527   -5.2118   16.2116 C   0  0  0  0  0  0  0  0  0  0  0  0
   10.3364   -3.8368   22.9255 O   0  0  0  0  0  0  0  0  0  0  0  0
    9.6947   -4.8407   18.8534 C   0  0  0  0  0  0  0  0  0  0  0  0
    9.1596    1.7042   24.1381 C   0  0  0  0  0  0  0  0  0  0  0  0
   11.0456   -2.9774   18.2694 N   0  0  0  0  0  0  0  0  0  0  0  0
   10.4788   -3.0457   21.8593 C   0  0  0  0  0  0  0  0  0  0  0  0
    8.8693   -5.8099   18.4657 N   0  0  0  0  0  0  0  0  0  0  0  0
    8.9892   -0.7926   25.4573 C   0  0  0  0  0  0  0  0  0  0  0  0
   10.5677   -3.4462   20.5323 C   0  0  0  0  0  0  0  0  0  0  0  0
  1  8  1  0
  1 12  4  0
  1 14  4  0
  2  3  4  0
  2 18  4  0
  3 20  4  0
  3 22  4  0
  4 11  4  0
  4 21  4  0
  5  9  4  0
  5 16  4  0
  6 15  4  0
  6 16  4  0
  7 22  4  0
  7 26  4  0
  8 10  4  0
  8 25  4  0
  9 15  4  0
  9 17  1  0
 10 21  4  0
 11 25  4  0
 12 23  4  0
 13 20  4  0
 13 26  4  0
 14 19  4  0
 17 18  4  0
 17 24  4  0
 19 23  4  0
 20 24  4  0
 23 26  1  0
M  END
$$$$

 Created by Python create_sdf_string function

 26 30  0  0  0  0  0  0  0  0999 V2000
   10.0084   -1.8019   23.4945 C   0  0  0  0  0  0  0  0  0  0  0  0
   10.0005   -4.2520   16.5631 C   0  0  0  0  0  0  0  0  0  0  0  0
   10.2759   -4.0036   17.8845 C   0  0  0  0  0  0  0  0  0  0  0  0
    8.5652    1.5478   25.3778 N   0  0  0  0  0  0  0  0  0  0  0  0
    6.8048   -7.5457   17.8752 C   0  0  0  0  0  0  0  0  0  0  0  0
    6.1721   -8.2186   15.9886 N   0  0  0  0  0  0  0  0  0  0  0  0
   11.1764   -2.6600   19.5604 C   0  0  0  0  0  0  0  0  0  0  0  0
    9.5491   -0.6380   24.1912 C   0  0  0  0  0  0  0  0  0  0  0  0
    7.5337   -6.9256   16.9519 C   0  0  0  0  0  0  0  0  0  0  0  0
    9.6782    0.5671   23.5143 C   0  0  0  0  0  0  0  0  0  0  0  0
    8.4532    0.3482   26.0821 C   0  0  0  0  0  0  0  0  0  0  0  0
   10.4239   -1.7677   22.2230 N   0  0  0  0  0  0  0  0  0  0  0  0
    9.9468   -4.5953   20.1709 C   0  0  0  0  0  0  0  0  0  0  0  0
   10.0366   -3.0590   23.9864 N   0  0  0  0  0  0  0  0  0  0  0  0
    7.1191   -7.3636   15.7739 C   0  0  0  0  0  0  0  0  0  0  0  0
    5.9612   -8.3203   17.2732 N   0  0  0  0  0  0  0  0  0  0  0  0
    8.5296   -5.9814   17.1841 C   0  0  0  0  0  0  0  0  0  0  0  0
    9.1527   -5.2118   16.2116 C   0  0  0  0  0  0  0  0  0  0  0  0
   10.3364   -3.8368   22.9255 O   0  0  0  0  0  0  0  0  0  0  0  0
    9.6947   -4.8407   18.8534 C   0  0  0  0  0  0  0  0  0  0  0  0
    9.1596    1.7042   24.1381 C   0  0  0  0  0  0  0  0  0  0  0  0
   11.0456   -2.9774   18.2694 N   0  0  0  0  0  0  0  0  0  0  0  0
   10.4788   -3.0457   21.8593 C   0  0  0  0  0  0  0  0  0  0  0  0
    8.8693   -5.8099   18.4657 N   0  0  0  0  0  0  0  0  0  0  0  0
    8.9892   -0.7926   25.4573 C   0  0  0  0  0  0  0  0  0  0  0  0
   10.5677   -3.4462   20.5323 C   0  0  0  0  0  0  0  0  0  0  0  0
  1  8  1  0
  1 12  4  0
  1 14  4  0
  2  3  4  0
  2 18  4  0
  3 20  4  0
  3 22  4  0
  4 11  4  0
  4 21  4  0
  5  9  4  0
  5 16  4  0
  6 15  4  0
  6 16  4  0
  7 22  4  0
  7 26  4  0
  8 10  4  0
  8 25  4  0
  9 15  4  0
  9 17  1  0
 10 21  4  0
 11 25  4  0
 12 23  4  0
 13 20  4  0
 13 26  4  0
 14 19  4  0
 17 18  4  0
 17 24  4  0
 19 23  4  0
 20 24  4  0
 23 26  1  0
M  END
$$$$

 Created by Python create_sdf_string function

 26 30  0  0  0  0  0  0  0  0999 V2000
   10.0084   -1.8019   23.4945 C   0  0  0  0  0  0  0  0  0  0  0  0
   10.0005   -4.2520   16.5631 C   0  0  0  0  0  0  0  0  0  0  0  0
   10.2759   -4.0036   17.8845 C   0  0  0  0  0  0  0  0  0  0  0  0
    8.5652    1.5478   25.3778 N   0  0  0  0  0  0  0  0  0  0  0  0
    6.8048   -7.5457   17.8752 C   0  0  0  0  0  0  0  0  0  0  0  0
    6.1721   -8.2186   15.9886 N   0  0  0  0  0  0  0  0  0  0  0  0
   11.1764   -2.6600   19.5604 C   0  0  0  0  0  0  0  0  0  0  0  0
    9.5491   -0.6380   24.1912 C   0  0  0  0  0  0  0  0  0  0  0  0
    7.5337   -6.9256   16.9519 C   0  0  0  0  0  0  0  0  0  0  0  0
    9.6782    0.5671   23.5143 C   0  0  0  0  0  0  0  0  0  0  0  0
    8.4532    0.3482   26.0821 C   0  0  0  0  0  0  0  0  0  0  0  0
   10.4239   -1.7677   22.2230 N   0  0  0  0  0  0  0  0  0  0  0  0
    9.9468   -4.5953   20.1709 C   0  0  0  0  0  0  0  0  0  0  0  0
   10.0366   -3.0590   23.9864 N   0  0  0  0  0  0  0  0  0  0  0  0
    7.1191   -7.3636   15.7739 C   0  0  0  0  0  0  0  0  0  0  0  0
    5.9612   -8.3203   17.2732 N   0  0  0  0  0  0  0  0  0  0  0  0
    8.5296   -5.9814   17.1841 C   0  0  0  0  0  0  0  0  0  0  0  0
    9.1527   -5.2118   16.2116 C   0  0  0  0  0  0  0  0  0  0  0  0
   10.3364   -3.8368   22.9255 O   0  0  0  0  0  0  0  0  0  0  0  0
    9.6947   -4.8407   18.8534 C   0  0  0  0  0  0  0  0  0  0  0  0
    9.1596    1.7042   24.1381 C   0  0  0  0  0  0  0  0  0  0  0  0
   11.0456   -2.9774   18.2694 N   0  0  0  0  0  0  0  0  0  0  0  0
   10.4788   -3.0457   21.8593 C   0  0  0  0  0  0  0  0  0  0  0  0
    8.8693   -5.8099   18.4657 N   0  0  0  0  0  0  0  0  0  0  0  0
    8.9892   -0.7926   25.4573 C   0  0  0  0  0  0  0  0  0  0  0  0
   10.5677   -3.4462   20.5323 C   0  0  0  0  0  0  0  0  0  0  0  0
  1  8  1  0
  1 12  4  0
  1 14  4  0
  2  3  4  0
  2 18  4  0
  3 20  4  0
  3 22  4  0
  4 11  4  0
  4 21  4  0
  5  9  4  0
  5 16  4  0
  6 15  4  0
  6 16  4  0
  7 22  4  0
  7 26  4  0
  8 10  4  0
  8 25  4  0
  9 15  4  0
  9 17  1  0
 10 21  4  0
 11 25  4  0
 12 23  4  0
 13 20  4  0
 13 26  4  0
 14 19  4  0
 17 18  4  0
 17 24  4  0
 19 23  4  0
 20 24  4  0
 23 26  1  0
M  END
$$$$

 Created by Python create_sdf_string function

 26 30  0  0  0  0  0  0  0  0999 V2000
   10.0084   -1.8019   23.4945 C   0  0  0  0  0  0  0  0  0  0  0  0
   10.0005   -4.2520   16.5631 C   0  0  0  0  0  0  0  0  0  0  0  0
   10.2759   -4.0036   17.8845 C   0  0  0  0  0  0  0  0  0  0  0  0
    8.5652    1.5478   25.3778 N   0  0  0  0  0  0  0  0  0  0  0  0
    6.8048   -7.5457   17.8752 C   0  0  0  0  0  0  0  0  0  0  0  0
    6.1721   -8.2186   15.9886 N   0  0  0  0  0  0  0  0  0  0  0  0
   11.1764   -2.6600   19.5604 C   0  0  0  0  0  0  0  0  0  0  0  0
    9.5491   -0.6380   24.1912 C   0  0  0  0  0  0  0  0  0  0  0  0
    7.5337   -6.9256   16.9519 C   0  0  0  0  0  0  0  0  0  0  0  0
    9.6782    0.5671   23.5143 C   0  0  0  0  0  0  0  0  0  0  0  0
    8.4532    0.3482   26.0821 C   0  0  0  0  0  0  0  0  0  0  0  0
   10.4239   -1.7677   22.2230 N   0  0  0  0  0  0  0  0  0  0  0  0
    9.9468   -4.5953   20.1709 C   0  0  0  0  0  0  0  0  0  0  0  0
   10.0366   -3.0590   23.9864 N   0  0  0  0  0  0  0  0  0  0  0  0
    7.1191   -7.3636   15.7739 C   0  0  0  0  0  0  0  0  0  0  0  0
    5.9612   -8.3203   17.2732 N   0  0  0  0  0  0  0  0  0  0  0  0
    8.5296   -5.9814   17.1841 C   0  0  0  0  0  0  0  0  0  0  0  0
    9.1527   -5.2118   16.2116 C   0  0  0  0  0  0  0  0  0  0  0  0
   10.3364   -3.8368   22.9255 O   0  0  0  0  0  0  0  0  0  0  0  0
    9.6947   -4.8407   18.8534 C   0  0  0  0  0  0  0  0  0  0  0  0
    9.1596    1.7042   24.1381 C   0  0  0  0  0  0  0  0  0  0  0  0
   11.0456   -2.9774   18.2694 N   0  0  0  0  0  0  0  0  0  0  0  0
   10.4788   -3.0457   21.8593 C   0  0  0  0  0  0  0  0  0  0  0  0
    8.8693   -5.8099   18.4657 N   0  0  0  0  0  0  0  0  0  0  0  0
    8.9892   -0.7926   25.4573 C   0  0  0  0  0  0  0  0  0  0  0  0
   10.5677   -3.4462   20.5323 C   0  0  0  0  0  0  0  0  0  0  0  0
  1  8  1  0
  1 12  4  0
  1 14  4  0
  2  3  4  0
  2 18  4  0
  3 20  4  0
  3 22  4  0
  4 11  4  0
  4 21  4  0
  5  9  4  0
  5 16  4  0
  6 15  4  0
  6 16  4  0
  7 22  4  0
  7 26  4  0
  8 10  4  0
  8 25  4  0
  9 15  4  0
  9 17  1  0
 10 21  4  0
 11 25  4  0
 12 23  4  0
 13 20  4  0
 13 26  4  0
 14 19  4  0
 17 18  4  0
 17 24  4  0
 19 23  4  0
 20 24  4  0
 23 26  1  0
M  END
$$$$

 Created by Python create_sdf_string function

 26 30  0  0  0  0  0  0  0  0999 V2000
   10.0084   -1.8019   23.4945 C   0  0  0  0  0  0  0  0  0  0  0  0
   10.0005   -4.2520   16.5631 C   0  0  0  0  0  0  0  0  0  0  0  0
   10.2759   -4.0036   17.8845 C   0  0  0  0  0  0  0  0  0  0  0  0
    8.5652    1.5478   25.3778 N   0  0  0  0  0  0  0  0  0  0  0  0
    6.8048   -7.5457   17.8752 C   0  0  0  0  0  0  0  0  0  0  0  0
    6.1721   -8.2186   15.9886 N   0  0  0  0  0  0  0  0  0  0  0  0
   11.1764   -2.6600   19.5604 C   0  0  0  0  0  0  0  0  0  0  0  0
    9.5491   -0.6380   24.1912 C   0  0  0  0  0  0  0  0  0  0  0  0
    7.5337   -6.9256   16.9519 C   0  0  0  0  0  0  0  0  0  0  0  0
    9.6782    0.5671   23.5143 C   0  0  0  0  0  0  0  0  0  0  0  0
    8.4532    0.3482   26.0821 C   0  0  0  0  0  0  0  0  0  0  0  0
   10.4239   -1.7677   22.2230 N   0  0  0  0  0  0  0  0  0  0  0  0
    9.9468   -4.5953   20.1709 C   0  0  0  0  0  0  0  0  0  0  0  0
   10.0366   -3.0590   23.9864 N   0  0  0  0  0  0  0  0  0  0  0  0
    7.1191   -7.3636   15.7739 C   0  0  0  0  0  0  0  0  0  0  0  0
    5.9612   -8.3203   17.2732 N   0  0  0  0  0  0  0  0  0  0  0  0
    8.5296   -5.9814   17.1841 C   0  0  0  0  0  0  0  0  0  0  0  0
    9.1527   -5.2118   16.2116 C   0  0  0  0  0  0  0  0  0  0  0  0
   10.3364   -3.8368   22.9255 O   0  0  0  0  0  0  0  0  0  0  0  0
    9.6947   -4.8407   18.8534 C   0  0  0  0  0  0  0  0  0  0  0  0
    9.1596    1.7042   24.1381 C   0  0  0  0  0  0  0  0  0  0  0  0
   11.0456   -2.9774   18.2694 N   0  0  0  0  0  0  0  0  0  0  0  0
   10.4788   -3.0457   21.8593 C   0  0  0  0  0  0  0  0  0  0  0  0
    8.8693   -5.8099   18.4657 N   0  0  0  0  0  0  0  0  0  0  0  0
    8.9892   -0.7926   25.4573 C   0  0  0  0  0  0  0  0  0  0  0  0
   10.5677   -3.4462   20.5323 C   0  0  0  0  0  0  0  0  0  0  0  0
  1  8  1  0
  1 12  4  0
  1 14  4  0
  2  3  4  0
  2 18  4  0
  3 20  4  0
  3 22  4  0
  4 11  4  0
  4 21  4  0
  5  9  4  0
  5 16  4  0
  6 15  4  0
  6 16  4  0
  7 22  4  0
  7 26  4  0
  8 10  4  0
  8 25  4  0
  9 15  4  0
  9 17  1  0
 10 21  4  0
 11 25  4  0
 12 23  4  0
 13 20  4  0
 13 26  4  0
 14 19  4  0
 17 18  4  0
 17 24  4  0
 19 23  4  0
 20 24  4  0
 23 26  1  0
M  END
$$$$

 Created by Python create_sdf_string function

 26 30  0  0  0  0  0  0  0  0999 V2000
   10.0084   -1.8019   23.4945 C   0  0  0  0  0  0  0  0  0  0  0  0
   10.0005   -4.2520   16.5631 C   0  0  0  0  0  0  0  0  0  0  0  0
   10.2759   -4.0036   17.8845 C   0  0  0  0  0  0  0  0  0  0  0  0
    8.5652    1.5478   25.3778 N   0  0  0  0  0  0  0  0  0  0  0  0
    6.8048   -7.5457   17.8752 C   0  0  0  0  0  0  0  0  0  0  0  0
    6.1721   -8.2186   15.9886 N   0  0  0  0  0  0  0  0  0  0  0  0
   11.1764   -2.6600   19.5604 C   0  0  0  0  0  0  0  0  0  0  0  0
    9.5491   -0.6380   24.1912 C   0  0  0  0  0  0  0  0  0  0  0  0
    7.5337   -6.9256   16.9519 C   0  0  0  0  0  0  0  0  0  0  0  0
    9.6782    0.5671   23.5143 C   0  0  0  0  0  0  0  0  0  0  0  0
    8.4532    0.3482   26.0821 C   0  0  0  0  0  0  0  0  0  0  0  0
   10.4239   -1.7677   22.2230 N   0  0  0  0  0  0  0  0  0  0  0  0
    9.9468   -4.5953   20.1709 C   0  0  0  0  0  0  0  0  0  0  0  0
   10.0366   -3.0590   23.9864 N   0  0  0  0  0  0  0  0  0  0  0  0
    7.1191   -7.3636   15.7739 C   0  0  0  0  0  0  0  0  0  0  0  0
    5.9612   -8.3203   17.2732 N   0  0  0  0  0  0  0  0  0  0  0  0
    8.5296   -5.9814   17.1841 C   0  0  0  0  0  0  0  0  0  0  0  0
    9.1527   -5.2118   16.2116 C   0  0  0  0  0  0  0  0  0  0  0  0
   10.3364   -3.8368   22.9255 O   0  0  0  0  0  0  0  0  0  0  0  0
    9.6947   -4.8407   18.8534 C   0  0  0  0  0  0  0  0  0  0  0  0
    9.1596    1.7042   24.1381 C   0  0  0  0  0  0  0  0  0  0  0  0
   11.0456   -2.9774   18.2694 N   0  0  0  0  0  0  0  0  0  0  0  0
   10.4788   -3.0457   21.8593 C   0  0  0  0  0  0  0  0  0  0  0  0
    8.8693   -5.8099   18.4657 N   0  0  0  0  0  0  0  0  0  0  0  0
    8.9892   -0.7926   25.4573 C   0  0  0  0  0  0  0  0  0  0  0  0
   10.5677   -3.4462   20.5323 C   0  0  0  0  0  0  0  0  0  0  0  0
  1  8  1  0
  1 12  4  0
  1 14  4  0
  2  3  4  0
  2 18  4  0
  3 20  4  0
  3 22  4  0
  4 11  4  0
  4 21  4  0
  5  9  4  0
  5 16  4  0
  6 15  4  0
  6 16  4  0
  7 22  4  0
  7 26  4  0
  8 10  4  0
  8 25  4  0
  9 15  4  0
  9 17  1  0
 10 21  4  0
 11 25  4  0
 12 23  4  0
 13 20  4  0
 13 26  4  0
 14 19  4  0
 17 18  4  0
 17 24  4  0
 19 23  4  0
 20 24  4  0
 23 26  1  0
M  END
$$$$

 Created by Python create_sdf_string function

 26 30  0  0  0  0  0  0  0  0999 V2000
   10.0084   -1.8019   23.4945 C   0  0  0  0  0  0  0  0  0  0  0  0
   10.0005   -4.2520   16.5631 C   0  0  0  0  0  0  0  0  0  0  0  0
   10.2759   -4.0036   17.8845 C   0  0  0  0  0  0  0  0  0  0  0  0
    8.5652    1.5478   25.3778 N   0  0  0  0  0  0  0  0  0  0  0  0
    6.8048   -7.5457   17.8752 C   0  0  0  0  0  0  0  0  0  0  0  0
    6.1721   -8.2186   15.9886 N   0  0  0  0  0  0  0  0  0  0  0  0
   11.1764   -2.6600   19.5604 C   0  0  0  0  0  0  0  0  0  0  0  0
    9.5491   -0.6380   24.1912 C   0  0  0  0  0  0  0  0  0  0  0  0
    7.5337   -6.9256   16.9519 C   0  0  0  0  0  0  0  0  0  0  0  0
    9.6782    0.5671   23.5143 C   0  0  0  0  0  0  0  0  0  0  0  0
    8.4532    0.3482   26.0821 C   0  0  0  0  0  0  0  0  0  0  0  0
   10.4239   -1.7677   22.2230 N   0  0  0  0  0  0  0  0  0  0  0  0
    9.9468   -4.5953   20.1709 C   0  0  0  0  0  0  0  0  0  0  0  0
   10.0366   -3.0590   23.9864 N   0  0  0  0  0  0  0  0  0  0  0  0
    7.1191   -7.3636   15.7739 C   0  0  0  0  0  0  0  0  0  0  0  0
    5.9612   -8.3203   17.2732 N   0  0  0  0  0  0  0  0  0  0  0  0
    8.5296   -5.9814   17.1841 C   0  0  0  0  0  0  0  0  0  0  0  0
    9.1527   -5.2118   16.2116 C   0  0  0  0  0  0  0  0  0  0  0  0
   10.3364   -3.8368   22.9255 O   0  0  0  0  0  0  0  0  0  0  0  0
    9.6947   -4.8407   18.8534 C   0  0  0  0  0  0  0  0  0  0  0  0
    9.1596    1.7042   24.1381 C   0  0  0  0  0  0  0  0  0  0  0  0
   11.0456   -2.9774   18.2694 N   0  0  0  0  0  0  0  0  0  0  0  0
   10.4788   -3.0457   21.8593 C   0  0  0  0  0  0  0  0  0  0  0  0
    8.8693   -5.8099   18.4657 N   0  0  0  0  0  0  0  0  0  0  0  0
    8.9892   -0.7926   25.4573 C   0  0  0  0  0  0  0  0  0  0  0  0
   10.5677   -3.4462   20.5323 C   0  0  0  0  0  0  0  0  0  0  0  0
  1  8  1  0
  1 12  4  0
  1 14  4  0
  2  3  4  0
  2 18  4  0
  3 20  4  0
  3 22  4  0
  4 11  4  0
  4 21  4  0
  5  9  4  0
  5 16  4  0
  6 15  4  0
  6 16  4  0
  7 22  4  0
  7 26  4  0
  8 10  4  0
  8 25  4  0
  9 15  4  0
  9 17  1  0
 10 21  4  0
 11 25  4  0
 12 23  4  0
 13 20  4  0
 13 26  4  0
 14 19  4  0
 17 18  4  0
 17 24  4  0
 19 23  4  0
 20 24  4  0
 23 26  1  0
M  END
$$$$

 Created by Python create_sdf_string function

 26 30  0  0  0  0  0  0  0  0999 V2000
   10.0084   -1.8019   23.4945 C   0  0  0  0  0  0  0  0  0  0  0  0
   10.0005   -4.2520   16.5631 C   0  0  0  0  0  0  0  0  0  0  0  0
   10.2759   -4.0036   17.8845 C   0  0  0  0  0  0  0  0  0  0  0  0
    8.5652    1.5478   25.3778 N   0  0  0  0  0  0  0  0  0  0  0  0
    6.8048   -7.5457   17.8752 C   0  0  0  0  0  0  0  0  0  0  0  0
    6.1721   -8.2186   15.9886 N   0  0  0  0  0  0  0  0  0  0  0  0
   11.1764   -2.6600   19.5604 C   0  0  0  0  0  0  0  0  0  0  0  0
    9.5491   -0.6380   24.1912 C   0  0  0  0  0  0  0  0  0  0  0  0
    7.5337   -6.9256   16.9519 C   0  0  0  0  0  0  0  0  0  0  0  0
    9.6782    0.5671   23.5143 C   0  0  0  0  0  0  0  0  0  0  0  0
    8.4532    0.3482   26.0821 C   0  0  0  0  0  0  0  0  0  0  0  0
   10.4239   -1.7677   22.2230 N   0  0  0  0  0  0  0  0  0  0  0  0
    9.9468   -4.5953   20.1709 C   0  0  0  0  0  0  0  0  0  0  0  0
   10.0366   -3.0590   23.9864 N   0  0  0  0  0  0  0  0  0  0  0  0
    7.1191   -7.3636   15.7739 C   0  0  0  0  0  0  0  0  0  0  0  0
    5.9612   -8.3203   17.2732 N   0  0  0  0  0  0  0  0  0  0  0  0
    8.5296   -5.9814   17.1841 C   0  0  0  0  0  0  0  0  0  0  0  0
    9.1527   -5.2118   16.2116 C   0  0  0  0  0  0  0  0  0  0  0  0
   10.3364   -3.8368   22.9255 O   0  0  0  0  0  0  0  0  0  0  0  0
    9.6947   -4.8407   18.8534 C   0  0  0  0  0  0  0  0  0  0  0  0
    9.1596    1.7042   24.1381 C   0  0  0  0  0  0  0  0  0  0  0  0
   11.0456   -2.9774   18.2694 N   0  0  0  0  0  0  0  0  0  0  0  0
   10.4788   -3.0457   21.8593 C   0  0  0  0  0  0  0  0  0  0  0  0
    8.8693   -5.8099   18.4657 N   0  0  0  0  0  0  0  0  0  0  0  0
    8.9892   -0.7926   25.4573 C   0  0  0  0  0  0  0  0  0  0  0  0
   10.5677   -3.4462   20.5323 C   0  0  0  0  0  0  0  0  0  0  0  0
  1  8  1  0
  1 12  4  0
  1 14  4  0
  2  3  4  0
  2 18  4  0
  3 20  4  0
  3 22  4  0
  4 11  4  0
  4 21  4  0
  5  9  4  0
  5 16  4  0
  6 15  4  0
  6 16  4  0
  7 22  4  0
  7 26  4  0
  8 10  4  0
  8 25  4  0
  9 15  4  0
  9 17  1  0
 10 21  4  0
 11 25  4  0
 12 23  4  0
 13 20  4  0
 13 26  4  0
 14 19  4  0
 17 18  4  0
 17 24  4  0
 19 23  4  0
 20 24  4  0
 23 26  1  0
M  END
$$$$

 Created by Python create_sdf_string function

 26 30  0  0  0  0  0  0  0  0999 V2000
   10.0084   -1.8019   23.4945 C   0  0  0  0  0  0  0  0  0  0  0  0
   10.0005   -4.2520   16.5631 C   0  0  0  0  0  0  0  0  0  0  0  0
   10.2759   -4.0036   17.8845 C   0  0  0  0  0  0  0  0  0  0  0  0
    8.5652    1.5478   25.3778 N   0  0  0  0  0  0  0  0  0  0  0  0
    6.8048   -7.5457   17.8752 C   0  0  0  0  0  0  0  0  0  0  0  0
    6.1721   -8.2186   15.9886 N   0  0  0  0  0  0  0  0  0  0  0  0
   11.1764   -2.6600   19.5604 C   0  0  0  0  0  0  0  0  0  0  0  0
    9.5491   -0.6380   24.1912 C   0  0  0  0  0  0  0  0  0  0  0  0
    7.5337   -6.9256   16.9519 C   0  0  0  0  0  0  0  0  0  0  0  0
    9.6782    0.5671   23.5143 C   0  0  0  0  0  0  0  0  0  0  0  0
    8.4532    0.3482   26.0821 C   0  0  0  0  0  0  0  0  0  0  0  0
   10.4239   -1.7677   22.2230 N   0  0  0  0  0  0  0  0  0  0  0  0
    9.9468   -4.5953   20.1709 C   0  0  0  0  0  0  0  0  0  0  0  0
   10.0366   -3.0590   23.9864 N   0  0  0  0  0  0  0  0  0  0  0  0
    7.1191   -7.3636   15.7739 C   0  0  0  0  0  0  0  0  0  0  0  0
    5.9612   -8.3203   17.2732 N   0  0  0  0  0  0  0  0  0  0  0  0
    8.5296   -5.9814   17.1841 C   0  0  0  0  0  0  0  0  0  0  0  0
    9.1527   -5.2118   16.2116 C   0  0  0  0  0  0  0  0  0  0  0  0
   10.3364   -3.8368   22.9255 O   0  0  0  0  0  0  0  0  0  0  0  0
    9.6947   -4.8407   18.8534 C   0  0  0  0  0  0  0  0  0  0  0  0
    9.1596    1.7042   24.1381 C   0  0  0  0  0  0  0  0  0  0  0  0
   11.0456   -2.9774   18.2694 N   0  0  0  0  0  0  0  0  0  0  0  0
   10.4788   -3.0457   21.8593 C   0  0  0  0  0  0  0  0  0  0  0  0
    8.8693   -5.8099   18.4657 N   0  0  0  0  0  0  0  0  0  0  0  0
    8.9892   -0.7926   25.4573 C   0  0  0  0  0  0  0  0  0  0  0  0
   10.5677   -3.4462   20.5323 C   0  0  0  0  0  0  0  0  0  0  0  0
  1  8  1  0
  1 12  4  0
  1 14  4  0
  2  3  4  0
  2 18  4  0
  3 20  4  0
  3 22  4  0
  4 11  4  0
  4 21  4  0
  5  9  4  0
  5 16  4  0
  6 15  4  0
  6 16  4  0
  7 22  4  0
  7 26  4  0
  8 10  4  0
  8 25  4  0
  9 15  4  0
  9 17  1  0
 10 21  4  0
 11 25  4  0
 12 23  4  0
 13 20  4  0
 13 26  4  0
 14 19  4  0
 17 18  4  0
 17 24  4  0
 19 23  4  0
 20 24  4  0
 23 26  1  0
M  END
$$$$

 Created by Python create_sdf_string function

 26 30  0  0  0  0  0  0  0  0999 V2000
   10.0084   -1.8019   23.4945 C   0  0  0  0  0  0  0  0  0  0  0  0
   10.0005   -4.2520   16.5631 C   0  0  0  0  0  0  0  0  0  0  0  0
   10.2759   -4.0036   17.8845 C   0  0  0  0  0  0  0  0  0  0  0  0
    8.5652    1.5478   25.3778 N   0  0  0  0  0  0  0  0  0  0  0  0
    6.8048   -7.5457   17.8752 C   0  0  0  0  0  0  0  0  0  0  0  0
    6.1721   -8.2186   15.9886 N   0  0  0  0  0  0  0  0  0  0  0  0
   11.1764   -2.6600   19.5604 C   0  0  0  0  0  0  0  0  0  0  0  0
    9.5491   -0.6380   24.1912 C   0  0  0  0  0  0  0  0  0  0  0  0
    7.5337   -6.9256   16.9519 C   0  0  0  0  0  0  0  0  0  0  0  0
    9.6782    0.5671   23.5143 C   0  0  0  0  0  0  0  0  0  0  0  0
    8.4532    0.3482   26.0821 C   0  0  0  0  0  0  0  0  0  0  0  0
   10.4239   -1.7677   22.2230 N   0  0  0  0  0  0  0  0  0  0  0  0
    9.9468   -4.5953   20.1709 C   0  0  0  0  0  0  0  0  0  0  0  0
   10.0366   -3.0590   23.9864 N   0  0  0  0  0  0  0  0  0  0  0  0
    7.1191   -7.3636   15.7739 C   0  0  0  0  0  0  0  0  0  0  0  0
    5.9612   -8.3203   17.2732 N   0  0  0  0  0  0  0  0  0  0  0  0
    8.5296   -5.9814   17.1841 C   0  0  0  0  0  0  0  0  0  0  0  0
    9.1527   -5.2118   16.2116 C   0  0  0  0  0  0  0  0  0  0  0  0
   10.3364   -3.8368   22.9255 O   0  0  0  0  0  0  0  0  0  0  0  0
    9.6947   -4.8407   18.8534 C   0  0  0  0  0  0  0  0  0  0  0  0
    9.1596    1.7042   24.1381 C   0  0  0  0  0  0  0  0  0  0  0  0
   11.0456   -2.9774   18.2694 N   0  0  0  0  0  0  0  0  0  0  0  0
   10.4788   -3.0457   21.8593 C   0  0  0  0  0  0  0  0  0  0  0  0
    8.8693   -5.8099   18.4657 N   0  0  0  0  0  0  0  0  0  0  0  0
    8.9892   -0.7926   25.4573 C   0  0  0  0  0  0  0  0  0  0  0  0
   10.5677   -3.4462   20.5323 C   0  0  0  0  0  0  0  0  0  0  0  0
  1  8  1  0
  1 12  4  0
  1 14  4  0
  2  3  4  0
  2 18  4  0
  3 20  4  0
  3 22  4  0
  4 11  4  0
  4 21  4  0
  5  9  4  0
  5 16  4  0
  6 15  4  0
  6 16  4  0
  7 22  4  0
  7 26  4  0
  8 10  4  0
  8 25  4  0
  9 15  4  0
  9 17  1  0
 10 21  4  0
 11 25  4  0
 12 23  4  0
 13 20  4  0
 13 26  4  0
 14 19  4  0
 17 18  4  0
 17 24  4  0
 19 23  4  0
 20 24  4  0
 23 26  1  0
M  END
$$$$

 Created by Python create_sdf_string function

 26 30  0  0  0  0  0  0  0  0999 V2000
   10.0084   -1.8019   23.4945 C   0  0  0  0  0  0  0  0  0  0  0  0
   10.0005   -4.2520   16.5631 C   0  0  0  0  0  0  0  0  0  0  0  0
   10.2759   -4.0036   17.8845 C   0  0  0  0  0  0  0  0  0  0  0  0
    8.5652    1.5478   25.3778 N   0  0  0  0  0  0  0  0  0  0  0  0
    6.8048   -7.5457   17.8752 C   0  0  0  0  0  0  0  0  0  0  0  0
    6.1721   -8.2186   15.9886 N   0  0  0  0  0  0  0  0  0  0  0  0
   11.1764   -2.6600   19.5604 C   0  0  0  0  0  0  0  0  0  0  0  0
    9.5491   -0.6380   24.1912 C   0  0  0  0  0  0  0  0  0  0  0  0
    7.5337   -6.9256   16.9519 C   0  0  0  0  0  0  0  0  0  0  0  0
    9.6782    0.5671   23.5143 C   0  0  0  0  0  0  0  0  0  0  0  0
    8.4532    0.3482   26.0821 C   0  0  0  0  0  0  0  0  0  0  0  0
   10.4239   -1.7677   22.2230 N   0  0  0  0  0  0  0  0  0  0  0  0
    9.9468   -4.5953   20.1709 C   0  0  0  0  0  0  0  0  0  0  0  0
   10.0366   -3.0590   23.9864 N   0  0  0  0  0  0  0  0  0  0  0  0
    7.1191   -7.3636   15.7739 C   0  0  0  0  0  0  0  0  0  0  0  0
    5.9612   -8.3203   17.2732 N   0  0  0  0  0  0  0  0  0  0  0  0
    8.5296   -5.9814   17.1841 C   0  0  0  0  0  0  0  0  0  0  0  0
    9.1527   -5.2118   16.2116 C   0  0  0  0  0  0  0  0  0  0  0  0
   10.3364   -3.8368   22.9255 O   0  0  0  0  0  0  0  0  0  0  0  0
    9.6947   -4.8407   18.8534 C   0  0  0  0  0  0  0  0  0  0  0  0
    9.1596    1.7042   24.1381 C   0  0  0  0  0  0  0  0  0  0  0  0
   11.0456   -2.9774   18.2694 N   0  0  0  0  0  0  0  0  0  0  0  0
   10.4788   -3.0457   21.8593 C   0  0  0  0  0  0  0  0  0  0  0  0
    8.8693   -5.8099   18.4657 N   0  0  0  0  0  0  0  0  0  0  0  0
    8.9892   -0.7926   25.4573 C   0  0  0  0  0  0  0  0  0  0  0  0
   10.5677   -3.4462   20.5323 C   0  0  0  0  0  0  0  0  0  0  0  0
  1  8  1  0
  1 12  4  0
  1 14  4  0
  2  3  4  0
  2 18  4  0
  3 20  4  0
  3 22  4  0
  4 11  4  0
  4 21  4  0
  5  9  4  0
  5 16  4  0
  6 15  4  0
  6 16  4  0
  7 22  4  0
  7 26  4  0
  8 10  4  0
  8 25  4  0
  9 15  4  0
  9 17  1  0
 10 21  4  0
 11 25  4  0
 12 23  4  0
 13 20  4  0
 13 26  4  0
 14 19  4  0
 17 18  4  0
 17 24  4  0
 19 23  4  0
 20 24  4  0
 23 26  1  0
M  END
$$$$

 Created by Python create_sdf_string function

 26 30  0  0  0  0  0  0  0  0999 V2000
   10.0084   -1.8019   23.4945 C   0  0  0  0  0  0  0  0  0  0  0  0
   10.0005   -4.2520   16.5631 C   0  0  0  0  0  0  0  0  0  0  0  0
   10.2759   -4.0036   17.8845 C   0  0  0  0  0  0  0  0  0  0  0  0
    8.5652    1.5478   25.3778 N   0  0  0  0  0  0  0  0  0  0  0  0
    6.8048   -7.5457   17.8752 C   0  0  0  0  0  0  0  0  0  0  0  0
    6.1721   -8.2186   15.9886 N   0  0  0  0  0  0  0  0  0  0  0  0
   11.1764   -2.6600   19.5604 C   0  0  0  0  0  0  0  0  0  0  0  0
    9.5491   -0.6380   24.1912 C   0  0  0  0  0  0  0  0  0  0  0  0
    7.5337   -6.9256   16.9519 C   0  0  0  0  0  0  0  0  0  0  0  0
    9.6782    0.5671   23.5143 C   0  0  0  0  0  0  0  0  0  0  0  0
    8.4532    0.3482   26.0821 C   0  0  0  0  0  0  0  0  0  0  0  0
   10.4239   -1.7677   22.2230 N   0  0  0  0  0  0  0  0  0  0  0  0
    9.9468   -4.5953   20.1709 C   0  0  0  0  0  0  0  0  0  0  0  0
   10.0366   -3.0590   23.9864 N   0  0  0  0  0  0  0  0  0  0  0  0
    7.1191   -7.3636   15.7739 C   0  0  0  0  0  0  0  0  0  0  0  0
    5.9612   -8.3203   17.2732 N   0  0  0  0  0  0  0  0  0  0  0  0
    8.5296   -5.9814   17.1841 C   0  0  0  0  0  0  0  0  0  0  0  0
    9.1527   -5.2118   16.2116 C   0  0  0  0  0  0  0  0  0  0  0  0
   10.3364   -3.8368   22.9255 O   0  0  0  0  0  0  0  0  0  0  0  0
    9.6947   -4.8407   18.8534 C   0  0  0  0  0  0  0  0  0  0  0  0
    9.1596    1.7042   24.1381 C   0  0  0  0  0  0  0  0  0  0  0  0
   11.0456   -2.9774   18.2694 N   0  0  0  0  0  0  0  0  0  0  0  0
   10.4788   -3.0457   21.8593 C   0  0  0  0  0  0  0  0  0  0  0  0
    8.8693   -5.8099   18.4657 N   0  0  0  0  0  0  0  0  0  0  0  0
    8.9892   -0.7926   25.4573 C   0  0  0  0  0  0  0  0  0  0  0  0
   10.5677   -3.4462   20.5323 C   0  0  0  0  0  0  0  0  0  0  0  0
  1  8  1  0
  1 12  4  0
  1 14  4  0
  2  3  4  0
  2 18  4  0
  3 20  4  0
  3 22  4  0
  4 11  4  0
  4 21  4  0
  5  9  4  0
  5 16  4  0
  6 15  4  0
  6 16  4  0
  7 22  4  0
  7 26  4  0
  8 10  4  0
  8 25  4  0
  9 15  4  0
  9 17  1  0
 10 21  4  0
 11 25  4  0
 12 23  4  0
 13 20  4  0
 13 26  4  0
 14 19  4  0
 17 18  4  0
 17 24  4  0
 19 23  4  0
 20 24  4  0
 23 26  1  0
M  END
$$$$

 Created by Python create_sdf_string function

 26 30  0  0  0  0  0  0  0  0999 V2000
   10.0084   -1.8019   23.4945 C   0  0  0  0  0  0  0  0  0  0  0  0
   10.0005   -4.2520   16.5631 C   0  0  0  0  0  0  0  0  0  0  0  0
   10.2759   -4.0036   17.8845 C   0  0  0  0  0  0  0  0  0  0  0  0
    8.5652    1.5478   25.3778 N   0  0  0  0  0  0  0  0  0  0  0  0
    6.8048   -7.5457   17.8752 C   0  0  0  0  0  0  0  0  0  0  0  0
    6.1721   -8.2186   15.9886 N   0  0  0  0  0  0  0  0  0  0  0  0
   11.1764   -2.6600   19.5604 C   0  0  0  0  0  0  0  0  0  0  0  0
    9.5491   -0.6380   24.1912 C   0  0  0  0  0  0  0  0  0  0  0  0
    7.5337   -6.9256   16.9519 C   0  0  0  0  0  0  0  0  0  0  0  0
    9.6782    0.5671   23.5143 C   0  0  0  0  0  0  0  0  0  0  0  0
    8.4532    0.3482   26.0821 C   0  0  0  0  0  0  0  0  0  0  0  0
   10.4239   -1.7677   22.2230 N   0  0  0  0  0  0  0  0  0  0  0  0
    9.9468   -4.5953   20.1709 C   0  0  0  0  0  0  0  0  0  0  0  0
   10.0366   -3.0590   23.9864 N   0  0  0  0  0  0  0  0  0  0  0  0
    7.1191   -7.3636   15.7739 C   0  0  0  0  0  0  0  0  0  0  0  0
    5.9612   -8.3203   17.2732 N   0  0  0  0  0  0  0  0  0  0  0  0
    8.5296   -5.9814   17.1841 C   0  0  0  0  0  0  0  0  0  0  0  0
    9.1527   -5.2118   16.2116 C   0  0  0  0  0  0  0  0  0  0  0  0
   10.3364   -3.8368   22.9255 O   0  0  0  0  0  0  0  0  0  0  0  0
    9.6947   -4.8407   18.8534 C   0  0  0  0  0  0  0  0  0  0  0  0
    9.1596    1.7042   24.1381 C   0  0  0  0  0  0  0  0  0  0  0  0
   11.0456   -2.9774   18.2694 N   0  0  0  0  0  0  0  0  0  0  0  0
   10.4788   -3.0457   21.8593 C   0  0  0  0  0  0  0  0  0  0  0  0
    8.8693   -5.8099   18.4657 N   0  0  0  0  0  0  0  0  0  0  0  0
    8.9892   -0.7926   25.4573 C   0  0  0  0  0  0  0  0  0  0  0  0
   10.5677   -3.4462   20.5323 C   0  0  0  0  0  0  0  0  0  0  0  0
  1  8  1  0
  1 12  4  0
  1 14  4  0
  2  3  4  0
  2 18  4  0
  3 20  4  0
  3 22  4  0
  4 11  4  0
  4 21  4  0
  5  9  4  0
  5 16  4  0
  6 15  4  0
  6 16  4  0
  7 22  4  0
  7 26  4  0
  8 10  4  0
  8 25  4  0
  9 15  4  0
  9 17  1  0
 10 21  4  0
 11 25  4  0
 12 23  4  0
 13 20  4  0
 13 26  4  0
 14 19  4  0
 17 18  4  0
 17 24  4  0
 19 23  4  0
 20 24  4  0
 23 26  1  0
M  END
$$$$

 Created by Python create_sdf_string function

 26 30  0  0  0  0  0  0  0  0999 V2000
   10.0084   -1.8019   23.4945 C   0  0  0  0  0  0  0  0  0  0  0  0
   10.0005   -4.2520   16.5631 C   0  0  0  0  0  0  0  0  0  0  0  0
   10.2759   -4.0036   17.8845 C   0  0  0  0  0  0  0  0  0  0  0  0
    8.5652    1.5478   25.3778 N   0  0  0  0  0  0  0  0  0  0  0  0
    6.8048   -7.5457   17.8752 C   0  0  0  0  0  0  0  0  0  0  0  0
    6.1721   -8.2186   15.9886 N   0  0  0  0  0  0  0  0  0  0  0  0
   11.1764   -2.6600   19.5604 C   0  0  0  0  0  0  0  0  0  0  0  0
    9.5491   -0.6380   24.1912 C   0  0  0  0  0  0  0  0  0  0  0  0
    7.5337   -6.9256   16.9519 C   0  0  0  0  0  0  0  0  0  0  0  0
    9.6782    0.5671   23.5143 C   0  0  0  0  0  0  0  0  0  0  0  0
    8.4532    0.3482   26.0821 C   0  0  0  0  0  0  0  0  0  0  0  0
   10.4239   -1.7677   22.2230 N   0  0  0  0  0  0  0  0  0  0  0  0
    9.9468   -4.5953   20.1709 C   0  0  0  0  0  0  0  0  0  0  0  0
   10.0366   -3.0590   23.9864 N   0  0  0  0  0  0  0  0  0  0  0  0
    7.1191   -7.3636   15.7739 C   0  0  0  0  0  0  0  0  0  0  0  0
    5.9612   -8.3203   17.2732 N   0  0  0  0  0  0  0  0  0  0  0  0
    8.5296   -5.9814   17.1841 C   0  0  0  0  0  0  0  0  0  0  0  0
    9.1527   -5.2118   16.2116 C   0  0  0  0  0  0  0  0  0  0  0  0
   10.3364   -3.8368   22.9255 O   0  0  0  0  0  0  0  0  0  0  0  0
    9.6947   -4.8407   18.8534 C   0  0  0  0  0  0  0  0  0  0  0  0
    9.1596    1.7042   24.1381 C   0  0  0  0  0  0  0  0  0  0  0  0
   11.0456   -2.9774   18.2694 N   0  0  0  0  0  0  0  0  0  0  0  0
   10.4788   -3.0457   21.8593 C   0  0  0  0  0  0  0  0  0  0  0  0
    8.8693   -5.8099   18.4657 N   0  0  0  0  0  0  0  0  0  0  0  0
    8.9892   -0.7926   25.4573 C   0  0  0  0  0  0  0  0  0  0  0  0
   10.5677   -3.4462   20.5323 C   0  0  0  0  0  0  0  0  0  0  0  0
  1  8  1  0
  1 12  4  0
  1 14  4  0
  2  3  4  0
  2 18  4  0
  3 20  4  0
  3 22  4  0
  4 11  4  0
  4 21  4  0
  5  9  4  0
  5 16  4  0
  6 15  4  0
  6 16  4  0
  7 22  4  0
  7 26  4  0
  8 10  4  0
  8 25  4  0
  9 15  4  0
  9 17  1  0
 10 21  4  0
 11 25  4  0
 12 23  4  0
 13 20  4  0
 13 26  4  0
 14 19  4  0
 17 18  4  0
 17 24  4  0
 19 23  4  0
 20 24  4  0
 23 26  1  0
M  END
$$$$

 Created by Python create_sdf_string function

 26 30  0  0  0  0  0  0  0  0999 V2000
   10.0084   -1.8019   23.4945 C   0  0  0  0  0  0  0  0  0  0  0  0
   10.0005   -4.2520   16.5631 C   0  0  0  0  0  0  0  0  0  0  0  0
   10.2759   -4.0036   17.8845 C   0  0  0  0  0  0  0  0  0  0  0  0
    8.5652    1.5478   25.3778 N   0  0  0  0  0  0  0  0  0  0  0  0
    6.8048   -7.5457   17.8752 C   0  0  0  0  0  0  0  0  0  0  0  0
    6.1721   -8.2186   15.9886 N   0  0  0  0  0  0  0  0  0  0  0  0
   11.1764   -2.6600   19.5604 C   0  0  0  0  0  0  0  0  0  0  0  0
    9.5491   -0.6380   24.1912 C   0  0  0  0  0  0  0  0  0  0  0  0
    7.5337   -6.9256   16.9519 C   0  0  0  0  0  0  0  0  0  0  0  0
    9.6782    0.5671   23.5143 C   0  0  0  0  0  0  0  0  0  0  0  0
    8.4532    0.3482   26.0821 C   0  0  0  0  0  0  0  0  0  0  0  0
   10.4239   -1.7677   22.2230 N   0  0  0  0  0  0  0  0  0  0  0  0
    9.9468   -4.5953   20.1709 C   0  0  0  0  0  0  0  0  0  0  0  0
   10.0366   -3.0590   23.9864 N   0  0  0  0  0  0  0  0  0  0  0  0
    7.1191   -7.3636   15.7739 C   0  0  0  0  0  0  0  0  0  0  0  0
    5.9612   -8.3203   17.2732 N   0  0  0  0  0  0  0  0  0  0  0  0
    8.5296   -5.9814   17.1841 C   0  0  0  0  0  0  0  0  0  0  0  0
    9.1527   -5.2118   16.2116 C   0  0  0  0  0  0  0  0  0  0  0  0
   10.3364   -3.8368   22.9255 O   0  0  0  0  0  0  0  0  0  0  0  0
    9.6947   -4.8407   18.8534 C   0  0  0  0  0  0  0  0  0  0  0  0
    9.1596    1.7042   24.1381 C   0  0  0  0  0  0  0  0  0  0  0  0
   11.0456   -2.9774   18.2694 N   0  0  0  0  0  0  0  0  0  0  0  0
   10.4788   -3.0457   21.8593 C   0  0  0  0  0  0  0  0  0  0  0  0
    8.8693   -5.8099   18.4657 N   0  0  0  0  0  0  0  0  0  0  0  0
    8.9892   -0.7926   25.4573 C   0  0  0  0  0  0  0  0  0  0  0  0
   10.5677   -3.4462   20.5323 C   0  0  0  0  0  0  0  0  0  0  0  0
  1  8  1  0
  1 12  4  0
  1 14  4  0
  2  3  4  0
  2 18  4  0
  3 20  4  0
  3 22  4  0
  4 11  4  0
  4 21  4  0
  5  9  4  0
  5 16  4  0
  6 15  4  0
  6 16  4  0
  7 22  4  0
  7 26  4  0
  8 10  4  0
  8 25  4  0
  9 15  4  0
  9 17  1  0
 10 21  4  0
 11 25  4  0
 12 23  4  0
 13 20  4  0
 13 26  4  0
 14 19  4  0
 17 18  4  0
 17 24  4  0
 19 23  4  0
 20 24  4  0
 23 26  1  0
M  END
$$$$

 Created by Python create_sdf_string function

 26 30  0  0  0  0  0  0  0  0999 V2000
   10.0084   -1.8019   23.4945 C   0  0  0  0  0  0  0  0  0  0  0  0
   10.0005   -4.2520   16.5631 C   0  0  0  0  0  0  0  0  0  0  0  0
   10.2759   -4.0036   17.8845 C   0  0  0  0  0  0  0  0  0  0  0  0
    8.5652    1.5478   25.3778 N   0  0  0  0  0  0  0  0  0  0  0  0
    6.8048   -7.5457   17.8752 C   0  0  0  0  0  0  0  0  0  0  0  0
    6.1721   -8.2186   15.9886 N   0  0  0  0  0  0  0  0  0  0  0  0
   11.1764   -2.6600   19.5604 C   0  0  0  0  0  0  0  0  0  0  0  0
    9.5491   -0.6380   24.1912 C   0  0  0  0  0  0  0  0  0  0  0  0
    7.5337   -6.9256   16.9519 C   0  0  0  0  0  0  0  0  0  0  0  0
    9.6782    0.5671   23.5143 C   0  0  0  0  0  0  0  0  0  0  0  0
    8.4532    0.3482   26.0821 C   0  0  0  0  0  0  0  0  0  0  0  0
   10.4239   -1.7677   22.2230 N   0  0  0  0  0  0  0  0  0  0  0  0
    9.9468   -4.5953   20.1709 C   0  0  0  0  0  0  0  0  0  0  0  0
   10.0366   -3.0590   23.9864 N   0  0  0  0  0  0  0  0  0  0  0  0
    7.1191   -7.3636   15.7739 C   0  0  0  0  0  0  0  0  0  0  0  0
    5.9612   -8.3203   17.2732 N   0  0  0  0  0  0  0  0  0  0  0  0
    8.5296   -5.9814   17.1841 C   0  0  0  0  0  0  0  0  0  0  0  0
    9.1527   -5.2118   16.2116 C   0  0  0  0  0  0  0  0  0  0  0  0
   10.3364   -3.8368   22.9255 O   0  0  0  0  0  0  0  0  0  0  0  0
    9.6947   -4.8407   18.8534 C   0  0  0  0  0  0  0  0  0  0  0  0
    9.1596    1.7042   24.1381 C   0  0  0  0  0  0  0  0  0  0  0  0
   11.0456   -2.9774   18.2694 N   0  0  0  0  0  0  0  0  0  0  0  0
   10.4788   -3.0457   21.8593 C   0  0  0  0  0  0  0  0  0  0  0  0
    8.8693   -5.8099   18.4657 N   0  0  0  0  0  0  0  0  0  0  0  0
    8.9892   -0.7926   25.4573 C   0  0  0  0  0  0  0  0  0  0  0  0
   10.5677   -3.4462   20.5323 C   0  0  0  0  0  0  0  0  0  0  0  0
  1  8  1  0
  1 12  4  0
  1 14  4  0
  2  3  4  0
  2 18  4  0
  3 20  4  0
  3 22  4  0
  4 11  4  0
  4 21  4  0
  5  9  4  0
  5 16  4  0
  6 15  4  0
  6 16  4  0
  7 22  4  0
  7 26  4  0
  8 10  4  0
  8 25  4  0
  9 15  4  0
  9 17  1  0
 10 21  4  0
 11 25  4  0
 12 23  4  0
 13 20  4  0
 13 26  4  0
 14 19  4  0
 17 18  4  0
 17 24  4  0
 19 23  4  0
 20 24  4  0
 23 26  1  0
M  END
$$$$

 Created by Python create_sdf_string function

 26 30  0  0  0  0  0  0  0  0999 V2000
   10.0084   -1.8019   23.4945 C   0  0  0  0  0  0  0  0  0  0  0  0
   10.0005   -4.2520   16.5631 C   0  0  0  0  0  0  0  0  0  0  0  0
   10.2759   -4.0036   17.8845 C   0  0  0  0  0  0  0  0  0  0  0  0
    8.5652    1.5478   25.3778 N   0  0  0  0  0  0  0  0  0  0  0  0
    6.8048   -7.5457   17.8752 C   0  0  0  0  0  0  0  0  0  0  0  0
    6.1721   -8.2186   15.9886 N   0  0  0  0  0  0  0  0  0  0  0  0
   11.1764   -2.6600   19.5604 C   0  0  0  0  0  0  0  0  0  0  0  0
    9.5491   -0.6380   24.1912 C   0  0  0  0  0  0  0  0  0  0  0  0
    7.5337   -6.9256   16.9519 C   0  0  0  0  0  0  0  0  0  0  0  0
    9.6782    0.5671   23.5143 C   0  0  0  0  0  0  0  0  0  0  0  0
    8.4532    0.3482   26.0821 C   0  0  0  0  0  0  0  0  0  0  0  0
   10.4239   -1.7677   22.2230 N   0  0  0  0  0  0  0  0  0  0  0  0
    9.9468   -4.5953   20.1709 C   0  0  0  0  0  0  0  0  0  0  0  0
   10.0366   -3.0590   23.9864 N   0  0  0  0  0  0  0  0  0  0  0  0
    7.1191   -7.3636   15.7739 C   0  0  0  0  0  0  0  0  0  0  0  0
    5.9612   -8.3203   17.2732 N   0  0  0  0  0  0  0  0  0  0  0  0
    8.5296   -5.9814   17.1841 C   0  0  0  0  0  0  0  0  0  0  0  0
    9.1527   -5.2118   16.2116 C   0  0  0  0  0  0  0  0  0  0  0  0
   10.3364   -3.8368   22.9255 O   0  0  0  0  0  0  0  0  0  0  0  0
    9.6947   -4.8407   18.8534 C   0  0  0  0  0  0  0  0  0  0  0  0
    9.1596    1.7042   24.1381 C   0  0  0  0  0  0  0  0  0  0  0  0
   11.0456   -2.9774   18.2694 N   0  0  0  0  0  0  0  0  0  0  0  0
   10.4788   -3.0457   21.8593 C   0  0  0  0  0  0  0  0  0  0  0  0
    8.8693   -5.8099   18.4657 N   0  0  0  0  0  0  0  0  0  0  0  0
    8.9892   -0.7926   25.4573 C   0  0  0  0  0  0  0  0  0  0  0  0
   10.5677   -3.4462   20.5323 C   0  0  0  0  0  0  0  0  0  0  0  0
  1  8  1  0
  1 12  4  0
  1 14  4  0
  2  3  4  0
  2 18  4  0
  3 20  4  0
  3 22  4  0
  4 11  4  0
  4 21  4  0
  5  9  4  0
  5 16  4  0
  6 15  4  0
  6 16  4  0
  7 22  4  0
  7 26  4  0
  8 10  4  0
  8 25  4  0
  9 15  4  0
  9 17  1  0
 10 21  4  0
 11 25  4  0
 12 23  4  0
 13 20  4  0
 13 26  4  0
 14 19  4  0
 17 18  4  0
 17 24  4  0
 19 23  4  0
 20 24  4  0
 23 26  1  0
M  END
$$$$

 Created by Python create_sdf_string function

 26 30  0  0  0  0  0  0  0  0999 V2000
   10.0084   -1.8019   23.4945 C   0  0  0  0  0  0  0  0  0  0  0  0
   10.0005   -4.2520   16.5631 C   0  0  0  0  0  0  0  0  0  0  0  0
   10.2759   -4.0036   17.8845 C   0  0  0  0  0  0  0  0  0  0  0  0
    8.5652    1.5478   25.3778 N   0  0  0  0  0  0  0  0  0  0  0  0
    6.8048   -7.5457   17.8752 C   0  0  0  0  0  0  0  0  0  0  0  0
    6.1721   -8.2186   15.9886 N   0  0  0  0  0  0  0  0  0  0  0  0
   11.1764   -2.6600   19.5604 C   0  0  0  0  0  0  0  0  0  0  0  0
    9.5491   -0.6380   24.1912 C   0  0  0  0  0  0  0  0  0  0  0  0
    7.5337   -6.9256   16.9519 C   0  0  0  0  0  0  0  0  0  0  0  0
    9.6782    0.5671   23.5143 C   0  0  0  0  0  0  0  0  0  0  0  0
    8.4532    0.3482   26.0821 C   0  0  0  0  0  0  0  0  0  0  0  0
   10.4239   -1.7677   22.2230 N   0  0  0  0  0  0  0  0  0  0  0  0
    9.9468   -4.5953   20.1709 C   0  0  0  0  0  0  0  0  0  0  0  0
   10.0366   -3.0590   23.9864 N   0  0  0  0  0  0  0  0  0  0  0  0
    7.1191   -7.3636   15.7739 C   0  0  0  0  0  0  0  0  0  0  0  0
    5.9612   -8.3203   17.2732 N   0  0  0  0  0  0  0  0  0  0  0  0
    8.5296   -5.9814   17.1841 C   0  0  0  0  0  0  0  0  0  0  0  0
    9.1527   -5.2118   16.2116 C   0  0  0  0  0  0  0  0  0  0  0  0
   10.3364   -3.8368   22.9255 O   0  0  0  0  0  0  0  0  0  0  0  0
    9.6947   -4.8407   18.8534 C   0  0  0  0  0  0  0  0  0  0  0  0
    9.1596    1.7042   24.1381 C   0  0  0  0  0  0  0  0  0  0  0  0
   11.0456   -2.9774   18.2694 N   0  0  0  0  0  0  0  0  0  0  0  0
   10.4788   -3.0457   21.8593 C   0  0  0  0  0  0  0  0  0  0  0  0
    8.8693   -5.8099   18.4657 N   0  0  0  0  0  0  0  0  0  0  0  0
    8.9892   -0.7926   25.4573 C   0  0  0  0  0  0  0  0  0  0  0  0
   10.5677   -3.4462   20.5323 C   0  0  0  0  0  0  0  0  0  0  0  0
  1  8  1  0
  1 12  4  0
  1 14  4  0
  2  3  4  0
  2 18  4  0
  3 20  4  0
  3 22  4  0
  4 11  4  0
  4 21  4  0
  5  9  4  0
  5 16  4  0
  6 15  4  0
  6 16  4  0
  7 22  4  0
  7 26  4  0
  8 10  4  0
  8 25  4  0
  9 15  4  0
  9 17  1  0
 10 21  4  0
 11 25  4  0
 12 23  4  0
 13 20  4  0
 13 26  4  0
 14 19  4  0
 17 18  4  0
 17 24  4  0
 19 23  4  0
 20 24  4  0
 23 26  1  0
M  END
$$$$

 Created by Python create_sdf_string function

 26 30  0  0  0  0  0  0  0  0999 V2000
   10.0084   -1.8019   23.4945 C   0  0  0  0  0  0  0  0  0  0  0  0
   10.0005   -4.2520   16.5631 C   0  0  0  0  0  0  0  0  0  0  0  0
   10.2759   -4.0036   17.8845 C   0  0  0  0  0  0  0  0  0  0  0  0
    8.5652    1.5478   25.3778 N   0  0  0  0  0  0  0  0  0  0  0  0
    6.8048   -7.5457   17.8752 C   0  0  0  0  0  0  0  0  0  0  0  0
    6.1721   -8.2186   15.9886 N   0  0  0  0  0  0  0  0  0  0  0  0
   11.1764   -2.6600   19.5604 C   0  0  0  0  0  0  0  0  0  0  0  0
    9.5491   -0.6380   24.1912 C   0  0  0  0  0  0  0  0  0  0  0  0
    7.5337   -6.9256   16.9519 C   0  0  0  0  0  0  0  0  0  0  0  0
    9.6782    0.5671   23.5143 C   0  0  0  0  0  0  0  0  0  0  0  0
    8.4532    0.3482   26.0821 C   0  0  0  0  0  0  0  0  0  0  0  0
   10.4239   -1.7677   22.2230 N   0  0  0  0  0  0  0  0  0  0  0  0
    9.9468   -4.5953   20.1709 C   0  0  0  0  0  0  0  0  0  0  0  0
   10.0366   -3.0590   23.9864 N   0  0  0  0  0  0  0  0  0  0  0  0
    7.1191   -7.3636   15.7739 C   0  0  0  0  0  0  0  0  0  0  0  0
    5.9612   -8.3203   17.2732 N   0  0  0  0  0  0  0  0  0  0  0  0
    8.5296   -5.9814   17.1841 C   0  0  0  0  0  0  0  0  0  0  0  0
    9.1527   -5.2118   16.2116 C   0  0  0  0  0  0  0  0  0  0  0  0
   10.3364   -3.8368   22.9255 O   0  0  0  0  0  0  0  0  0  0  0  0
    9.6947   -4.8407   18.8534 C   0  0  0  0  0  0  0  0  0  0  0  0
    9.1596    1.7042   24.1381 C   0  0  0  0  0  0  0  0  0  0  0  0
   11.0456   -2.9774   18.2694 N   0  0  0  0  0  0  0  0  0  0  0  0
   10.4788   -3.0457   21.8593 C   0  0  0  0  0  0  0  0  0  0  0  0
    8.8693   -5.8099   18.4657 N   0  0  0  0  0  0  0  0  0  0  0  0
    8.9892   -0.7926   25.4573 C   0  0  0  0  0  0  0  0  0  0  0  0
   10.5677   -3.4462   20.5323 C   0  0  0  0  0  0  0  0  0  0  0  0
  1  8  1  0
  1 12  4  0
  1 14  4  0
  2  3  4  0
  2 18  4  0
  3 20  4  0
  3 22  4  0
  4 11  4  0
  4 21  4  0
  5  9  4  0
  5 16  4  0
  6 15  4  0
  6 16  4  0
  7 22  4  0
  7 26  4  0
  8 10  4  0
  8 25  4  0
  9 15  4  0
  9 17  1  0
 10 21  4  0
 11 25  4  0
 12 23  4  0
 13 20  4  0
 13 26  4  0
 14 19  4  0
 17 18  4  0
 17 24  4  0
 19 23  4  0
 20 24  4  0
 23 26  1  0
M  END
$$$$

 Created by Python create_sdf_string function

 26 30  0  0  0  0  0  0  0  0999 V2000
   10.0084   -1.8019   23.4945 C   0  0  0  0  0  0  0  0  0  0  0  0
   10.0005   -4.2520   16.5631 C   0  0  0  0  0  0  0  0  0  0  0  0
   10.2759   -4.0036   17.8845 C   0  0  0  0  0  0  0  0  0  0  0  0
    8.5652    1.5478   25.3778 N   0  0  0  0  0  0  0  0  0  0  0  0
    6.8048   -7.5457   17.8752 C   0  0  0  0  0  0  0  0  0  0  0  0
    6.1721   -8.2186   15.9886 N   0  0  0  0  0  0  0  0  0  0  0  0
   11.1764   -2.6600   19.5604 C   0  0  0  0  0  0  0  0  0  0  0  0
    9.5491   -0.6380   24.1912 C   0  0  0  0  0  0  0  0  0  0  0  0
    7.5337   -6.9256   16.9519 C   0  0  0  0  0  0  0  0  0  0  0  0
    9.6782    0.5671   23.5143 C   0  0  0  0  0  0  0  0  0  0  0  0
    8.4532    0.3482   26.0821 C   0  0  0  0  0  0  0  0  0  0  0  0
   10.4239   -1.7677   22.2230 N   0  0  0  0  0  0  0  0  0  0  0  0
    9.9468   -4.5953   20.1709 C   0  0  0  0  0  0  0  0  0  0  0  0
   10.0366   -3.0590   23.9864 N   0  0  0  0  0  0  0  0  0  0  0  0
    7.1191   -7.3636   15.7739 C   0  0  0  0  0  0  0  0  0  0  0  0
    5.9612   -8.3203   17.2732 N   0  0  0  0  0  0  0  0  0  0  0  0
    8.5296   -5.9814   17.1841 C   0  0  0  0  0  0  0  0  0  0  0  0
    9.1527   -5.2118   16.2116 C   0  0  0  0  0  0  0  0  0  0  0  0
   10.3364   -3.8368   22.9255 O   0  0  0  0  0  0  0  0  0  0  0  0
    9.6947   -4.8407   18.8534 C   0  0  0  0  0  0  0  0  0  0  0  0
    9.1596    1.7042   24.1381 C   0  0  0  0  0  0  0  0  0  0  0  0
   11.0456   -2.9774   18.2694 N   0  0  0  0  0  0  0  0  0  0  0  0
   10.4788   -3.0457   21.8593 C   0  0  0  0  0  0  0  0  0  0  0  0
    8.8693   -5.8099   18.4657 N   0  0  0  0  0  0  0  0  0  0  0  0
    8.9892   -0.7926   25.4573 C   0  0  0  0  0  0  0  0  0  0  0  0
   10.5677   -3.4462   20.5323 C   0  0  0  0  0  0  0  0  0  0  0  0
  1  8  1  0
  1 12  4  0
  1 14  4  0
  2  3  4  0
  2 18  4  0
  3 20  4  0
  3 22  4  0
  4 11  4  0
  4 21  4  0
  5  9  4  0
  5 16  4  0
  6 15  4  0
  6 16  4  0
  7 22  4  0
  7 26  4  0
  8 10  4  0
  8 25  4  0
  9 15  4  0
  9 17  1  0
 10 21  4  0
 11 25  4  0
 12 23  4  0
 13 20  4  0
 13 26  4  0
 14 19  4  0
 17 18  4  0
 17 24  4  0
 19 23  4  0
 20 24  4  0
 23 26  1  0
M  END
$$$$

 Created by Python create_sdf_string function

 26 30  0  0  0  0  0  0  0  0999 V2000
   10.0084   -1.8019   23.4945 C   0  0  0  0  0  0  0  0  0  0  0  0
   10.0005   -4.2520   16.5631 C   0  0  0  0  0  0  0  0  0  0  0  0
   10.2759   -4.0036   17.8845 C   0  0  0  0  0  0  0  0  0  0  0  0
    8.5652    1.5478   25.3778 N   0  0  0  0  0  0  0  0  0  0  0  0
    6.8048   -7.5457   17.8752 C   0  0  0  0  0  0  0  0  0  0  0  0
    6.1721   -8.2186   15.9886 N   0  0  0  0  0  0  0  0  0  0  0  0
   11.1764   -2.6600   19.5604 C   0  0  0  0  0  0  0  0  0  0  0  0
    9.5491   -0.6380   24.1912 C   0  0  0  0  0  0  0  0  0  0  0  0
    7.5337   -6.9256   16.9519 C   0  0  0  0  0  0  0  0  0  0  0  0
    9.6782    0.5671   23.5143 C   0  0  0  0  0  0  0  0  0  0  0  0
    8.4532    0.3482   26.0821 C   0  0  0  0  0  0  0  0  0  0  0  0
   10.4239   -1.7677   22.2230 N   0  0  0  0  0  0  0  0  0  0  0  0
    9.9468   -4.5953   20.1709 C   0  0  0  0  0  0  0  0  0  0  0  0
   10.0366   -3.0590   23.9864 N   0  0  0  0  0  0  0  0  0  0  0  0
    7.1191   -7.3636   15.7739 C   0  0  0  0  0  0  0  0  0  0  0  0
    5.9612   -8.3203   17.2732 N   0  0  0  0  0  0  0  0  0  0  0  0
    8.5296   -5.9814   17.1841 C   0  0  0  0  0  0  0  0  0  0  0  0
    9.1527   -5.2118   16.2116 C   0  0  0  0  0  0  0  0  0  0  0  0
   10.3364   -3.8368   22.9255 O   0  0  0  0  0  0  0  0  0  0  0  0
    9.6947   -4.8407   18.8534 C   0  0  0  0  0  0  0  0  0  0  0  0
    9.1596    1.7042   24.1381 C   0  0  0  0  0  0  0  0  0  0  0  0
   11.0456   -2.9774   18.2694 N   0  0  0  0  0  0  0  0  0  0  0  0
   10.4788   -3.0457   21.8593 C   0  0  0  0  0  0  0  0  0  0  0  0
    8.8693   -5.8099   18.4657 N   0  0  0  0  0  0  0  0  0  0  0  0
    8.9892   -0.7926   25.4573 C   0  0  0  0  0  0  0  0  0  0  0  0
   10.5677   -3.4462   20.5323 C   0  0  0  0  0  0  0  0  0  0  0  0
  1  8  1  0
  1 12  4  0
  1 14  4  0
  2  3  4  0
  2 18  4  0
  3 20  4  0
  3 22  4  0
  4 11  4  0
  4 21  4  0
  5  9  4  0
  5 16  4  0
  6 15  4  0
  6 16  4  0
  7 22  4  0
  7 26  4  0
  8 10  4  0
  8 25  4  0
  9 15  4  0
  9 17  1  0
 10 21  4  0
 11 25  4  0
 12 23  4  0
 13 20  4  0
 13 26  4  0
 14 19  4  0
 17 18  4  0
 17 24  4  0
 19 23  4  0
 20 24  4  0
 23 26  1  0
M  END
$$$$

 Created by Python create_sdf_string function

 26 30  0  0  0  0  0  0  0  0999 V2000
   10.0084   -1.8019   23.4945 C   0  0  0  0  0  0  0  0  0  0  0  0
   10.0005   -4.2520   16.5631 C   0  0  0  0  0  0  0  0  0  0  0  0
   10.2759   -4.0036   17.8845 C   0  0  0  0  0  0  0  0  0  0  0  0
    8.5652    1.5478   25.3778 N   0  0  0  0  0  0  0  0  0  0  0  0
    6.8048   -7.5457   17.8752 C   0  0  0  0  0  0  0  0  0  0  0  0
    6.1721   -8.2186   15.9886 N   0  0  0  0  0  0  0  0  0  0  0  0
   11.1764   -2.6600   19.5604 C   0  0  0  0  0  0  0  0  0  0  0  0
    9.5491   -0.6380   24.1912 C   0  0  0  0  0  0  0  0  0  0  0  0
    7.5337   -6.9256   16.9519 C   0  0  0  0  0  0  0  0  0  0  0  0
    9.6782    0.5671   23.5143 C   0  0  0  0  0  0  0  0  0  0  0  0
    8.4532    0.3482   26.0821 C   0  0  0  0  0  0  0  0  0  0  0  0
   10.4239   -1.7677   22.2230 N   0  0  0  0  0  0  0  0  0  0  0  0
    9.9468   -4.5953   20.1709 C   0  0  0  0  0  0  0  0  0  0  0  0
   10.0366   -3.0590   23.9864 N   0  0  0  0  0  0  0  0  0  0  0  0
    7.1191   -7.3636   15.7739 C   0  0  0  0  0  0  0  0  0  0  0  0
    5.9612   -8.3203   17.2732 N   0  0  0  0  0  0  0  0  0  0  0  0
    8.5296   -5.9814   17.1841 C   0  0  0  0  0  0  0  0  0  0  0  0
    9.1527   -5.2118   16.2116 C   0  0  0  0  0  0  0  0  0  0  0  0
   10.3364   -3.8368   22.9255 O   0  0  0  0  0  0  0  0  0  0  0  0
    9.6947   -4.8407   18.8534 C   0  0  0  0  0  0  0  0  0  0  0  0
    9.1596    1.7042   24.1381 C   0  0  0  0  0  0  0  0  0  0  0  0
   11.0456   -2.9774   18.2694 N   0  0  0  0  0  0  0  0  0  0  0  0
   10.4788   -3.0457   21.8593 C   0  0  0  0  0  0  0  0  0  0  0  0
    8.8693   -5.8099   18.4657 N   0  0  0  0  0  0  0  0  0  0  0  0
    8.9892   -0.7926   25.4573 C   0  0  0  0  0  0  0  0  0  0  0  0
   10.5677   -3.4462   20.5323 C   0  0  0  0  0  0  0  0  0  0  0  0
  1  8  1  0
  1 12  4  0
  1 14  4  0
  2  3  4  0
  2 18  4  0
  3 20  4  0
  3 22  4  0
  4 11  4  0
  4 21  4  0
  5  9  4  0
  5 16  4  0
  6 15  4  0
  6 16  4  0
  7 22  4  0
  7 26  4  0
  8 10  4  0
  8 25  4  0
  9 15  4  0
  9 17  1  0
 10 21  4  0
 11 25  4  0
 12 23  4  0
 13 20  4  0
 13 26  4  0
 14 19  4  0
 17 18  4  0
 17 24  4  0
 19 23  4  0
 20 24  4  0
 23 26  1  0
M  END
$$$$

 Created by Python create_sdf_string function

 26 30  0  0  0  0  0  0  0  0999 V2000
   10.0084   -1.8019   23.4945 C   0  0  0  0  0  0  0  0  0  0  0  0
   10.0005   -4.2520   16.5631 C   0  0  0  0  0  0  0  0  0  0  0  0
   10.2759   -4.0036   17.8845 C   0  0  0  0  0  0  0  0  0  0  0  0
    8.5652    1.5478   25.3778 N   0  0  0  0  0  0  0  0  0  0  0  0
    6.8048   -7.5457   17.8752 C   0  0  0  0  0  0  0  0  0  0  0  0
    6.1721   -8.2186   15.9886 N   0  0  0  0  0  0  0  0  0  0  0  0
   11.1764   -2.6600   19.5604 C   0  0  0  0  0  0  0  0  0  0  0  0
    9.5491   -0.6380   24.1912 C   0  0  0  0  0  0  0  0  0  0  0  0
    7.5337   -6.9256   16.9519 C   0  0  0  0  0  0  0  0  0  0  0  0
    9.6782    0.5671   23.5143 C   0  0  0  0  0  0  0  0  0  0  0  0
    8.4532    0.3482   26.0821 C   0  0  0  0  0  0  0  0  0  0  0  0
   10.4239   -1.7677   22.2230 N   0  0  0  0  0  0  0  0  0  0  0  0
    9.9468   -4.5953   20.1709 C   0  0  0  0  0  0  0  0  0  0  0  0
   10.0366   -3.0590   23.9864 N   0  0  0  0  0  0  0  0  0  0  0  0
    7.1191   -7.3636   15.7739 C   0  0  0  0  0  0  0  0  0  0  0  0
    5.9612   -8.3203   17.2732 N   0  0  0  0  0  0  0  0  0  0  0  0
    8.5296   -5.9814   17.1841 C   0  0  0  0  0  0  0  0  0  0  0  0
    9.1527   -5.2118   16.2116 C   0  0  0  0  0  0  0  0  0  0  0  0
   10.3364   -3.8368   22.9255 O   0  0  0  0  0  0  0  0  0  0  0  0
    9.6947   -4.8407   18.8534 C   0  0  0  0  0  0  0  0  0  0  0  0
    9.1596    1.7042   24.1381 C   0  0  0  0  0  0  0  0  0  0  0  0
   11.0456   -2.9774   18.2694 N   0  0  0  0  0  0  0  0  0  0  0  0
   10.4788   -3.0457   21.8593 C   0  0  0  0  0  0  0  0  0  0  0  0
    8.8693   -5.8099   18.4657 N   0  0  0  0  0  0  0  0  0  0  0  0
    8.9892   -0.7926   25.4573 C   0  0  0  0  0  0  0  0  0  0  0  0
   10.5677   -3.4462   20.5323 C   0  0  0  0  0  0  0  0  0  0  0  0
  1  8  1  0
  1 12  4  0
  1 14  4  0
  2  3  4  0
  2 18  4  0
  3 20  4  0
  3 22  4  0
  4 11  4  0
  4 21  4  0
  5  9  4  0
  5 16  4  0
  6 15  4  0
  6 16  4  0
  7 22  4  0
  7 26  4  0
  8 10  4  0
  8 25  4  0
  9 15  4  0
  9 17  1  0
 10 21  4  0
 11 25  4  0
 12 23  4  0
 13 20  4  0
 13 26  4  0
 14 19  4  0
 17 18  4  0
 17 24  4  0
 19 23  4  0
 20 24  4  0
 23 26  1  0
M  END
$$$$

 Created by Python create_sdf_string function

 26 30  0  0  0  0  0  0  0  0999 V2000
   10.0084   -1.8019   23.4945 C   0  0  0  0  0  0  0  0  0  0  0  0
   10.0005   -4.2520   16.5631 C   0  0  0  0  0  0  0  0  0  0  0  0
   10.2759   -4.0036   17.8845 C   0  0  0  0  0  0  0  0  0  0  0  0
    8.5652    1.5478   25.3778 N   0  0  0  0  0  0  0  0  0  0  0  0
    6.8048   -7.5457   17.8752 C   0  0  0  0  0  0  0  0  0  0  0  0
    6.1721   -8.2186   15.9886 N   0  0  0  0  0  0  0  0  0  0  0  0
   11.1764   -2.6600   19.5604 C   0  0  0  0  0  0  0  0  0  0  0  0
    9.5491   -0.6380   24.1912 C   0  0  0  0  0  0  0  0  0  0  0  0
    7.5337   -6.9256   16.9519 C   0  0  0  0  0  0  0  0  0  0  0  0
    9.6782    0.5671   23.5143 C   0  0  0  0  0  0  0  0  0  0  0  0
    8.4532    0.3482   26.0821 C   0  0  0  0  0  0  0  0  0  0  0  0
   10.4239   -1.7677   22.2230 N   0  0  0  0  0  0  0  0  0  0  0  0
    9.9468   -4.5953   20.1709 C   0  0  0  0  0  0  0  0  0  0  0  0
   10.0366   -3.0590   23.9864 N   0  0  0  0  0  0  0  0  0  0  0  0
    7.1191   -7.3636   15.7739 C   0  0  0  0  0  0  0  0  0  0  0  0
    5.9612   -8.3203   17.2732 N   0  0  0  0  0  0  0  0  0  0  0  0
    8.5296   -5.9814   17.1841 C   0  0  0  0  0  0  0  0  0  0  0  0
    9.1527   -5.2118   16.2116 C   0  0  0  0  0  0  0  0  0  0  0  0
   10.3364   -3.8368   22.9255 O   0  0  0  0  0  0  0  0  0  0  0  0
    9.6947   -4.8407   18.8534 C   0  0  0  0  0  0  0  0  0  0  0  0
    9.1596    1.7042   24.1381 C   0  0  0  0  0  0  0  0  0  0  0  0
   11.0456   -2.9774   18.2694 N   0  0  0  0  0  0  0  0  0  0  0  0
   10.4788   -3.0457   21.8593 C   0  0  0  0  0  0  0  0  0  0  0  0
    8.8693   -5.8099   18.4657 N   0  0  0  0  0  0  0  0  0  0  0  0
    8.9892   -0.7926   25.4573 C   0  0  0  0  0  0  0  0  0  0  0  0
   10.5677   -3.4462   20.5323 C   0  0  0  0  0  0  0  0  0  0  0  0
  1  8  1  0
  1 12  4  0
  1 14  4  0
  2  3  4  0
  2 18  4  0
  3 20  4  0
  3 22  4  0
  4 11  4  0
  4 21  4  0
  5  9  4  0
  5 16  4  0
  6 15  4  0
  6 16  4  0
  7 22  4  0
  7 26  4  0
  8 10  4  0
  8 25  4  0
  9 15  4  0
  9 17  1  0
 10 21  4  0
 11 25  4  0
 12 23  4  0
 13 20  4  0
 13 26  4  0
 14 19  4  0
 17 18  4  0
 17 24  4  0
 19 23  4  0
 20 24  4  0
 23 26  1  0
M  END
$$$$

 Created by Python create_sdf_string function

 26 30  0  0  0  0  0  0  0  0999 V2000
   10.0084   -1.8019   23.4945 C   0  0  0  0  0  0  0  0  0  0  0  0
   10.0005   -4.2520   16.5631 C   0  0  0  0  0  0  0  0  0  0  0  0
   10.2759   -4.0036   17.8845 C   0  0  0  0  0  0  0  0  0  0  0  0
    8.5652    1.5478   25.3778 N   0  0  0  0  0  0  0  0  0  0  0  0
    6.8048   -7.5457   17.8752 C   0  0  0  0  0  0  0  0  0  0  0  0
    6.1721   -8.2186   15.9886 N   0  0  0  0  0  0  0  0  0  0  0  0
   11.1764   -2.6600   19.5604 C   0  0  0  0  0  0  0  0  0  0  0  0
    9.5491   -0.6380   24.1912 C   0  0  0  0  0  0  0  0  0  0  0  0
    7.5337   -6.9256   16.9519 C   0  0  0  0  0  0  0  0  0  0  0  0
    9.6782    0.5671   23.5143 C   0  0  0  0  0  0  0  0  0  0  0  0
    8.4532    0.3482   26.0821 C   0  0  0  0  0  0  0  0  0  0  0  0
   10.4239   -1.7677   22.2230 N   0  0  0  0  0  0  0  0  0  0  0  0
    9.9468   -4.5953   20.1709 C   0  0  0  0  0  0  0  0  0  0  0  0
   10.0366   -3.0590   23.9864 N   0  0  0  0  0  0  0  0  0  0  0  0
    7.1191   -7.3636   15.7739 C   0  0  0  0  0  0  0  0  0  0  0  0
    5.9612   -8.3203   17.2732 N   0  0  0  0  0  0  0  0  0  0  0  0
    8.5296   -5.9814   17.1841 C   0  0  0  0  0  0  0  0  0  0  0  0
    9.1527   -5.2118   16.2116 C   0  0  0  0  0  0  0  0  0  0  0  0
   10.3364   -3.8368   22.9255 O   0  0  0  0  0  0  0  0  0  0  0  0
    9.6947   -4.8407   18.8534 C   0  0  0  0  0  0  0  0  0  0  0  0
    9.1596    1.7042   24.1381 C   0  0  0  0  0  0  0  0  0  0  0  0
   11.0456   -2.9774   18.2694 N   0  0  0  0  0  0  0  0  0  0  0  0
   10.4788   -3.0457   21.8593 C   0  0  0  0  0  0  0  0  0  0  0  0
    8.8693   -5.8099   18.4657 N   0  0  0  0  0  0  0  0  0  0  0  0
    8.9892   -0.7926   25.4573 C   0  0  0  0  0  0  0  0  0  0  0  0
   10.5677   -3.4462   20.5323 C   0  0  0  0  0  0  0  0  0  0  0  0
  1  8  1  0
  1 12  4  0
  1 14  4  0
  2  3  4  0
  2 18  4  0
  3 20  4  0
  3 22  4  0
  4 11  4  0
  4 21  4  0
  5  9  4  0
  5 16  4  0
  6 15  4  0
  6 16  4  0
  7 22  4  0
  7 26  4  0
  8 10  4  0
  8 25  4  0
  9 15  4  0
  9 17  1  0
 10 21  4  0
 11 25  4  0
 12 23  4  0
 13 20  4  0
 13 26  4  0
 14 19  4  0
 17 18  4  0
 17 24  4  0
 19 23  4  0
 20 24  4  0
 23 26  1  0
M  END
$$$$

 Created by Python create_sdf_string function

 26 30  0  0  0  0  0  0  0  0999 V2000
   10.0084   -1.8019   23.4945 C   0  0  0  0  0  0  0  0  0  0  0  0
   10.0005   -4.2520   16.5631 C   0  0  0  0  0  0  0  0  0  0  0  0
   10.2759   -4.0036   17.8845 C   0  0  0  0  0  0  0  0  0  0  0  0
    8.5652    1.5478   25.3778 N   0  0  0  0  0  0  0  0  0  0  0  0
    6.8048   -7.5457   17.8752 C   0  0  0  0  0  0  0  0  0  0  0  0
    6.1721   -8.2186   15.9886 N   0  0  0  0  0  0  0  0  0  0  0  0
   11.1764   -2.6600   19.5604 C   0  0  0  0  0  0  0  0  0  0  0  0
    9.5491   -0.6380   24.1912 C   0  0  0  0  0  0  0  0  0  0  0  0
    7.5337   -6.9256   16.9519 C   0  0  0  0  0  0  0  0  0  0  0  0
    9.6782    0.5671   23.5143 C   0  0  0  0  0  0  0  0  0  0  0  0
    8.4532    0.3482   26.0821 C   0  0  0  0  0  0  0  0  0  0  0  0
   10.4239   -1.7677   22.2230 N   0  0  0  0  0  0  0  0  0  0  0  0
    9.9468   -4.5953   20.1709 C   0  0  0  0  0  0  0  0  0  0  0  0
   10.0366   -3.0590   23.9864 N   0  0  0  0  0  0  0  0  0  0  0  0
    7.1191   -7.3636   15.7739 C   0  0  0  0  0  0  0  0  0  0  0  0
    5.9612   -8.3203   17.2732 N   0  0  0  0  0  0  0  0  0  0  0  0
    8.5296   -5.9814   17.1841 C   0  0  0  0  0  0  0  0  0  0  0  0
    9.1527   -5.2118   16.2116 C   0  0  0  0  0  0  0  0  0  0  0  0
   10.3364   -3.8368   22.9255 O   0  0  0  0  0  0  0  0  0  0  0  0
    9.6947   -4.8407   18.8534 C   0  0  0  0  0  0  0  0  0  0  0  0
    9.1596    1.7042   24.1381 C   0  0  0  0  0  0  0  0  0  0  0  0
   11.0456   -2.9774   18.2694 N   0  0  0  0  0  0  0  0  0  0  0  0
   10.4788   -3.0457   21.8593 C   0  0  0  0  0  0  0  0  0  0  0  0
    8.8693   -5.8099   18.4657 N   0  0  0  0  0  0  0  0  0  0  0  0
    8.9892   -0.7926   25.4573 C   0  0  0  0  0  0  0  0  0  0  0  0
   10.5677   -3.4462   20.5323 C   0  0  0  0  0  0  0  0  0  0  0  0
  1  8  1  0
  1 12  4  0
  1 14  4  0
  2  3  4  0
  2 18  4  0
  3 20  4  0
  3 22  4  0
  4 11  4  0
  4 21  4  0
  5  9  4  0
  5 16  4  0
  6 15  4  0
  6 16  4  0
  7 22  4  0
  7 26  4  0
  8 10  4  0
  8 25  4  0
  9 15  4  0
  9 17  1  0
 10 21  4  0
 11 25  4  0
 12 23  4  0
 13 20  4  0
 13 26  4  0
 14 19  4  0
 17 18  4  0
 17 24  4  0
 19 23  4  0
 20 24  4  0
 23 26  1  0
M  END
$$$$

 Created by Python create_sdf_string function

 26 30  0  0  0  0  0  0  0  0999 V2000
   10.0084   -1.8019   23.4945 C   0  0  0  0  0  0  0  0  0  0  0  0
   10.0005   -4.2520   16.5631 C   0  0  0  0  0  0  0  0  0  0  0  0
   10.2759   -4.0036   17.8845 C   0  0  0  0  0  0  0  0  0  0  0  0
    8.5652    1.5478   25.3778 N   0  0  0  0  0  0  0  0  0  0  0  0
    6.8048   -7.5457   17.8752 C   0  0  0  0  0  0  0  0  0  0  0  0
    6.1721   -8.2186   15.9886 N   0  0  0  0  0  0  0  0  0  0  0  0
   11.1764   -2.6600   19.5604 C   0  0  0  0  0  0  0  0  0  0  0  0
    9.5491   -0.6380   24.1912 C   0  0  0  0  0  0  0  0  0  0  0  0
    7.5337   -6.9256   16.9519 C   0  0  0  0  0  0  0  0  0  0  0  0
    9.6782    0.5671   23.5143 C   0  0  0  0  0  0  0  0  0  0  0  0
    8.4532    0.3482   26.0821 C   0  0  0  0  0  0  0  0  0  0  0  0
   10.4239   -1.7677   22.2230 N   0  0  0  0  0  0  0  0  0  0  0  0
    9.9468   -4.5953   20.1709 C   0  0  0  0  0  0  0  0  0  0  0  0
   10.0366   -3.0590   23.9864 N   0  0  0  0  0  0  0  0  0  0  0  0
    7.1191   -7.3636   15.7739 C   0  0  0  0  0  0  0  0  0  0  0  0
    5.9612   -8.3203   17.2732 N   0  0  0  0  0  0  0  0  0  0  0  0
    8.5296   -5.9814   17.1841 C   0  0  0  0  0  0  0  0  0  0  0  0
    9.1527   -5.2118   16.2116 C   0  0  0  0  0  0  0  0  0  0  0  0
   10.3364   -3.8368   22.9255 O   0  0  0  0  0  0  0  0  0  0  0  0
    9.6947   -4.8407   18.8534 C   0  0  0  0  0  0  0  0  0  0  0  0
    9.1596    1.7042   24.1381 C   0  0  0  0  0  0  0  0  0  0  0  0
   11.0456   -2.9774   18.2694 N   0  0  0  0  0  0  0  0  0  0  0  0
   10.4788   -3.0457   21.8593 C   0  0  0  0  0  0  0  0  0  0  0  0
    8.8693   -5.8099   18.4657 N   0  0  0  0  0  0  0  0  0  0  0  0
    8.9892   -0.7926   25.4573 C   0  0  0  0  0  0  0  0  0  0  0  0
   10.5677   -3.4462   20.5323 C   0  0  0  0  0  0  0  0  0  0  0  0
  1  8  1  0
  1 12  4  0
  1 14  4  0
  2  3  4  0
  2 18  4  0
  3 20  4  0
  3 22  4  0
  4 11  4  0
  4 21  4  0
  5  9  4  0
  5 16  4  0
  6 15  4  0
  6 16  4  0
  7 22  4  0
  7 26  4  0
  8 10  4  0
  8 25  4  0
  9 15  4  0
  9 17  1  0
 10 21  4  0
 11 25  4  0
 12 23  4  0
 13 20  4  0
 13 26  4  0
 14 19  4  0
 17 18  4  0
 17 24  4  0
 19 23  4  0
 20 24  4  0
 23 26  1  0
M  END
$$$$

 Created by Python create_sdf_string function

 26 30  0  0  0  0  0  0  0  0999 V2000
   10.0084   -1.8019   23.4945 C   0  0  0  0  0  0  0  0  0  0  0  0
   10.0005   -4.2520   16.5631 C   0  0  0  0  0  0  0  0  0  0  0  0
   10.2759   -4.0036   17.8845 C   0  0  0  0  0  0  0  0  0  0  0  0
    8.5652    1.5478   25.3778 N   0  0  0  0  0  0  0  0  0  0  0  0
    6.8048   -7.5457   17.8752 C   0  0  0  0  0  0  0  0  0  0  0  0
    6.1721   -8.2186   15.9886 N   0  0  0  0  0  0  0  0  0  0  0  0
   11.1764   -2.6600   19.5604 C   0  0  0  0  0  0  0  0  0  0  0  0
    9.5491   -0.6380   24.1912 C   0  0  0  0  0  0  0  0  0  0  0  0
    7.5337   -6.9256   16.9519 C   0  0  0  0  0  0  0  0  0  0  0  0
    9.6782    0.5671   23.5143 C   0  0  0  0  0  0  0  0  0  0  0  0
    8.4532    0.3482   26.0821 C   0  0  0  0  0  0  0  0  0  0  0  0
   10.4239   -1.7677   22.2230 N   0  0  0  0  0  0  0  0  0  0  0  0
    9.9468   -4.5953   20.1709 C   0  0  0  0  0  0  0  0  0  0  0  0
   10.0366   -3.0590   23.9864 N   0  0  0  0  0  0  0  0  0  0  0  0
    7.1191   -7.3636   15.7739 C   0  0  0  0  0  0  0  0  0  0  0  0
    5.9612   -8.3203   17.2732 N   0  0  0  0  0  0  0  0  0  0  0  0
    8.5296   -5.9814   17.1841 C   0  0  0  0  0  0  0  0  0  0  0  0
    9.1527   -5.2118   16.2116 C   0  0  0  0  0  0  0  0  0  0  0  0
   10.3364   -3.8368   22.9255 O   0  0  0  0  0  0  0  0  0  0  0  0
    9.6947   -4.8407   18.8534 C   0  0  0  0  0  0  0  0  0  0  0  0
    9.1596    1.7042   24.1381 C   0  0  0  0  0  0  0  0  0  0  0  0
   11.0456   -2.9774   18.2694 N   0  0  0  0  0  0  0  0  0  0  0  0
   10.4788   -3.0457   21.8593 C   0  0  0  0  0  0  0  0  0  0  0  0
    8.8693   -5.8099   18.4657 N   0  0  0  0  0  0  0  0  0  0  0  0
    8.9892   -0.7926   25.4573 C   0  0  0  0  0  0  0  0  0  0  0  0
   10.5677   -3.4462   20.5323 C   0  0  0  0  0  0  0  0  0  0  0  0
  1  8  1  0
  1 12  4  0
  1 14  4  0
  2  3  4  0
  2 18  4  0
  3 20  4  0
  3 22  4  0
  4 11  4  0
  4 21  4  0
  5  9  4  0
  5 16  4  0
  6 15  4  0
  6 16  4  0
  7 22  4  0
  7 26  4  0
  8 10  4  0
  8 25  4  0
  9 15  4  0
  9 17  1  0
 10 21  4  0
 11 25  4  0
 12 23  4  0
 13 20  4  0
 13 26  4  0
 14 19  4  0
 17 18  4  0
 17 24  4  0
 19 23  4  0
 20 24  4  0
 23 26  1  0
M  END
$$$$

 Created by Python create_sdf_string function

 26 30  0  0  0  0  0  0  0  0999 V2000
   10.0084   -1.8019   23.4945 C   0  0  0  0  0  0  0  0  0  0  0  0
   10.0005   -4.2520   16.5631 C   0  0  0  0  0  0  0  0  0  0  0  0
   10.2759   -4.0036   17.8845 C   0  0  0  0  0  0  0  0  0  0  0  0
    8.5652    1.5478   25.3778 N   0  0  0  0  0  0  0  0  0  0  0  0
    6.8048   -7.5457   17.8752 C   0  0  0  0  0  0  0  0  0  0  0  0
    6.1721   -8.2186   15.9886 N   0  0  0  0  0  0  0  0  0  0  0  0
   11.1764   -2.6600   19.5604 C   0  0  0  0  0  0  0  0  0  0  0  0
    9.5491   -0.6380   24.1912 C   0  0  0  0  0  0  0  0  0  0  0  0
    7.5337   -6.9256   16.9519 C   0  0  0  0  0  0  0  0  0  0  0  0
    9.6782    0.5671   23.5143 C   0  0  0  0  0  0  0  0  0  0  0  0
    8.4532    0.3482   26.0821 C   0  0  0  0  0  0  0  0  0  0  0  0
   10.4239   -1.7677   22.2230 N   0  0  0  0  0  0  0  0  0  0  0  0
    9.9468   -4.5953   20.1709 C   0  0  0  0  0  0  0  0  0  0  0  0
   10.0366   -3.0590   23.9864 N   0  0  0  0  0  0  0  0  0  0  0  0
    7.1191   -7.3636   15.7739 C   0  0  0  0  0  0  0  0  0  0  0  0
    5.9612   -8.3203   17.2732 N   0  0  0  0  0  0  0  0  0  0  0  0
    8.5296   -5.9814   17.1841 C   0  0  0  0  0  0  0  0  0  0  0  0
    9.1527   -5.2118   16.2116 C   0  0  0  0  0  0  0  0  0  0  0  0
   10.3364   -3.8368   22.9255 O   0  0  0  0  0  0  0  0  0  0  0  0
    9.6947   -4.8407   18.8534 C   0  0  0  0  0  0  0  0  0  0  0  0
    9.1596    1.7042   24.1381 C   0  0  0  0  0  0  0  0  0  0  0  0
   11.0456   -2.9774   18.2694 N   0  0  0  0  0  0  0  0  0  0  0  0
   10.4788   -3.0457   21.8593 C   0  0  0  0  0  0  0  0  0  0  0  0
    8.8693   -5.8099   18.4657 N   0  0  0  0  0  0  0  0  0  0  0  0
    8.9892   -0.7926   25.4573 C   0  0  0  0  0  0  0  0  0  0  0  0
   10.5677   -3.4462   20.5323 C   0  0  0  0  0  0  0  0  0  0  0  0
  1  8  1  0
  1 12  4  0
  1 14  4  0
  2  3  4  0
  2 18  4  0
  3 20  4  0
  3 22  4  0
  4 11  4  0
  4 21  4  0
  5  9  4  0
  5 16  4  0
  6 15  4  0
  6 16  4  0
  7 22  4  0
  7 26  4  0
  8 10  4  0
  8 25  4  0
  9 15  4  0
  9 17  1  0
 10 21  4  0
 11 25  4  0
 12 23  4  0
 13 20  4  0
 13 26  4  0
 14 19  4  0
 17 18  4  0
 17 24  4  0
 19 23  4  0
 20 24  4  0
 23 26  1  0
M  END
$$$$

 Created by Python create_sdf_string function

 26 30  0  0  0  0  0  0  0  0999 V2000
   10.0084   -1.8019   23.4945 C   0  0  0  0  0  0  0  0  0  0  0  0
   10.0005   -4.2520   16.5631 C   0  0  0  0  0  0  0  0  0  0  0  0
   10.2759   -4.0036   17.8845 C   0  0  0  0  0  0  0  0  0  0  0  0
    8.5652    1.5478   25.3778 N   0  0  0  0  0  0  0  0  0  0  0  0
    6.8048   -7.5457   17.8752 C   0  0  0  0  0  0  0  0  0  0  0  0
    6.1721   -8.2186   15.9886 N   0  0  0  0  0  0  0  0  0  0  0  0
   11.1764   -2.6600   19.5604 C   0  0  0  0  0  0  0  0  0  0  0  0
    9.5491   -0.6380   24.1912 C   0  0  0  0  0  0  0  0  0  0  0  0
    7.5337   -6.9256   16.9519 C   0  0  0  0  0  0  0  0  0  0  0  0
    9.6782    0.5671   23.5143 C   0  0  0  0  0  0  0  0  0  0  0  0
    8.4532    0.3482   26.0821 C   0  0  0  0  0  0  0  0  0  0  0  0
   10.4239   -1.7677   22.2230 N   0  0  0  0  0  0  0  0  0  0  0  0
    9.9468   -4.5953   20.1709 C   0  0  0  0  0  0  0  0  0  0  0  0
   10.0366   -3.0590   23.9864 N   0  0  0  0  0  0  0  0  0  0  0  0
    7.1191   -7.3636   15.7739 C   0  0  0  0  0  0  0  0  0  0  0  0
    5.9612   -8.3203   17.2732 N   0  0  0  0  0  0  0  0  0  0  0  0
    8.5296   -5.9814   17.1841 C   0  0  0  0  0  0  0  0  0  0  0  0
    9.1527   -5.2118   16.2116 C   0  0  0  0  0  0  0  0  0  0  0  0
   10.3364   -3.8368   22.9255 O   0  0  0  0  0  0  0  0  0  0  0  0
    9.6947   -4.8407   18.8534 C   0  0  0  0  0  0  0  0  0  0  0  0
    9.1596    1.7042   24.1381 C   0  0  0  0  0  0  0  0  0  0  0  0
   11.0456   -2.9774   18.2694 N   0  0  0  0  0  0  0  0  0  0  0  0
   10.4788   -3.0457   21.8593 C   0  0  0  0  0  0  0  0  0  0  0  0
    8.8693   -5.8099   18.4657 N   0  0  0  0  0  0  0  0  0  0  0  0
    8.9892   -0.7926   25.4573 C   0  0  0  0  0  0  0  0  0  0  0  0
   10.5677   -3.4462   20.5323 C   0  0  0  0  0  0  0  0  0  0  0  0
  1  8  1  0
  1 12  4  0
  1 14  4  0
  2  3  4  0
  2 18  4  0
  3 20  4  0
  3 22  4  0
  4 11  4  0
  4 21  4  0
  5  9  4  0
  5 16  4  0
  6 15  4  0
  6 16  4  0
  7 22  4  0
  7 26  4  0
  8 10  4  0
  8 25  4  0
  9 15  4  0
  9 17  1  0
 10 21  4  0
 11 25  4  0
 12 23  4  0
 13 20  4  0
 13 26  4  0
 14 19  4  0
 17 18  4  0
 17 24  4  0
 19 23  4  0
 20 24  4  0
 23 26  1  0
M  END
$$$$

 Created by Python create_sdf_string function

 26 30  0  0  0  0  0  0  0  0999 V2000
   10.0084   -1.8019   23.4945 C   0  0  0  0  0  0  0  0  0  0  0  0
   10.0005   -4.2520   16.5631 C   0  0  0  0  0  0  0  0  0  0  0  0
   10.2759   -4.0036   17.8845 C   0  0  0  0  0  0  0  0  0  0  0  0
    8.5652    1.5478   25.3778 N   0  0  0  0  0  0  0  0  0  0  0  0
    6.8048   -7.5457   17.8752 C   0  0  0  0  0  0  0  0  0  0  0  0
    6.1721   -8.2186   15.9886 N   0  0  0  0  0  0  0  0  0  0  0  0
   11.1764   -2.6600   19.5604 C   0  0  0  0  0  0  0  0  0  0  0  0
    9.5491   -0.6380   24.1912 C   0  0  0  0  0  0  0  0  0  0  0  0
    7.5337   -6.9256   16.9519 C   0  0  0  0  0  0  0  0  0  0  0  0
    9.6782    0.5671   23.5143 C   0  0  0  0  0  0  0  0  0  0  0  0
    8.4532    0.3482   26.0821 C   0  0  0  0  0  0  0  0  0  0  0  0
   10.4239   -1.7677   22.2230 N   0  0  0  0  0  0  0  0  0  0  0  0
    9.9468   -4.5953   20.1709 C   0  0  0  0  0  0  0  0  0  0  0  0
   10.0366   -3.0590   23.9864 N   0  0  0  0  0  0  0  0  0  0  0  0
    7.1191   -7.3636   15.7739 C   0  0  0  0  0  0  0  0  0  0  0  0
    5.9612   -8.3203   17.2732 N   0  0  0  0  0  0  0  0  0  0  0  0
    8.5296   -5.9814   17.1841 C   0  0  0  0  0  0  0  0  0  0  0  0
    9.1527   -5.2118   16.2116 C   0  0  0  0  0  0  0  0  0  0  0  0
   10.3364   -3.8368   22.9255 O   0  0  0  0  0  0  0  0  0  0  0  0
    9.6947   -4.8407   18.8534 C   0  0  0  0  0  0  0  0  0  0  0  0
    9.1596    1.7042   24.1381 C   0  0  0  0  0  0  0  0  0  0  0  0
   11.0456   -2.9774   18.2694 N   0  0  0  0  0  0  0  0  0  0  0  0
   10.4788   -3.0457   21.8593 C   0  0  0  0  0  0  0  0  0  0  0  0
    8.8693   -5.8099   18.4657 N   0  0  0  0  0  0  0  0  0  0  0  0
    8.9892   -0.7926   25.4573 C   0  0  0  0  0  0  0  0  0  0  0  0
   10.5677   -3.4462   20.5323 C   0  0  0  0  0  0  0  0  0  0  0  0
  1  8  1  0
  1 12  4  0
  1 14  4  0
  2  3  4  0
  2 18  4  0
  3 20  4  0
  3 22  4  0
  4 11  4  0
  4 21  4  0
  5  9  4  0
  5 16  4  0
  6 15  4  0
  6 16  4  0
  7 22  4  0
  7 26  4  0
  8 10  4  0
  8 25  4  0
  9 15  4  0
  9 17  1  0
 10 21  4  0
 11 25  4  0
 12 23  4  0
 13 20  4  0
 13 26  4  0
 14 19  4  0
 17 18  4  0
 17 24  4  0
 19 23  4  0
 20 24  4  0
 23 26  1  0
M  END
$$$$

 Created by Python create_sdf_string function

 26 30  0  0  0  0  0  0  0  0999 V2000
   10.0084   -1.8019   23.4945 C   0  0  0  0  0  0  0  0  0  0  0  0
   10.0005   -4.2520   16.5631 C   0  0  0  0  0  0  0  0  0  0  0  0
   10.2759   -4.0036   17.8845 C   0  0  0  0  0  0  0  0  0  0  0  0
    8.5652    1.5478   25.3778 N   0  0  0  0  0  0  0  0  0  0  0  0
    6.8048   -7.5457   17.8752 C   0  0  0  0  0  0  0  0  0  0  0  0
    6.1721   -8.2186   15.9886 N   0  0  0  0  0  0  0  0  0  0  0  0
   11.1764   -2.6600   19.5604 C   0  0  0  0  0  0  0  0  0  0  0  0
    9.5491   -0.6380   24.1912 C   0  0  0  0  0  0  0  0  0  0  0  0
    7.5337   -6.9256   16.9519 C   0  0  0  0  0  0  0  0  0  0  0  0
    9.6782    0.5671   23.5143 C   0  0  0  0  0  0  0  0  0  0  0  0
    8.4532    0.3482   26.0821 C   0  0  0  0  0  0  0  0  0  0  0  0
   10.4239   -1.7677   22.2230 N   0  0  0  0  0  0  0  0  0  0  0  0
    9.9468   -4.5953   20.1709 C   0  0  0  0  0  0  0  0  0  0  0  0
   10.0366   -3.0590   23.9864 N   0  0  0  0  0  0  0  0  0  0  0  0
    7.1191   -7.3636   15.7739 C   0  0  0  0  0  0  0  0  0  0  0  0
    5.9612   -8.3203   17.2732 N   0  0  0  0  0  0  0  0  0  0  0  0
    8.5296   -5.9814   17.1841 C   0  0  0  0  0  0  0  0  0  0  0  0
    9.1527   -5.2118   16.2116 C   0  0  0  0  0  0  0  0  0  0  0  0
   10.3364   -3.8368   22.9255 O   0  0  0  0  0  0  0  0  0  0  0  0
    9.6947   -4.8407   18.8534 C   0  0  0  0  0  0  0  0  0  0  0  0
    9.1596    1.7042   24.1381 C   0  0  0  0  0  0  0  0  0  0  0  0
   11.0456   -2.9774   18.2694 N   0  0  0  0  0  0  0  0  0  0  0  0
   10.4788   -3.0457   21.8593 C   0  0  0  0  0  0  0  0  0  0  0  0
    8.8693   -5.8099   18.4657 N   0  0  0  0  0  0  0  0  0  0  0  0
    8.9892   -0.7926   25.4573 C   0  0  0  0  0  0  0  0  0  0  0  0
   10.5677   -3.4462   20.5323 C   0  0  0  0  0  0  0  0  0  0  0  0
  1  8  1  0
  1 12  4  0
  1 14  4  0
  2  3  4  0
  2 18  4  0
  3 20  4  0
  3 22  4  0
  4 11  4  0
  4 21  4  0
  5  9  4  0
  5 16  4  0
  6 15  4  0
  6 16  4  0
  7 22  4  0
  7 26  4  0
  8 10  4  0
  8 25  4  0
  9 15  4  0
  9 17  1  0
 10 21  4  0
 11 25  4  0
 12 23  4  0
 13 20  4  0
 13 26  4  0
 14 19  4  0
 17 18  4  0
 17 24  4  0
 19 23  4  0
 20 24  4  0
 23 26  1  0
M  END
$$$$

 Created by Python create_sdf_string function

 26 30  0  0  0  0  0  0  0  0999 V2000
   10.0084   -1.8019   23.4945 C   0  0  0  0  0  0  0  0  0  0  0  0
   10.0005   -4.2520   16.5631 C   0  0  0  0  0  0  0  0  0  0  0  0
   10.2759   -4.0036   17.8845 C   0  0  0  0  0  0  0  0  0  0  0  0
    8.5652    1.5478   25.3778 N   0  0  0  0  0  0  0  0  0  0  0  0
    6.8048   -7.5457   17.8752 C   0  0  0  0  0  0  0  0  0  0  0  0
    6.1721   -8.2186   15.9886 N   0  0  0  0  0  0  0  0  0  0  0  0
   11.1764   -2.6600   19.5604 C   0  0  0  0  0  0  0  0  0  0  0  0
    9.5491   -0.6380   24.1912 C   0  0  0  0  0  0  0  0  0  0  0  0
    7.5337   -6.9256   16.9519 C   0  0  0  0  0  0  0  0  0  0  0  0
    9.6782    0.5671   23.5143 C   0  0  0  0  0  0  0  0  0  0  0  0
    8.4532    0.3482   26.0821 C   0  0  0  0  0  0  0  0  0  0  0  0
   10.4239   -1.7677   22.2230 N   0  0  0  0  0  0  0  0  0  0  0  0
    9.9468   -4.5953   20.1709 C   0  0  0  0  0  0  0  0  0  0  0  0
   10.0366   -3.0590   23.9864 N   0  0  0  0  0  0  0  0  0  0  0  0
    7.1191   -7.3636   15.7739 C   0  0  0  0  0  0  0  0  0  0  0  0
    5.9612   -8.3203   17.2732 N   0  0  0  0  0  0  0  0  0  0  0  0
    8.5296   -5.9814   17.1841 C   0  0  0  0  0  0  0  0  0  0  0  0
    9.1527   -5.2118   16.2116 C   0  0  0  0  0  0  0  0  0  0  0  0
   10.3364   -3.8368   22.9255 O   0  0  0  0  0  0  0  0  0  0  0  0
    9.6947   -4.8407   18.8534 C   0  0  0  0  0  0  0  0  0  0  0  0
    9.1596    1.7042   24.1381 C   0  0  0  0  0  0  0  0  0  0  0  0
   11.0456   -2.9774   18.2694 N   0  0  0  0  0  0  0  0  0  0  0  0
   10.4788   -3.0457   21.8593 C   0  0  0  0  0  0  0  0  0  0  0  0
    8.8693   -5.8099   18.4657 N   0  0  0  0  0  0  0  0  0  0  0  0
    8.9892   -0.7926   25.4573 C   0  0  0  0  0  0  0  0  0  0  0  0
   10.5677   -3.4462   20.5323 C   0  0  0  0  0  0  0  0  0  0  0  0
  1  8  1  0
  1 12  4  0
  1 14  4  0
  2  3  4  0
  2 18  4  0
  3 20  4  0
  3 22  4  0
  4 11  4  0
  4 21  4  0
  5  9  4  0
  5 16  4  0
  6 15  4  0
  6 16  4  0
  7 22  4  0
  7 26  4  0
  8 10  4  0
  8 25  4  0
  9 15  4  0
  9 17  1  0
 10 21  4  0
 11 25  4  0
 12 23  4  0
 13 20  4  0
 13 26  4  0
 14 19  4  0
 17 18  4  0
 17 24  4  0
 19 23  4  0
 20 24  4  0
 23 26  1  0
M  END
$$$$

 Created by Python create_sdf_string function

 26 30  0  0  0  0  0  0  0  0999 V2000
   10.0084   -1.8019   23.4945 C   0  0  0  0  0  0  0  0  0  0  0  0
   10.0005   -4.2520   16.5631 C   0  0  0  0  0  0  0  0  0  0  0  0
   10.2759   -4.0036   17.8845 C   0  0  0  0  0  0  0  0  0  0  0  0
    8.5652    1.5478   25.3778 N   0  0  0  0  0  0  0  0  0  0  0  0
    6.8048   -7.5457   17.8752 C   0  0  0  0  0  0  0  0  0  0  0  0
    6.1721   -8.2186   15.9886 N   0  0  0  0  0  0  0  0  0  0  0  0
   11.1764   -2.6600   19.5604 C   0  0  0  0  0  0  0  0  0  0  0  0
    9.5491   -0.6380   24.1912 C   0  0  0  0  0  0  0  0  0  0  0  0
    7.5337   -6.9256   16.9519 C   0  0  0  0  0  0  0  0  0  0  0  0
    9.6782    0.5671   23.5143 C   0  0  0  0  0  0  0  0  0  0  0  0
    8.4532    0.3482   26.0821 C   0  0  0  0  0  0  0  0  0  0  0  0
   10.4239   -1.7677   22.2230 N   0  0  0  0  0  0  0  0  0  0  0  0
    9.9468   -4.5953   20.1709 C   0  0  0  0  0  0  0  0  0  0  0  0
   10.0366   -3.0590   23.9864 N   0  0  0  0  0  0  0  0  0  0  0  0
    7.1191   -7.3636   15.7739 C   0  0  0  0  0  0  0  0  0  0  0  0
    5.9612   -8.3203   17.2732 N   0  0  0  0  0  0  0  0  0  0  0  0
    8.5296   -5.9814   17.1841 C   0  0  0  0  0  0  0  0  0  0  0  0
    9.1527   -5.2118   16.2116 C   0  0  0  0  0  0  0  0  0  0  0  0
   10.3364   -3.8368   22.9255 O   0  0  0  0  0  0  0  0  0  0  0  0
    9.6947   -4.8407   18.8534 C   0  0  0  0  0  0  0  0  0  0  0  0
    9.1596    1.7042   24.1381 C   0  0  0  0  0  0  0  0  0  0  0  0
   11.0456   -2.9774   18.2694 N   0  0  0  0  0  0  0  0  0  0  0  0
   10.4788   -3.0457   21.8593 C   0  0  0  0  0  0  0  0  0  0  0  0
    8.8693   -5.8099   18.4657 N   0  0  0  0  0  0  0  0  0  0  0  0
    8.9892   -0.7926   25.4573 C   0  0  0  0  0  0  0  0  0  0  0  0
   10.5677   -3.4462   20.5323 C   0  0  0  0  0  0  0  0  0  0  0  0
  1  8  1  0
  1 12  4  0
  1 14  4  0
  2  3  4  0
  2 18  4  0
  3 20  4  0
  3 22  4  0
  4 11  4  0
  4 21  4  0
  5  9  4  0
  5 16  4  0
  6 15  4  0
  6 16  4  0
  7 22  4  0
  7 26  4  0
  8 10  4  0
  8 25  4  0
  9 15  4  0
  9 17  1  0
 10 21  4  0
 11 25  4  0
 12 23  4  0
 13 20  4  0
 13 26  4  0
 14 19  4  0
 17 18  4  0
 17 24  4  0
 19 23  4  0
 20 24  4  0
 23 26  1  0
M  END
$$$$

 Created by Python create_sdf_string function

 26 30  0  0  0  0  0  0  0  0999 V2000
   10.0084   -1.8019   23.4945 C   0  0  0  0  0  0  0  0  0  0  0  0
   10.0005   -4.2520   16.5631 C   0  0  0  0  0  0  0  0  0  0  0  0
   10.2759   -4.0036   17.8845 C   0  0  0  0  0  0  0  0  0  0  0  0
    8.5652    1.5478   25.3778 N   0  0  0  0  0  0  0  0  0  0  0  0
    6.8048   -7.5457   17.8752 C   0  0  0  0  0  0  0  0  0  0  0  0
    6.1721   -8.2186   15.9886 N   0  0  0  0  0  0  0  0  0  0  0  0
   11.1764   -2.6600   19.5604 C   0  0  0  0  0  0  0  0  0  0  0  0
    9.5491   -0.6380   24.1912 C   0  0  0  0  0  0  0  0  0  0  0  0
    7.5337   -6.9256   16.9519 C   0  0  0  0  0  0  0  0  0  0  0  0
    9.6782    0.5671   23.5143 C   0  0  0  0  0  0  0  0  0  0  0  0
    8.4532    0.3482   26.0821 C   0  0  0  0  0  0  0  0  0  0  0  0
   10.4239   -1.7677   22.2230 N   0  0  0  0  0  0  0  0  0  0  0  0
    9.9468   -4.5953   20.1709 C   0  0  0  0  0  0  0  0  0  0  0  0
   10.0366   -3.0590   23.9864 N   0  0  0  0  0  0  0  0  0  0  0  0
    7.1191   -7.3636   15.7739 C   0  0  0  0  0  0  0  0  0  0  0  0
    5.9612   -8.3203   17.2732 N   0  0  0  0  0  0  0  0  0  0  0  0
    8.5296   -5.9814   17.1841 C   0  0  0  0  0  0  0  0  0  0  0  0
    9.1527   -5.2118   16.2116 C   0  0  0  0  0  0  0  0  0  0  0  0
   10.3364   -3.8368   22.9255 O   0  0  0  0  0  0  0  0  0  0  0  0
    9.6947   -4.8407   18.8534 C   0  0  0  0  0  0  0  0  0  0  0  0
    9.1596    1.7042   24.1381 C   0  0  0  0  0  0  0  0  0  0  0  0
   11.0456   -2.9774   18.2694 N   0  0  0  0  0  0  0  0  0  0  0  0
   10.4788   -3.0457   21.8593 C   0  0  0  0  0  0  0  0  0  0  0  0
    8.8693   -5.8099   18.4657 N   0  0  0  0  0  0  0  0  0  0  0  0
    8.9892   -0.7926   25.4573 C   0  0  0  0  0  0  0  0  0  0  0  0
   10.5677   -3.4462   20.5323 C   0  0  0  0  0  0  0  0  0  0  0  0
  1  8  1  0
  1 12  4  0
  1 14  4  0
  2  3  4  0
  2 18  4  0
  3 20  4  0
  3 22  4  0
  4 11  4  0
  4 21  4  0
  5  9  4  0
  5 16  4  0
  6 15  4  0
  6 16  4  0
  7 22  4  0
  7 26  4  0
  8 10  4  0
  8 25  4  0
  9 15  4  0
  9 17  1  0
 10 21  4  0
 11 25  4  0
 12 23  4  0
 13 20  4  0
 13 26  4  0
 14 19  4  0
 17 18  4  0
 17 24  4  0
 19 23  4  0
 20 24  4  0
 23 26  1  0
M  END
$$$$

 Created by Python create_sdf_string function

 26 30  0  0  0  0  0  0  0  0999 V2000
   10.0084   -1.8019   23.4945 C   0  0  0  0  0  0  0  0  0  0  0  0
   10.0005   -4.2520   16.5631 C   0  0  0  0  0  0  0  0  0  0  0  0
   10.2759   -4.0036   17.8845 C   0  0  0  0  0  0  0  0  0  0  0  0
    8.5652    1.5478   25.3778 N   0  0  0  0  0  0  0  0  0  0  0  0
    6.8048   -7.5457   17.8752 C   0  0  0  0  0  0  0  0  0  0  0  0
    6.1721   -8.2186   15.9886 N   0  0  0  0  0  0  0  0  0  0  0  0
   11.1764   -2.6600   19.5604 C   0  0  0  0  0  0  0  0  0  0  0  0
    9.5491   -0.6380   24.1912 C   0  0  0  0  0  0  0  0  0  0  0  0
    7.5337   -6.9256   16.9519 C   0  0  0  0  0  0  0  0  0  0  0  0
    9.6782    0.5671   23.5143 C   0  0  0  0  0  0  0  0  0  0  0  0
    8.4532    0.3482   26.0821 C   0  0  0  0  0  0  0  0  0  0  0  0
   10.4239   -1.7677   22.2230 N   0  0  0  0  0  0  0  0  0  0  0  0
    9.9468   -4.5953   20.1709 C   0  0  0  0  0  0  0  0  0  0  0  0
   10.0366   -3.0590   23.9864 N   0  0  0  0  0  0  0  0  0  0  0  0
    7.1191   -7.3636   15.7739 C   0  0  0  0  0  0  0  0  0  0  0  0
    5.9612   -8.3203   17.2732 N   0  0  0  0  0  0  0  0  0  0  0  0
    8.5296   -5.9814   17.1841 C   0  0  0  0  0  0  0  0  0  0  0  0
    9.1527   -5.2118   16.2116 C   0  0  0  0  0  0  0  0  0  0  0  0
   10.3364   -3.8368   22.9255 O   0  0  0  0  0  0  0  0  0  0  0  0
    9.6947   -4.8407   18.8534 C   0  0  0  0  0  0  0  0  0  0  0  0
    9.1596    1.7042   24.1381 C   0  0  0  0  0  0  0  0  0  0  0  0
   11.0456   -2.9774   18.2694 N   0  0  0  0  0  0  0  0  0  0  0  0
   10.4788   -3.0457   21.8593 C   0  0  0  0  0  0  0  0  0  0  0  0
    8.8693   -5.8099   18.4657 N   0  0  0  0  0  0  0  0  0  0  0  0
    8.9892   -0.7926   25.4573 C   0  0  0  0  0  0  0  0  0  0  0  0
   10.5677   -3.4462   20.5323 C   0  0  0  0  0  0  0  0  0  0  0  0
  1  8  1  0
  1 12  4  0
  1 14  4  0
  2  3  4  0
  2 18  4  0
  3 20  4  0
  3 22  4  0
  4 11  4  0
  4 21  4  0
  5  9  4  0
  5 16  4  0
  6 15  4  0
  6 16  4  0
  7 22  4  0
  7 26  4  0
  8 10  4  0
  8 25  4  0
  9 15  4  0
  9 17  1  0
 10 21  4  0
 11 25  4  0
 12 23  4  0
 13 20  4  0
 13 26  4  0
 14 19  4  0
 17 18  4  0
 17 24  4  0
 19 23  4  0
 20 24  4  0
 23 26  1  0
M  END
$$$$

 Created by Python create_sdf_string function

 26 30  0  0  0  0  0  0  0  0999 V2000
   10.0084   -1.8019   23.4945 C   0  0  0  0  0  0  0  0  0  0  0  0
   10.0005   -4.2520   16.5631 C   0  0  0  0  0  0  0  0  0  0  0  0
   10.2759   -4.0036   17.8845 C   0  0  0  0  0  0  0  0  0  0  0  0
    8.5652    1.5478   25.3778 N   0  0  0  0  0  0  0  0  0  0  0  0
    6.8048   -7.5457   17.8752 C   0  0  0  0  0  0  0  0  0  0  0  0
    6.1721   -8.2186   15.9886 N   0  0  0  0  0  0  0  0  0  0  0  0
   11.1764   -2.6600   19.5604 C   0  0  0  0  0  0  0  0  0  0  0  0
    9.5491   -0.6380   24.1912 C   0  0  0  0  0  0  0  0  0  0  0  0
    7.5337   -6.9256   16.9519 C   0  0  0  0  0  0  0  0  0  0  0  0
    9.6782    0.5671   23.5143 C   0  0  0  0  0  0  0  0  0  0  0  0
    8.4532    0.3482   26.0821 C   0  0  0  0  0  0  0  0  0  0  0  0
   10.4239   -1.7677   22.2230 N   0  0  0  0  0  0  0  0  0  0  0  0
    9.9468   -4.5953   20.1709 C   0  0  0  0  0  0  0  0  0  0  0  0
   10.0366   -3.0590   23.9864 N   0  0  0  0  0  0  0  0  0  0  0  0
    7.1191   -7.3636   15.7739 C   0  0  0  0  0  0  0  0  0  0  0  0
    5.9612   -8.3203   17.2732 N   0  0  0  0  0  0  0  0  0  0  0  0
    8.5296   -5.9814   17.1841 C   0  0  0  0  0  0  0  0  0  0  0  0
    9.1527   -5.2118   16.2116 C   0  0  0  0  0  0  0  0  0  0  0  0
   10.3364   -3.8368   22.9255 O   0  0  0  0  0  0  0  0  0  0  0  0
    9.6947   -4.8407   18.8534 C   0  0  0  0  0  0  0  0  0  0  0  0
    9.1596    1.7042   24.1381 C   0  0  0  0  0  0  0  0  0  0  0  0
   11.0456   -2.9774   18.2694 N   0  0  0  0  0  0  0  0  0  0  0  0
   10.4788   -3.0457   21.8593 C   0  0  0  0  0  0  0  0  0  0  0  0
    8.8693   -5.8099   18.4657 N   0  0  0  0  0  0  0  0  0  0  0  0
    8.9892   -0.7926   25.4573 C   0  0  0  0  0  0  0  0  0  0  0  0
   10.5677   -3.4462   20.5323 C   0  0  0  0  0  0  0  0  0  0  0  0
  1  8  1  0
  1 12  4  0
  1 14  4  0
  2  3  4  0
  2 18  4  0
  3 20  4  0
  3 22  4  0
  4 11  4  0
  4 21  4  0
  5  9  4  0
  5 16  4  0
  6 15  4  0
  6 16  4  0
  7 22  4  0
  7 26  4  0
  8 10  4  0
  8 25  4  0
  9 15  4  0
  9 17  1  0
 10 21  4  0
 11 25  4  0
 12 23  4  0
 13 20  4  0
 13 26  4  0
 14 19  4  0
 17 18  4  0
 17 24  4  0
 19 23  4  0
 20 24  4  0
 23 26  1  0
M  END
$$$$

 Created by Python create_sdf_string function

 26 30  0  0  0  0  0  0  0  0999 V2000
   10.0084   -1.8019   23.4945 C   0  0  0  0  0  0  0  0  0  0  0  0
   10.0005   -4.2520   16.5631 C   0  0  0  0  0  0  0  0  0  0  0  0
   10.2759   -4.0036   17.8845 C   0  0  0  0  0  0  0  0  0  0  0  0
    8.5652    1.5478   25.3778 N   0  0  0  0  0  0  0  0  0  0  0  0
    6.8048   -7.5457   17.8752 C   0  0  0  0  0  0  0  0  0  0  0  0
    6.1721   -8.2186   15.9886 N   0  0  0  0  0  0  0  0  0  0  0  0
   11.1764   -2.6600   19.5604 C   0  0  0  0  0  0  0  0  0  0  0  0
    9.5491   -0.6380   24.1912 C   0  0  0  0  0  0  0  0  0  0  0  0
    7.5337   -6.9256   16.9519 C   0  0  0  0  0  0  0  0  0  0  0  0
    9.6782    0.5671   23.5143 C   0  0  0  0  0  0  0  0  0  0  0  0
    8.4532    0.3482   26.0821 C   0  0  0  0  0  0  0  0  0  0  0  0
   10.4239   -1.7677   22.2230 N   0  0  0  0  0  0  0  0  0  0  0  0
    9.9468   -4.5953   20.1709 C   0  0  0  0  0  0  0  0  0  0  0  0
   10.0366   -3.0590   23.9864 N   0  0  0  0  0  0  0  0  0  0  0  0
    7.1191   -7.3636   15.7739 C   0  0  0  0  0  0  0  0  0  0  0  0
    5.9612   -8.3203   17.2732 N   0  0  0  0  0  0  0  0  0  0  0  0
    8.5296   -5.9814   17.1841 C   0  0  0  0  0  0  0  0  0  0  0  0
    9.1527   -5.2118   16.2116 C   0  0  0  0  0  0  0  0  0  0  0  0
   10.3364   -3.8368   22.9255 O   0  0  0  0  0  0  0  0  0  0  0  0
    9.6947   -4.8407   18.8534 C   0  0  0  0  0  0  0  0  0  0  0  0
    9.1596    1.7042   24.1381 C   0  0  0  0  0  0  0  0  0  0  0  0
   11.0456   -2.9774   18.2694 N   0  0  0  0  0  0  0  0  0  0  0  0
   10.4788   -3.0457   21.8593 C   0  0  0  0  0  0  0  0  0  0  0  0
    8.8693   -5.8099   18.4657 N   0  0  0  0  0  0  0  0  0  0  0  0
    8.9892   -0.7926   25.4573 C   0  0  0  0  0  0  0  0  0  0  0  0
   10.5677   -3.4462   20.5323 C   0  0  0  0  0  0  0  0  0  0  0  0
  1  8  1  0
  1 12  4  0
  1 14  4  0
  2  3  4  0
  2 18  4  0
  3 20  4  0
  3 22  4  0
  4 11  4  0
  4 21  4  0
  5  9  4  0
  5 16  4  0
  6 15  4  0
  6 16  4  0
  7 22  4  0
  7 26  4  0
  8 10  4  0
  8 25  4  0
  9 15  4  0
  9 17  1  0
 10 21  4  0
 11 25  4  0
 12 23  4  0
 13 20  4  0
 13 26  4  0
 14 19  4  0
 17 18  4  0
 17 24  4  0
 19 23  4  0
 20 24  4  0
 23 26  1  0
M  END
$$$$

 Created by Python create_sdf_string function

 26 30  0  0  0  0  0  0  0  0999 V2000
   10.0084   -1.8019   23.4945 C   0  0  0  0  0  0  0  0  0  0  0  0
   10.0005   -4.2520   16.5631 C   0  0  0  0  0  0  0  0  0  0  0  0
   10.2759   -4.0036   17.8845 C   0  0  0  0  0  0  0  0  0  0  0  0
    8.5652    1.5478   25.3778 N   0  0  0  0  0  0  0  0  0  0  0  0
    6.8048   -7.5457   17.8752 C   0  0  0  0  0  0  0  0  0  0  0  0
    6.1721   -8.2186   15.9886 N   0  0  0  0  0  0  0  0  0  0  0  0
   11.1764   -2.6600   19.5604 C   0  0  0  0  0  0  0  0  0  0  0  0
    9.5491   -0.6380   24.1912 C   0  0  0  0  0  0  0  0  0  0  0  0
    7.5337   -6.9256   16.9519 C   0  0  0  0  0  0  0  0  0  0  0  0
    9.6782    0.5671   23.5143 C   0  0  0  0  0  0  0  0  0  0  0  0
    8.4532    0.3482   26.0821 C   0  0  0  0  0  0  0  0  0  0  0  0
   10.4239   -1.7677   22.2230 N   0  0  0  0  0  0  0  0  0  0  0  0
    9.9468   -4.5953   20.1709 C   0  0  0  0  0  0  0  0  0  0  0  0
   10.0366   -3.0590   23.9864 N   0  0  0  0  0  0  0  0  0  0  0  0
    7.1191   -7.3636   15.7739 C   0  0  0  0  0  0  0  0  0  0  0  0
    5.9612   -8.3203   17.2732 N   0  0  0  0  0  0  0  0  0  0  0  0
    8.5296   -5.9814   17.1841 C   0  0  0  0  0  0  0  0  0  0  0  0
    9.1527   -5.2118   16.2116 C   0  0  0  0  0  0  0  0  0  0  0  0
   10.3364   -3.8368   22.9255 O   0  0  0  0  0  0  0  0  0  0  0  0
    9.6947   -4.8407   18.8534 C   0  0  0  0  0  0  0  0  0  0  0  0
    9.1596    1.7042   24.1381 C   0  0  0  0  0  0  0  0  0  0  0  0
   11.0456   -2.9774   18.2694 N   0  0  0  0  0  0  0  0  0  0  0  0
   10.4788   -3.0457   21.8593 C   0  0  0  0  0  0  0  0  0  0  0  0
    8.8693   -5.8099   18.4657 N   0  0  0  0  0  0  0  0  0  0  0  0
    8.9892   -0.7926   25.4573 C   0  0  0  0  0  0  0  0  0  0  0  0
   10.5677   -3.4462   20.5323 C   0  0  0  0  0  0  0  0  0  0  0  0
  1  8  1  0
  1 12  4  0
  1 14  4  0
  2  3  4  0
  2 18  4  0
  3 20  4  0
  3 22  4  0
  4 11  4  0
  4 21  4  0
  5  9  4  0
  5 16  4  0
  6 15  4  0
  6 16  4  0
  7 22  4  0
  7 26  4  0
  8 10  4  0
  8 25  4  0
  9 15  4  0
  9 17  1  0
 10 21  4  0
 11 25  4  0
 12 23  4  0
 13 20  4  0
 13 26  4  0
 14 19  4  0
 17 18  4  0
 17 24  4  0
 19 23  4  0
 20 24  4  0
 23 26  1  0
M  END
$$$$

 Created by Python create_sdf_string function

 26 30  0  0  0  0  0  0  0  0999 V2000
   10.0084   -1.8019   23.4945 C   0  0  0  0  0  0  0  0  0  0  0  0
   10.0005   -4.2520   16.5631 C   0  0  0  0  0  0  0  0  0  0  0  0
   10.2759   -4.0036   17.8845 C   0  0  0  0  0  0  0  0  0  0  0  0
    8.5652    1.5478   25.3778 N   0  0  0  0  0  0  0  0  0  0  0  0
    6.8048   -7.5457   17.8752 C   0  0  0  0  0  0  0  0  0  0  0  0
    6.1721   -8.2186   15.9886 N   0  0  0  0  0  0  0  0  0  0  0  0
   11.1764   -2.6600   19.5604 C   0  0  0  0  0  0  0  0  0  0  0  0
    9.5491   -0.6380   24.1912 C   0  0  0  0  0  0  0  0  0  0  0  0
    7.5337   -6.9256   16.9519 C   0  0  0  0  0  0  0  0  0  0  0  0
    9.6782    0.5671   23.5143 C   0  0  0  0  0  0  0  0  0  0  0  0
    8.4532    0.3482   26.0821 C   0  0  0  0  0  0  0  0  0  0  0  0
   10.4239   -1.7677   22.2230 N   0  0  0  0  0  0  0  0  0  0  0  0
    9.9468   -4.5953   20.1709 C   0  0  0  0  0  0  0  0  0  0  0  0
   10.0366   -3.0590   23.9864 N   0  0  0  0  0  0  0  0  0  0  0  0
    7.1191   -7.3636   15.7739 C   0  0  0  0  0  0  0  0  0  0  0  0
    5.9612   -8.3203   17.2732 N   0  0  0  0  0  0  0  0  0  0  0  0
    8.5296   -5.9814   17.1841 C   0  0  0  0  0  0  0  0  0  0  0  0
    9.1527   -5.2118   16.2116 C   0  0  0  0  0  0  0  0  0  0  0  0
   10.3364   -3.8368   22.9255 O   0  0  0  0  0  0  0  0  0  0  0  0
    9.6947   -4.8407   18.8534 C   0  0  0  0  0  0  0  0  0  0  0  0
    9.1596    1.7042   24.1381 C   0  0  0  0  0  0  0  0  0  0  0  0
   11.0456   -2.9774   18.2694 N   0  0  0  0  0  0  0  0  0  0  0  0
   10.4788   -3.0457   21.8593 C   0  0  0  0  0  0  0  0  0  0  0  0
    8.8693   -5.8099   18.4657 N   0  0  0  0  0  0  0  0  0  0  0  0
    8.9892   -0.7926   25.4573 C   0  0  0  0  0  0  0  0  0  0  0  0
   10.5677   -3.4462   20.5323 C   0  0  0  0  0  0  0  0  0  0  0  0
  1  8  1  0
  1 12  4  0
  1 14  4  0
  2  3  4  0
  2 18  4  0
  3 20  4  0
  3 22  4  0
  4 11  4  0
  4 21  4  0
  5  9  4  0
  5 16  4  0
  6 15  4  0
  6 16  4  0
  7 22  4  0
  7 26  4  0
  8 10  4  0
  8 25  4  0
  9 15  4  0
  9 17  1  0
 10 21  4  0
 11 25  4  0
 12 23  4  0
 13 20  4  0
 13 26  4  0
 14 19  4  0
 17 18  4  0
 17 24  4  0
 19 23  4  0
 20 24  4  0
 23 26  1  0
M  END
$$$$

 Created by Python create_sdf_string function

 26 30  0  0  0  0  0  0  0  0999 V2000
   10.0084   -1.8019   23.4945 C   0  0  0  0  0  0  0  0  0  0  0  0
   10.0005   -4.2520   16.5631 C   0  0  0  0  0  0  0  0  0  0  0  0
   10.2759   -4.0036   17.8845 C   0  0  0  0  0  0  0  0  0  0  0  0
    8.5652    1.5478   25.3778 N   0  0  0  0  0  0  0  0  0  0  0  0
    6.8048   -7.5457   17.8752 C   0  0  0  0  0  0  0  0  0  0  0  0
    6.1721   -8.2186   15.9886 N   0  0  0  0  0  0  0  0  0  0  0  0
   11.1764   -2.6600   19.5604 C   0  0  0  0  0  0  0  0  0  0  0  0
    9.5491   -0.6380   24.1912 C   0  0  0  0  0  0  0  0  0  0  0  0
    7.5337   -6.9256   16.9519 C   0  0  0  0  0  0  0  0  0  0  0  0
    9.6782    0.5671   23.5143 C   0  0  0  0  0  0  0  0  0  0  0  0
    8.4532    0.3482   26.0821 C   0  0  0  0  0  0  0  0  0  0  0  0
   10.4239   -1.7677   22.2230 N   0  0  0  0  0  0  0  0  0  0  0  0
    9.9468   -4.5953   20.1709 C   0  0  0  0  0  0  0  0  0  0  0  0
   10.0366   -3.0590   23.9864 N   0  0  0  0  0  0  0  0  0  0  0  0
    7.1191   -7.3636   15.7739 C   0  0  0  0  0  0  0  0  0  0  0  0
    5.9612   -8.3203   17.2732 N   0  0  0  0  0  0  0  0  0  0  0  0
    8.5296   -5.9814   17.1841 C   0  0  0  0  0  0  0  0  0  0  0  0
    9.1527   -5.2118   16.2116 C   0  0  0  0  0  0  0  0  0  0  0  0
   10.3364   -3.8368   22.9255 O   0  0  0  0  0  0  0  0  0  0  0  0
    9.6947   -4.8407   18.8534 C   0  0  0  0  0  0  0  0  0  0  0  0
    9.1596    1.7042   24.1381 C   0  0  0  0  0  0  0  0  0  0  0  0
   11.0456   -2.9774   18.2694 N   0  0  0  0  0  0  0  0  0  0  0  0
   10.4788   -3.0457   21.8593 C   0  0  0  0  0  0  0  0  0  0  0  0
    8.8693   -5.8099   18.4657 N   0  0  0  0  0  0  0  0  0  0  0  0
    8.9892   -0.7926   25.4573 C   0  0  0  0  0  0  0  0  0  0  0  0
   10.5677   -3.4462   20.5323 C   0  0  0  0  0  0  0  0  0  0  0  0
  1  8  1  0
  1 12  4  0
  1 14  4  0
  2  3  4  0
  2 18  4  0
  3 20  4  0
  3 22  4  0
  4 11  4  0
  4 21  4  0
  5  9  4  0
  5 16  4  0
  6 15  4  0
  6 16  4  0
  7 22  4  0
  7 26  4  0
  8 10  4  0
  8 25  4  0
  9 15  4  0
  9 17  1  0
 10 21  4  0
 11 25  4  0
 12 23  4  0
 13 20  4  0
 13 26  4  0
 14 19  4  0
 17 18  4  0
 17 24  4  0
 19 23  4  0
 20 24  4  0
 23 26  1  0
M  END
$$$$

 Created by Python create_sdf_string function

 26 30  0  0  0  0  0  0  0  0999 V2000
   10.0084   -1.8019   23.4945 C   0  0  0  0  0  0  0  0  0  0  0  0
   10.0005   -4.2520   16.5631 C   0  0  0  0  0  0  0  0  0  0  0  0
   10.2759   -4.0036   17.8845 C   0  0  0  0  0  0  0  0  0  0  0  0
    8.5652    1.5478   25.3778 N   0  0  0  0  0  0  0  0  0  0  0  0
    6.8048   -7.5457   17.8752 C   0  0  0  0  0  0  0  0  0  0  0  0
    6.1721   -8.2186   15.9886 N   0  0  0  0  0  0  0  0  0  0  0  0
   11.1764   -2.6600   19.5604 C   0  0  0  0  0  0  0  0  0  0  0  0
    9.5491   -0.6380   24.1912 C   0  0  0  0  0  0  0  0  0  0  0  0
    7.5337   -6.9256   16.9519 C   0  0  0  0  0  0  0  0  0  0  0  0
    9.6782    0.5671   23.5143 C   0  0  0  0  0  0  0  0  0  0  0  0
    8.4532    0.3482   26.0821 C   0  0  0  0  0  0  0  0  0  0  0  0
   10.4239   -1.7677   22.2230 N   0  0  0  0  0  0  0  0  0  0  0  0
    9.9468   -4.5953   20.1709 C   0  0  0  0  0  0  0  0  0  0  0  0
   10.0366   -3.0590   23.9864 N   0  0  0  0  0  0  0  0  0  0  0  0
    7.1191   -7.3636   15.7739 C   0  0  0  0  0  0  0  0  0  0  0  0
    5.9612   -8.3203   17.2732 N   0  0  0  0  0  0  0  0  0  0  0  0
    8.5296   -5.9814   17.1841 C   0  0  0  0  0  0  0  0  0  0  0  0
    9.1527   -5.2118   16.2116 C   0  0  0  0  0  0  0  0  0  0  0  0
   10.3364   -3.8368   22.9255 O   0  0  0  0  0  0  0  0  0  0  0  0
    9.6947   -4.8407   18.8534 C   0  0  0  0  0  0  0  0  0  0  0  0
    9.1596    1.7042   24.1381 C   0  0  0  0  0  0  0  0  0  0  0  0
   11.0456   -2.9774   18.2694 N   0  0  0  0  0  0  0  0  0  0  0  0
   10.4788   -3.0457   21.8593 C   0  0  0  0  0  0  0  0  0  0  0  0
    8.8693   -5.8099   18.4657 N   0  0  0  0  0  0  0  0  0  0  0  0
    8.9892   -0.7926   25.4573 C   0  0  0  0  0  0  0  0  0  0  0  0
   10.5677   -3.4462   20.5323 C   0  0  0  0  0  0  0  0  0  0  0  0
  1  8  1  0
  1 12  4  0
  1 14  4  0
  2  3  4  0
  2 18  4  0
  3 20  4  0
  3 22  4  0
  4 11  4  0
  4 21  4  0
  5  9  4  0
  5 16  4  0
  6 15  4  0
  6 16  4  0
  7 22  4  0
  7 26  4  0
  8 10  4  0
  8 25  4  0
  9 15  4  0
  9 17  1  0
 10 21  4  0
 11 25  4  0
 12 23  4  0
 13 20  4  0
 13 26  4  0
 14 19  4  0
 17 18  4  0
 17 24  4  0
 19 23  4  0
 20 24  4  0
 23 26  1  0
M  END
$$$$

 Created by Python create_sdf_string function

 26 30  0  0  0  0  0  0  0  0999 V2000
   10.0084   -1.8019   23.4945 C   0  0  0  0  0  0  0  0  0  0  0  0
   10.0005   -4.2520   16.5631 C   0  0  0  0  0  0  0  0  0  0  0  0
   10.2759   -4.0036   17.8845 C   0  0  0  0  0  0  0  0  0  0  0  0
    8.5652    1.5478   25.3778 N   0  0  0  0  0  0  0  0  0  0  0  0
    6.8048   -7.5457   17.8752 C   0  0  0  0  0  0  0  0  0  0  0  0
    6.1721   -8.2186   15.9886 N   0  0  0  0  0  0  0  0  0  0  0  0
   11.1764   -2.6600   19.5604 C   0  0  0  0  0  0  0  0  0  0  0  0
    9.5491   -0.6380   24.1912 C   0  0  0  0  0  0  0  0  0  0  0  0
    7.5337   -6.9256   16.9519 C   0  0  0  0  0  0  0  0  0  0  0  0
    9.6782    0.5671   23.5143 C   0  0  0  0  0  0  0  0  0  0  0  0
    8.4532    0.3482   26.0821 C   0  0  0  0  0  0  0  0  0  0  0  0
   10.4239   -1.7677   22.2230 N   0  0  0  0  0  0  0  0  0  0  0  0
    9.9468   -4.5953   20.1709 C   0  0  0  0  0  0  0  0  0  0  0  0
   10.0366   -3.0590   23.9864 N   0  0  0  0  0  0  0  0  0  0  0  0
    7.1191   -7.3636   15.7739 C   0  0  0  0  0  0  0  0  0  0  0  0
    5.9612   -8.3203   17.2732 N   0  0  0  0  0  0  0  0  0  0  0  0
    8.5296   -5.9814   17.1841 C   0  0  0  0  0  0  0  0  0  0  0  0
    9.1527   -5.2118   16.2116 C   0  0  0  0  0  0  0  0  0  0  0  0
   10.3364   -3.8368   22.9255 O   0  0  0  0  0  0  0  0  0  0  0  0
    9.6947   -4.8407   18.8534 C   0  0  0  0  0  0  0  0  0  0  0  0
    9.1596    1.7042   24.1381 C   0  0  0  0  0  0  0  0  0  0  0  0
   11.0456   -2.9774   18.2694 N   0  0  0  0  0  0  0  0  0  0  0  0
   10.4788   -3.0457   21.8593 C   0  0  0  0  0  0  0  0  0  0  0  0
    8.8693   -5.8099   18.4657 N   0  0  0  0  0  0  0  0  0  0  0  0
    8.9892   -0.7926   25.4573 C   0  0  0  0  0  0  0  0  0  0  0  0
   10.5677   -3.4462   20.5323 C   0  0  0  0  0  0  0  0  0  0  0  0
  1  8  1  0
  1 12  4  0
  1 14  4  0
  2  3  4  0
  2 18  4  0
  3 20  4  0
  3 22  4  0
  4 11  4  0
  4 21  4  0
  5  9  4  0
  5 16  4  0
  6 15  4  0
  6 16  4  0
  7 22  4  0
  7 26  4  0
  8 10  4  0
  8 25  4  0
  9 15  4  0
  9 17  1  0
 10 21  4  0
 11 25  4  0
 12 23  4  0
 13 20  4  0
 13 26  4  0
 14 19  4  0
 17 18  4  0
 17 24  4  0
 19 23  4  0
 20 24  4  0
 23 26  1  0
M  END
$$$$

 Created by Python create_sdf_string function

 26 30  0  0  0  0  0  0  0  0999 V2000
   10.0084   -1.8019   23.4945 C   0  0  0  0  0  0  0  0  0  0  0  0
   10.0005   -4.2520   16.5631 C   0  0  0  0  0  0  0  0  0  0  0  0
   10.2759   -4.0036   17.8845 C   0  0  0  0  0  0  0  0  0  0  0  0
    8.5652    1.5478   25.3778 N   0  0  0  0  0  0  0  0  0  0  0  0
    6.8048   -7.5457   17.8752 C   0  0  0  0  0  0  0  0  0  0  0  0
    6.1721   -8.2186   15.9886 N   0  0  0  0  0  0  0  0  0  0  0  0
   11.1764   -2.6600   19.5604 C   0  0  0  0  0  0  0  0  0  0  0  0
    9.5491   -0.6380   24.1912 C   0  0  0  0  0  0  0  0  0  0  0  0
    7.5337   -6.9256   16.9519 C   0  0  0  0  0  0  0  0  0  0  0  0
    9.6782    0.5671   23.5143 C   0  0  0  0  0  0  0  0  0  0  0  0
    8.4532    0.3482   26.0821 C   0  0  0  0  0  0  0  0  0  0  0  0
   10.4239   -1.7677   22.2230 N   0  0  0  0  0  0  0  0  0  0  0  0
    9.9468   -4.5953   20.1709 C   0  0  0  0  0  0  0  0  0  0  0  0
   10.0366   -3.0590   23.9864 N   0  0  0  0  0  0  0  0  0  0  0  0
    7.1191   -7.3636   15.7739 C   0  0  0  0  0  0  0  0  0  0  0  0
    5.9612   -8.3203   17.2732 N   0  0  0  0  0  0  0  0  0  0  0  0
    8.5296   -5.9814   17.1841 C   0  0  0  0  0  0  0  0  0  0  0  0
    9.1527   -5.2118   16.2116 C   0  0  0  0  0  0  0  0  0  0  0  0
   10.3364   -3.8368   22.9255 O   0  0  0  0  0  0  0  0  0  0  0  0
    9.6947   -4.8407   18.8534 C   0  0  0  0  0  0  0  0  0  0  0  0
    9.1596    1.7042   24.1381 C   0  0  0  0  0  0  0  0  0  0  0  0
   11.0456   -2.9774   18.2694 N   0  0  0  0  0  0  0  0  0  0  0  0
   10.4788   -3.0457   21.8593 C   0  0  0  0  0  0  0  0  0  0  0  0
    8.8693   -5.8099   18.4657 N   0  0  0  0  0  0  0  0  0  0  0  0
    8.9892   -0.7926   25.4573 C   0  0  0  0  0  0  0  0  0  0  0  0
   10.5677   -3.4462   20.5323 C   0  0  0  0  0  0  0  0  0  0  0  0
  1  8  1  0
  1 12  4  0
  1 14  4  0
  2  3  4  0
  2 18  4  0
  3 20  4  0
  3 22  4  0
  4 11  4  0
  4 21  4  0
  5  9  4  0
  5 16  4  0
  6 15  4  0
  6 16  4  0
  7 22  4  0
  7 26  4  0
  8 10  4  0
  8 25  4  0
  9 15  4  0
  9 17  1  0
 10 21  4  0
 11 25  4  0
 12 23  4  0
 13 20  4  0
 13 26  4  0
 14 19  4  0
 17 18  4  0
 17 24  4  0
 19 23  4  0
 20 24  4  0
 23 26  1  0
M  END
$$$$

 Created by Python create_sdf_string function

 26 30  0  0  0  0  0  0  0  0999 V2000
   10.0084   -1.8019   23.4945 C   0  0  0  0  0  0  0  0  0  0  0  0
   10.0005   -4.2520   16.5631 C   0  0  0  0  0  0  0  0  0  0  0  0
   10.2759   -4.0036   17.8845 C   0  0  0  0  0  0  0  0  0  0  0  0
    8.5652    1.5478   25.3778 N   0  0  0  0  0  0  0  0  0  0  0  0
    6.8048   -7.5457   17.8752 C   0  0  0  0  0  0  0  0  0  0  0  0
    6.1721   -8.2186   15.9886 N   0  0  0  0  0  0  0  0  0  0  0  0
   11.1764   -2.6600   19.5604 C   0  0  0  0  0  0  0  0  0  0  0  0
    9.5491   -0.6380   24.1912 C   0  0  0  0  0  0  0  0  0  0  0  0
    7.5337   -6.9256   16.9519 C   0  0  0  0  0  0  0  0  0  0  0  0
    9.6782    0.5671   23.5143 C   0  0  0  0  0  0  0  0  0  0  0  0
    8.4532    0.3482   26.0821 C   0  0  0  0  0  0  0  0  0  0  0  0
   10.4239   -1.7677   22.2230 N   0  0  0  0  0  0  0  0  0  0  0  0
    9.9468   -4.5953   20.1709 C   0  0  0  0  0  0  0  0  0  0  0  0
   10.0366   -3.0590   23.9864 N   0  0  0  0  0  0  0  0  0  0  0  0
    7.1191   -7.3636   15.7739 C   0  0  0  0  0  0  0  0  0  0  0  0
    5.9612   -8.3203   17.2732 N   0  0  0  0  0  0  0  0  0  0  0  0
    8.5296   -5.9814   17.1841 C   0  0  0  0  0  0  0  0  0  0  0  0
    9.1527   -5.2118   16.2116 C   0  0  0  0  0  0  0  0  0  0  0  0
   10.3364   -3.8368   22.9255 O   0  0  0  0  0  0  0  0  0  0  0  0
    9.6947   -4.8407   18.8534 C   0  0  0  0  0  0  0  0  0  0  0  0
    9.1596    1.7042   24.1381 C   0  0  0  0  0  0  0  0  0  0  0  0
   11.0456   -2.9774   18.2694 N   0  0  0  0  0  0  0  0  0  0  0  0
   10.4788   -3.0457   21.8593 C   0  0  0  0  0  0  0  0  0  0  0  0
    8.8693   -5.8099   18.4657 N   0  0  0  0  0  0  0  0  0  0  0  0
    8.9892   -0.7926   25.4573 C   0  0  0  0  0  0  0  0  0  0  0  0
   10.5677   -3.4462   20.5323 C   0  0  0  0  0  0  0  0  0  0  0  0
  1  8  1  0
  1 12  4  0
  1 14  4  0
  2  3  4  0
  2 18  4  0
  3 20  4  0
  3 22  4  0
  4 11  4  0
  4 21  4  0
  5  9  4  0
  5 16  4  0
  6 15  4  0
  6 16  4  0
  7 22  4  0
  7 26  4  0
  8 10  4  0
  8 25  4  0
  9 15  4  0
  9 17  1  0
 10 21  4  0
 11 25  4  0
 12 23  4  0
 13 20  4  0
 13 26  4  0
 14 19  4  0
 17 18  4  0
 17 24  4  0
 19 23  4  0
 20 24  4  0
 23 26  1  0
M  END
$$$$

 Created by Python create_sdf_string function

 26 30  0  0  0  0  0  0  0  0999 V2000
   10.0084   -1.8019   23.4945 C   0  0  0  0  0  0  0  0  0  0  0  0
   10.0005   -4.2520   16.5631 C   0  0  0  0  0  0  0  0  0  0  0  0
   10.2759   -4.0036   17.8845 C   0  0  0  0  0  0  0  0  0  0  0  0
    8.5652    1.5478   25.3778 N   0  0  0  0  0  0  0  0  0  0  0  0
    6.8048   -7.5457   17.8752 C   0  0  0  0  0  0  0  0  0  0  0  0
    6.1721   -8.2186   15.9886 N   0  0  0  0  0  0  0  0  0  0  0  0
   11.1764   -2.6600   19.5604 C   0  0  0  0  0  0  0  0  0  0  0  0
    9.5491   -0.6380   24.1912 C   0  0  0  0  0  0  0  0  0  0  0  0
    7.5337   -6.9256   16.9519 C   0  0  0  0  0  0  0  0  0  0  0  0
    9.6782    0.5671   23.5143 C   0  0  0  0  0  0  0  0  0  0  0  0
    8.4532    0.3482   26.0821 C   0  0  0  0  0  0  0  0  0  0  0  0
   10.4239   -1.7677   22.2230 N   0  0  0  0  0  0  0  0  0  0  0  0
    9.9468   -4.5953   20.1709 C   0  0  0  0  0  0  0  0  0  0  0  0
   10.0366   -3.0590   23.9864 N   0  0  0  0  0  0  0  0  0  0  0  0
    7.1191   -7.3636   15.7739 C   0  0  0  0  0  0  0  0  0  0  0  0
    5.9612   -8.3203   17.2732 N   0  0  0  0  0  0  0  0  0  0  0  0
    8.5296   -5.9814   17.1841 C   0  0  0  0  0  0  0  0  0  0  0  0
    9.1527   -5.2118   16.2116 C   0  0  0  0  0  0  0  0  0  0  0  0
   10.3364   -3.8368   22.9255 O   0  0  0  0  0  0  0  0  0  0  0  0
    9.6947   -4.8407   18.8534 C   0  0  0  0  0  0  0  0  0  0  0  0
    9.1596    1.7042   24.1381 C   0  0  0  0  0  0  0  0  0  0  0  0
   11.0456   -2.9774   18.2694 N   0  0  0  0  0  0  0  0  0  0  0  0
   10.4788   -3.0457   21.8593 C   0  0  0  0  0  0  0  0  0  0  0  0
    8.8693   -5.8099   18.4657 N   0  0  0  0  0  0  0  0  0  0  0  0
    8.9892   -0.7926   25.4573 C   0  0  0  0  0  0  0  0  0  0  0  0
   10.5677   -3.4462   20.5323 C   0  0  0  0  0  0  0  0  0  0  0  0
  1  8  1  0
  1 12  4  0
  1 14  4  0
  2  3  4  0
  2 18  4  0
  3 20  4  0
  3 22  4  0
  4 11  4  0
  4 21  4  0
  5  9  4  0
  5 16  4  0
  6 15  4  0
  6 16  4  0
  7 22  4  0
  7 26  4  0
  8 10  4  0
  8 25  4  0
  9 15  4  0
  9 17  1  0
 10 21  4  0
 11 25  4  0
 12 23  4  0
 13 20  4  0
 13 26  4  0
 14 19  4  0
 17 18  4  0
 17 24  4  0
 19 23  4  0
 20 24  4  0
 23 26  1  0
M  END
$$$$

 Created by Python create_sdf_string function

 26 30  0  0  0  0  0  0  0  0999 V2000
   10.0084   -1.8019   23.4945 C   0  0  0  0  0  0  0  0  0  0  0  0
   10.0005   -4.2520   16.5631 C   0  0  0  0  0  0  0  0  0  0  0  0
   10.2759   -4.0036   17.8845 C   0  0  0  0  0  0  0  0  0  0  0  0
    8.5652    1.5478   25.3778 N   0  0  0  0  0  0  0  0  0  0  0  0
    6.8048   -7.5457   17.8752 C   0  0  0  0  0  0  0  0  0  0  0  0
    6.1721   -8.2186   15.9886 N   0  0  0  0  0  0  0  0  0  0  0  0
   11.1764   -2.6600   19.5604 C   0  0  0  0  0  0  0  0  0  0  0  0
    9.5491   -0.6380   24.1912 C   0  0  0  0  0  0  0  0  0  0  0  0
    7.5337   -6.9256   16.9519 C   0  0  0  0  0  0  0  0  0  0  0  0
    9.6782    0.5671   23.5143 C   0  0  0  0  0  0  0  0  0  0  0  0
    8.4532    0.3482   26.0821 C   0  0  0  0  0  0  0  0  0  0  0  0
   10.4239   -1.7677   22.2230 N   0  0  0  0  0  0  0  0  0  0  0  0
    9.9468   -4.5953   20.1709 C   0  0  0  0  0  0  0  0  0  0  0  0
   10.0366   -3.0590   23.9864 N   0  0  0  0  0  0  0  0  0  0  0  0
    7.1191   -7.3636   15.7739 C   0  0  0  0  0  0  0  0  0  0  0  0
    5.9612   -8.3203   17.2732 N   0  0  0  0  0  0  0  0  0  0  0  0
    8.5296   -5.9814   17.1841 C   0  0  0  0  0  0  0  0  0  0  0  0
    9.1527   -5.2118   16.2116 C   0  0  0  0  0  0  0  0  0  0  0  0
   10.3364   -3.8368   22.9255 O   0  0  0  0  0  0  0  0  0  0  0  0
    9.6947   -4.8407   18.8534 C   0  0  0  0  0  0  0  0  0  0  0  0
    9.1596    1.7042   24.1381 C   0  0  0  0  0  0  0  0  0  0  0  0
   11.0456   -2.9774   18.2694 N   0  0  0  0  0  0  0  0  0  0  0  0
   10.4788   -3.0457   21.8593 C   0  0  0  0  0  0  0  0  0  0  0  0
    8.8693   -5.8099   18.4657 N   0  0  0  0  0  0  0  0  0  0  0  0
    8.9892   -0.7926   25.4573 C   0  0  0  0  0  0  0  0  0  0  0  0
   10.5677   -3.4462   20.5323 C   0  0  0  0  0  0  0  0  0  0  0  0
  1  8  1  0
  1 12  4  0
  1 14  4  0
  2  3  4  0
  2 18  4  0
  3 20  4  0
  3 22  4  0
  4 11  4  0
  4 21  4  0
  5  9  4  0
  5 16  4  0
  6 15  4  0
  6 16  4  0
  7 22  4  0
  7 26  4  0
  8 10  4  0
  8 25  4  0
  9 15  4  0
  9 17  1  0
 10 21  4  0
 11 25  4  0
 12 23  4  0
 13 20  4  0
 13 26  4  0
 14 19  4  0
 17 18  4  0
 17 24  4  0
 19 23  4  0
 20 24  4  0
 23 26  1  0
M  END
$$$$

 Created by Python create_sdf_string function

 26 30  0  0  0  0  0  0  0  0999 V2000
   10.0084   -1.8019   23.4945 C   0  0  0  0  0  0  0  0  0  0  0  0
   10.0005   -4.2520   16.5631 C   0  0  0  0  0  0  0  0  0  0  0  0
   10.2759   -4.0036   17.8845 C   0  0  0  0  0  0  0  0  0  0  0  0
    8.5652    1.5478   25.3778 N   0  0  0  0  0  0  0  0  0  0  0  0
    6.8048   -7.5457   17.8752 C   0  0  0  0  0  0  0  0  0  0  0  0
    6.1721   -8.2186   15.9886 N   0  0  0  0  0  0  0  0  0  0  0  0
   11.1764   -2.6600   19.5604 C   0  0  0  0  0  0  0  0  0  0  0  0
    9.5491   -0.6380   24.1912 C   0  0  0  0  0  0  0  0  0  0  0  0
    7.5337   -6.9256   16.9519 C   0  0  0  0  0  0  0  0  0  0  0  0
    9.6782    0.5671   23.5143 C   0  0  0  0  0  0  0  0  0  0  0  0
    8.4532    0.3482   26.0821 C   0  0  0  0  0  0  0  0  0  0  0  0
   10.4239   -1.7677   22.2230 N   0  0  0  0  0  0  0  0  0  0  0  0
    9.9468   -4.5953   20.1709 C   0  0  0  0  0  0  0  0  0  0  0  0
   10.0366   -3.0590   23.9864 N   0  0  0  0  0  0  0  0  0  0  0  0
    7.1191   -7.3636   15.7739 C   0  0  0  0  0  0  0  0  0  0  0  0
    5.9612   -8.3203   17.2732 N   0  0  0  0  0  0  0  0  0  0  0  0
    8.5296   -5.9814   17.1841 C   0  0  0  0  0  0  0  0  0  0  0  0
    9.1527   -5.2118   16.2116 C   0  0  0  0  0  0  0  0  0  0  0  0
   10.3364   -3.8368   22.9255 O   0  0  0  0  0  0  0  0  0  0  0  0
    9.6947   -4.8407   18.8534 C   0  0  0  0  0  0  0  0  0  0  0  0
    9.1596    1.7042   24.1381 C   0  0  0  0  0  0  0  0  0  0  0  0
   11.0456   -2.9774   18.2694 N   0  0  0  0  0  0  0  0  0  0  0  0
   10.4788   -3.0457   21.8593 C   0  0  0  0  0  0  0  0  0  0  0  0
    8.8693   -5.8099   18.4657 N   0  0  0  0  0  0  0  0  0  0  0  0
    8.9892   -0.7926   25.4573 C   0  0  0  0  0  0  0  0  0  0  0  0
   10.5677   -3.4462   20.5323 C   0  0  0  0  0  0  0  0  0  0  0  0
  1  8  1  0
  1 12  4  0
  1 14  4  0
  2  3  4  0
  2 18  4  0
  3 20  4  0
  3 22  4  0
  4 11  4  0
  4 21  4  0
  5  9  4  0
  5 16  4  0
  6 15  4  0
  6 16  4  0
  7 22  4  0
  7 26  4  0
  8 10  4  0
  8 25  4  0
  9 15  4  0
  9 17  1  0
 10 21  4  0
 11 25  4  0
 12 23  4  0
 13 20  4  0
 13 26  4  0
 14 19  4  0
 17 18  4  0
 17 24  4  0
 19 23  4  0
 20 24  4  0
 23 26  1  0
M  END
$$$$

 Created by Python create_sdf_string function

 26 30  0  0  0  0  0  0  0  0999 V2000
   10.0084   -1.8019   23.4945 C   0  0  0  0  0  0  0  0  0  0  0  0
   10.0005   -4.2520   16.5631 C   0  0  0  0  0  0  0  0  0  0  0  0
   10.2759   -4.0036   17.8845 C   0  0  0  0  0  0  0  0  0  0  0  0
    8.5652    1.5478   25.3778 N   0  0  0  0  0  0  0  0  0  0  0  0
    6.8048   -7.5457   17.8752 C   0  0  0  0  0  0  0  0  0  0  0  0
    6.1721   -8.2186   15.9886 N   0  0  0  0  0  0  0  0  0  0  0  0
   11.1764   -2.6600   19.5604 C   0  0  0  0  0  0  0  0  0  0  0  0
    9.5491   -0.6380   24.1912 C   0  0  0  0  0  0  0  0  0  0  0  0
    7.5337   -6.9256   16.9519 C   0  0  0  0  0  0  0  0  0  0  0  0
    9.6782    0.5671   23.5143 C   0  0  0  0  0  0  0  0  0  0  0  0
    8.4532    0.3482   26.0821 C   0  0  0  0  0  0  0  0  0  0  0  0
   10.4239   -1.7677   22.2230 N   0  0  0  0  0  0  0  0  0  0  0  0
    9.9468   -4.5953   20.1709 C   0  0  0  0  0  0  0  0  0  0  0  0
   10.0366   -3.0590   23.9864 N   0  0  0  0  0  0  0  0  0  0  0  0
    7.1191   -7.3636   15.7739 C   0  0  0  0  0  0  0  0  0  0  0  0
    5.9612   -8.3203   17.2732 N   0  0  0  0  0  0  0  0  0  0  0  0
    8.5296   -5.9814   17.1841 C   0  0  0  0  0  0  0  0  0  0  0  0
    9.1527   -5.2118   16.2116 C   0  0  0  0  0  0  0  0  0  0  0  0
   10.3364   -3.8368   22.9255 O   0  0  0  0  0  0  0  0  0  0  0  0
    9.6947   -4.8407   18.8534 C   0  0  0  0  0  0  0  0  0  0  0  0
    9.1596    1.7042   24.1381 C   0  0  0  0  0  0  0  0  0  0  0  0
   11.0456   -2.9774   18.2694 N   0  0  0  0  0  0  0  0  0  0  0  0
   10.4788   -3.0457   21.8593 C   0  0  0  0  0  0  0  0  0  0  0  0
    8.8693   -5.8099   18.4657 N   0  0  0  0  0  0  0  0  0  0  0  0
    8.9892   -0.7926   25.4573 C   0  0  0  0  0  0  0  0  0  0  0  0
   10.5677   -3.4462   20.5323 C   0  0  0  0  0  0  0  0  0  0  0  0
  1  8  1  0
  1 12  4  0
  1 14  4  0
  2  3  4  0
  2 18  4  0
  3 20  4  0
  3 22  4  0
  4 11  4  0
  4 21  4  0
  5  9  4  0
  5 16  4  0
  6 15  4  0
  6 16  4  0
  7 22  4  0
  7 26  4  0
  8 10  4  0
  8 25  4  0
  9 15  4  0
  9 17  1  0
 10 21  4  0
 11 25  4  0
 12 23  4  0
 13 20  4  0
 13 26  4  0
 14 19  4  0
 17 18  4  0
 17 24  4  0
 19 23  4  0
 20 24  4  0
 23 26  1  0
M  END
$$$$

 Created by Python create_sdf_string function

 26 30  0  0  0  0  0  0  0  0999 V2000
   10.0084   -1.8019   23.4945 C   0  0  0  0  0  0  0  0  0  0  0  0
   10.0005   -4.2520   16.5631 C   0  0  0  0  0  0  0  0  0  0  0  0
   10.2759   -4.0036   17.8845 C   0  0  0  0  0  0  0  0  0  0  0  0
    8.5652    1.5478   25.3778 N   0  0  0  0  0  0  0  0  0  0  0  0
    6.8048   -7.5457   17.8752 C   0  0  0  0  0  0  0  0  0  0  0  0
    6.1721   -8.2186   15.9886 N   0  0  0  0  0  0  0  0  0  0  0  0
   11.1764   -2.6600   19.5604 C   0  0  0  0  0  0  0  0  0  0  0  0
    9.5491   -0.6380   24.1912 C   0  0  0  0  0  0  0  0  0  0  0  0
    7.5337   -6.9256   16.9519 C   0  0  0  0  0  0  0  0  0  0  0  0
    9.6782    0.5671   23.5143 C   0  0  0  0  0  0  0  0  0  0  0  0
    8.4532    0.3482   26.0821 C   0  0  0  0  0  0  0  0  0  0  0  0
   10.4239   -1.7677   22.2230 N   0  0  0  0  0  0  0  0  0  0  0  0
    9.9468   -4.5953   20.1709 C   0  0  0  0  0  0  0  0  0  0  0  0
   10.0366   -3.0590   23.9864 N   0  0  0  0  0  0  0  0  0  0  0  0
    7.1191   -7.3636   15.7739 C   0  0  0  0  0  0  0  0  0  0  0  0
    5.9612   -8.3203   17.2732 N   0  0  0  0  0  0  0  0  0  0  0  0
    8.5296   -5.9814   17.1841 C   0  0  0  0  0  0  0  0  0  0  0  0
    9.1527   -5.2118   16.2116 C   0  0  0  0  0  0  0  0  0  0  0  0
   10.3364   -3.8368   22.9255 O   0  0  0  0  0  0  0  0  0  0  0  0
    9.6947   -4.8407   18.8534 C   0  0  0  0  0  0  0  0  0  0  0  0
    9.1596    1.7042   24.1381 C   0  0  0  0  0  0  0  0  0  0  0  0
   11.0456   -2.9774   18.2694 N   0  0  0  0  0  0  0  0  0  0  0  0
   10.4788   -3.0457   21.8593 C   0  0  0  0  0  0  0  0  0  0  0  0
    8.8693   -5.8099   18.4657 N   0  0  0  0  0  0  0  0  0  0  0  0
    8.9892   -0.7926   25.4573 C   0  0  0  0  0  0  0  0  0  0  0  0
   10.5677   -3.4462   20.5323 C   0  0  0  0  0  0  0  0  0  0  0  0
  1  8  1  0
  1 12  4  0
  1 14  4  0
  2  3  4  0
  2 18  4  0
  3 20  4  0
  3 22  4  0
  4 11  4  0
  4 21  4  0
  5  9  4  0
  5 16  4  0
  6 15  4  0
  6 16  4  0
  7 22  4  0
  7 26  4  0
  8 10  4  0
  8 25  4  0
  9 15  4  0
  9 17  1  0
 10 21  4  0
 11 25  4  0
 12 23  4  0
 13 20  4  0
 13 26  4  0
 14 19  4  0
 17 18  4  0
 17 24  4  0
 19 23  4  0
 20 24  4  0
 23 26  1  0
M  END
$$$$

 Created by Python create_sdf_string function

 26 30  0  0  0  0  0  0  0  0999 V2000
   10.0084   -1.8019   23.4945 C   0  0  0  0  0  0  0  0  0  0  0  0
   10.0005   -4.2520   16.5631 C   0  0  0  0  0  0  0  0  0  0  0  0
   10.2759   -4.0036   17.8845 C   0  0  0  0  0  0  0  0  0  0  0  0
    8.5652    1.5478   25.3778 N   0  0  0  0  0  0  0  0  0  0  0  0
    6.8048   -7.5457   17.8752 C   0  0  0  0  0  0  0  0  0  0  0  0
    6.1721   -8.2186   15.9886 N   0  0  0  0  0  0  0  0  0  0  0  0
   11.1764   -2.6600   19.5604 C   0  0  0  0  0  0  0  0  0  0  0  0
    9.5491   -0.6380   24.1912 C   0  0  0  0  0  0  0  0  0  0  0  0
    7.5337   -6.9256   16.9519 C   0  0  0  0  0  0  0  0  0  0  0  0
    9.6782    0.5671   23.5143 C   0  0  0  0  0  0  0  0  0  0  0  0
    8.4532    0.3482   26.0821 C   0  0  0  0  0  0  0  0  0  0  0  0
   10.4239   -1.7677   22.2230 N   0  0  0  0  0  0  0  0  0  0  0  0
    9.9468   -4.5953   20.1709 C   0  0  0  0  0  0  0  0  0  0  0  0
   10.0366   -3.0590   23.9864 N   0  0  0  0  0  0  0  0  0  0  0  0
    7.1191   -7.3636   15.7739 C   0  0  0  0  0  0  0  0  0  0  0  0
    5.9612   -8.3203   17.2732 N   0  0  0  0  0  0  0  0  0  0  0  0
    8.5296   -5.9814   17.1841 C   0  0  0  0  0  0  0  0  0  0  0  0
    9.1527   -5.2118   16.2116 C   0  0  0  0  0  0  0  0  0  0  0  0
   10.3364   -3.8368   22.9255 O   0  0  0  0  0  0  0  0  0  0  0  0
    9.6947   -4.8407   18.8534 C   0  0  0  0  0  0  0  0  0  0  0  0
    9.1596    1.7042   24.1381 C   0  0  0  0  0  0  0  0  0  0  0  0
   11.0456   -2.9774   18.2694 N   0  0  0  0  0  0  0  0  0  0  0  0
   10.4788   -3.0457   21.8593 C   0  0  0  0  0  0  0  0  0  0  0  0
    8.8693   -5.8099   18.4657 N   0  0  0  0  0  0  0  0  0  0  0  0
    8.9892   -0.7926   25.4573 C   0  0  0  0  0  0  0  0  0  0  0  0
   10.5677   -3.4462   20.5323 C   0  0  0  0  0  0  0  0  0  0  0  0
  1  8  1  0
  1 12  4  0
  1 14  4  0
  2  3  4  0
  2 18  4  0
  3 20  4  0
  3 22  4  0
  4 11  4  0
  4 21  4  0
  5  9  4  0
  5 16  4  0
  6 15  4  0
  6 16  4  0
  7 22  4  0
  7 26  4  0
  8 10  4  0
  8 25  4  0
  9 15  4  0
  9 17  1  0
 10 21  4  0
 11 25  4  0
 12 23  4  0
 13 20  4  0
 13 26  4  0
 14 19  4  0
 17 18  4  0
 17 24  4  0
 19 23  4  0
 20 24  4  0
 23 26  1  0
M  END
$$$$

 Created by Python create_sdf_string function

 26 30  0  0  0  0  0  0  0  0999 V2000
   10.0084   -1.8019   23.4945 C   0  0  0  0  0  0  0  0  0  0  0  0
   10.0005   -4.2520   16.5631 C   0  0  0  0  0  0  0  0  0  0  0  0
   10.2759   -4.0036   17.8845 C   0  0  0  0  0  0  0  0  0  0  0  0
    8.5652    1.5478   25.3778 N   0  0  0  0  0  0  0  0  0  0  0  0
    6.8048   -7.5457   17.8752 C   0  0  0  0  0  0  0  0  0  0  0  0
    6.1721   -8.2186   15.9886 N   0  0  0  0  0  0  0  0  0  0  0  0
   11.1764   -2.6600   19.5604 C   0  0  0  0  0  0  0  0  0  0  0  0
    9.5491   -0.6380   24.1912 C   0  0  0  0  0  0  0  0  0  0  0  0
    7.5337   -6.9256   16.9519 C   0  0  0  0  0  0  0  0  0  0  0  0
    9.6782    0.5671   23.5143 C   0  0  0  0  0  0  0  0  0  0  0  0
    8.4532    0.3482   26.0821 C   0  0  0  0  0  0  0  0  0  0  0  0
   10.4239   -1.7677   22.2230 N   0  0  0  0  0  0  0  0  0  0  0  0
    9.9468   -4.5953   20.1709 C   0  0  0  0  0  0  0  0  0  0  0  0
   10.0366   -3.0590   23.9864 N   0  0  0  0  0  0  0  0  0  0  0  0
    7.1191   -7.3636   15.7739 C   0  0  0  0  0  0  0  0  0  0  0  0
    5.9612   -8.3203   17.2732 N   0  0  0  0  0  0  0  0  0  0  0  0
    8.5296   -5.9814   17.1841 C   0  0  0  0  0  0  0  0  0  0  0  0
    9.1527   -5.2118   16.2116 C   0  0  0  0  0  0  0  0  0  0  0  0
   10.3364   -3.8368   22.9255 O   0  0  0  0  0  0  0  0  0  0  0  0
    9.6947   -4.8407   18.8534 C   0  0  0  0  0  0  0  0  0  0  0  0
    9.1596    1.7042   24.1381 C   0  0  0  0  0  0  0  0  0  0  0  0
   11.0456   -2.9774   18.2694 N   0  0  0  0  0  0  0  0  0  0  0  0
   10.4788   -3.0457   21.8593 C   0  0  0  0  0  0  0  0  0  0  0  0
    8.8693   -5.8099   18.4657 N   0  0  0  0  0  0  0  0  0  0  0  0
    8.9892   -0.7926   25.4573 C   0  0  0  0  0  0  0  0  0  0  0  0
   10.5677   -3.4462   20.5323 C   0  0  0  0  0  0  0  0  0  0  0  0
  1  8  1  0
  1 12  4  0
  1 14  4  0
  2  3  4  0
  2 18  4  0
  3 20  4  0
  3 22  4  0
  4 11  4  0
  4 21  4  0
  5  9  4  0
  5 16  4  0
  6 15  4  0
  6 16  4  0
  7 22  4  0
  7 26  4  0
  8 10  4  0
  8 25  4  0
  9 15  4  0
  9 17  1  0
 10 21  4  0
 11 25  4  0
 12 23  4  0
 13 20  4  0
 13 26  4  0
 14 19  4  0
 17 18  4  0
 17 24  4  0
 19 23  4  0
 20 24  4  0
 23 26  1  0
M  END
$$$$

 Created by Python create_sdf_string function

 26 30  0  0  0  0  0  0  0  0999 V2000
   10.0084   -1.8019   23.4945 C   0  0  0  0  0  0  0  0  0  0  0  0
   10.0005   -4.2520   16.5631 C   0  0  0  0  0  0  0  0  0  0  0  0
   10.2759   -4.0036   17.8845 C   0  0  0  0  0  0  0  0  0  0  0  0
    8.5652    1.5478   25.3778 N   0  0  0  0  0  0  0  0  0  0  0  0
    6.8048   -7.5457   17.8752 C   0  0  0  0  0  0  0  0  0  0  0  0
    6.1721   -8.2186   15.9886 N   0  0  0  0  0  0  0  0  0  0  0  0
   11.1764   -2.6600   19.5604 C   0  0  0  0  0  0  0  0  0  0  0  0
    9.5491   -0.6380   24.1912 C   0  0  0  0  0  0  0  0  0  0  0  0
    7.5337   -6.9256   16.9519 C   0  0  0  0  0  0  0  0  0  0  0  0
    9.6782    0.5671   23.5143 C   0  0  0  0  0  0  0  0  0  0  0  0
    8.4532    0.3482   26.0821 C   0  0  0  0  0  0  0  0  0  0  0  0
   10.4239   -1.7677   22.2230 N   0  0  0  0  0  0  0  0  0  0  0  0
    9.9468   -4.5953   20.1709 C   0  0  0  0  0  0  0  0  0  0  0  0
   10.0366   -3.0590   23.9864 N   0  0  0  0  0  0  0  0  0  0  0  0
    7.1191   -7.3636   15.7739 C   0  0  0  0  0  0  0  0  0  0  0  0
    5.9612   -8.3203   17.2732 N   0  0  0  0  0  0  0  0  0  0  0  0
    8.5296   -5.9814   17.1841 C   0  0  0  0  0  0  0  0  0  0  0  0
    9.1527   -5.2118   16.2116 C   0  0  0  0  0  0  0  0  0  0  0  0
   10.3364   -3.8368   22.9255 O   0  0  0  0  0  0  0  0  0  0  0  0
    9.6947   -4.8407   18.8534 C   0  0  0  0  0  0  0  0  0  0  0  0
    9.1596    1.7042   24.1381 C   0  0  0  0  0  0  0  0  0  0  0  0
   11.0456   -2.9774   18.2694 N   0  0  0  0  0  0  0  0  0  0  0  0
   10.4788   -3.0457   21.8593 C   0  0  0  0  0  0  0  0  0  0  0  0
    8.8693   -5.8099   18.4657 N   0  0  0  0  0  0  0  0  0  0  0  0
    8.9892   -0.7926   25.4573 C   0  0  0  0  0  0  0  0  0  0  0  0
   10.5677   -3.4462   20.5323 C   0  0  0  0  0  0  0  0  0  0  0  0
  1  8  1  0
  1 12  4  0
  1 14  4  0
  2  3  4  0
  2 18  4  0
  3 20  4  0
  3 22  4  0
  4 11  4  0
  4 21  4  0
  5  9  4  0
  5 16  4  0
  6 15  4  0
  6 16  4  0
  7 22  4  0
  7 26  4  0
  8 10  4  0
  8 25  4  0
  9 15  4  0
  9 17  1  0
 10 21  4  0
 11 25  4  0
 12 23  4  0
 13 20  4  0
 13 26  4  0
 14 19  4  0
 17 18  4  0
 17 24  4  0
 19 23  4  0
 20 24  4  0
 23 26  1  0
M  END
$$$$

 Created by Python create_sdf_string function

 26 30  0  0  0  0  0  0  0  0999 V2000
   10.0084   -1.8019   23.4945 C   0  0  0  0  0  0  0  0  0  0  0  0
   10.0005   -4.2520   16.5631 C   0  0  0  0  0  0  0  0  0  0  0  0
   10.2759   -4.0036   17.8845 C   0  0  0  0  0  0  0  0  0  0  0  0
    8.5652    1.5478   25.3778 N   0  0  0  0  0  0  0  0  0  0  0  0
    6.8048   -7.5457   17.8752 C   0  0  0  0  0  0  0  0  0  0  0  0
    6.1721   -8.2186   15.9886 N   0  0  0  0  0  0  0  0  0  0  0  0
   11.1764   -2.6600   19.5604 C   0  0  0  0  0  0  0  0  0  0  0  0
    9.5491   -0.6380   24.1912 C   0  0  0  0  0  0  0  0  0  0  0  0
    7.5337   -6.9256   16.9519 C   0  0  0  0  0  0  0  0  0  0  0  0
    9.6782    0.5671   23.5143 C   0  0  0  0  0  0  0  0  0  0  0  0
    8.4532    0.3482   26.0821 C   0  0  0  0  0  0  0  0  0  0  0  0
   10.4239   -1.7677   22.2230 N   0  0  0  0  0  0  0  0  0  0  0  0
    9.9468   -4.5953   20.1709 C   0  0  0  0  0  0  0  0  0  0  0  0
   10.0366   -3.0590   23.9864 N   0  0  0  0  0  0  0  0  0  0  0  0
    7.1191   -7.3636   15.7739 C   0  0  0  0  0  0  0  0  0  0  0  0
    5.9612   -8.3203   17.2732 N   0  0  0  0  0  0  0  0  0  0  0  0
    8.5296   -5.9814   17.1841 C   0  0  0  0  0  0  0  0  0  0  0  0
    9.1527   -5.2118   16.2116 C   0  0  0  0  0  0  0  0  0  0  0  0
   10.3364   -3.8368   22.9255 O   0  0  0  0  0  0  0  0  0  0  0  0
    9.6947   -4.8407   18.8534 C   0  0  0  0  0  0  0  0  0  0  0  0
    9.1596    1.7042   24.1381 C   0  0  0  0  0  0  0  0  0  0  0  0
   11.0456   -2.9774   18.2694 N   0  0  0  0  0  0  0  0  0  0  0  0
   10.4788   -3.0457   21.8593 C   0  0  0  0  0  0  0  0  0  0  0  0
    8.8693   -5.8099   18.4657 N   0  0  0  0  0  0  0  0  0  0  0  0
    8.9892   -0.7926   25.4573 C   0  0  0  0  0  0  0  0  0  0  0  0
   10.5677   -3.4462   20.5323 C   0  0  0  0  0  0  0  0  0  0  0  0
  1  8  1  0
  1 12  4  0
  1 14  4  0
  2  3  4  0
  2 18  4  0
  3 20  4  0
  3 22  4  0
  4 11  4  0
  4 21  4  0
  5  9  4  0
  5 16  4  0
  6 15  4  0
  6 16  4  0
  7 22  4  0
  7 26  4  0
  8 10  4  0
  8 25  4  0
  9 15  4  0
  9 17  1  0
 10 21  4  0
 11 25  4  0
 12 23  4  0
 13 20  4  0
 13 26  4  0
 14 19  4  0
 17 18  4  0
 17 24  4  0
 19 23  4  0
 20 24  4  0
 23 26  1  0
M  END
$$$$

 Created by Python create_sdf_string function

 26 30  0  0  0  0  0  0  0  0999 V2000
   10.0084   -1.8019   23.4945 C   0  0  0  0  0  0  0  0  0  0  0  0
   10.0005   -4.2520   16.5631 C   0  0  0  0  0  0  0  0  0  0  0  0
   10.2759   -4.0036   17.8845 C   0  0  0  0  0  0  0  0  0  0  0  0
    8.5652    1.5478   25.3778 N   0  0  0  0  0  0  0  0  0  0  0  0
    6.8048   -7.5457   17.8752 C   0  0  0  0  0  0  0  0  0  0  0  0
    6.1721   -8.2186   15.9886 N   0  0  0  0  0  0  0  0  0  0  0  0
   11.1764   -2.6600   19.5604 C   0  0  0  0  0  0  0  0  0  0  0  0
    9.5491   -0.6380   24.1912 C   0  0  0  0  0  0  0  0  0  0  0  0
    7.5337   -6.9256   16.9519 C   0  0  0  0  0  0  0  0  0  0  0  0
    9.6782    0.5671   23.5143 C   0  0  0  0  0  0  0  0  0  0  0  0
    8.4532    0.3482   26.0821 C   0  0  0  0  0  0  0  0  0  0  0  0
   10.4239   -1.7677   22.2230 N   0  0  0  0  0  0  0  0  0  0  0  0
    9.9468   -4.5953   20.1709 C   0  0  0  0  0  0  0  0  0  0  0  0
   10.0366   -3.0590   23.9864 N   0  0  0  0  0  0  0  0  0  0  0  0
    7.1191   -7.3636   15.7739 C   0  0  0  0  0  0  0  0  0  0  0  0
    5.9612   -8.3203   17.2732 N   0  0  0  0  0  0  0  0  0  0  0  0
    8.5296   -5.9814   17.1841 C   0  0  0  0  0  0  0  0  0  0  0  0
    9.1527   -5.2118   16.2116 C   0  0  0  0  0  0  0  0  0  0  0  0
   10.3364   -3.8368   22.9255 O   0  0  0  0  0  0  0  0  0  0  0  0
    9.6947   -4.8407   18.8534 C   0  0  0  0  0  0  0  0  0  0  0  0
    9.1596    1.7042   24.1381 C   0  0  0  0  0  0  0  0  0  0  0  0
   11.0456   -2.9774   18.2694 N   0  0  0  0  0  0  0  0  0  0  0  0
   10.4788   -3.0457   21.8593 C   0  0  0  0  0  0  0  0  0  0  0  0
    8.8693   -5.8099   18.4657 N   0  0  0  0  0  0  0  0  0  0  0  0
    8.9892   -0.7926   25.4573 C   0  0  0  0  0  0  0  0  0  0  0  0
   10.5677   -3.4462   20.5323 C   0  0  0  0  0  0  0  0  0  0  0  0
  1  8  1  0
  1 12  4  0
  1 14  4  0
  2  3  4  0
  2 18  4  0
  3 20  4  0
  3 22  4  0
  4 11  4  0
  4 21  4  0
  5  9  4  0
  5 16  4  0
  6 15  4  0
  6 16  4  0
  7 22  4  0
  7 26  4  0
  8 10  4  0
  8 25  4  0
  9 15  4  0
  9 17  1  0
 10 21  4  0
 11 25  4  0
 12 23  4  0
 13 20  4  0
 13 26  4  0
 14 19  4  0
 17 18  4  0
 17 24  4  0
 19 23  4  0
 20 24  4  0
 23 26  1  0
M  END
$$$$

 Created by Python create_sdf_string function

 26 30  0  0  0  0  0  0  0  0999 V2000
   10.0084   -1.8019   23.4945 C   0  0  0  0  0  0  0  0  0  0  0  0
   10.0005   -4.2520   16.5631 C   0  0  0  0  0  0  0  0  0  0  0  0
   10.2759   -4.0036   17.8845 C   0  0  0  0  0  0  0  0  0  0  0  0
    8.5652    1.5478   25.3778 N   0  0  0  0  0  0  0  0  0  0  0  0
    6.8048   -7.5457   17.8752 C   0  0  0  0  0  0  0  0  0  0  0  0
    6.1721   -8.2186   15.9886 N   0  0  0  0  0  0  0  0  0  0  0  0
   11.1764   -2.6600   19.5604 C   0  0  0  0  0  0  0  0  0  0  0  0
    9.5491   -0.6380   24.1912 C   0  0  0  0  0  0  0  0  0  0  0  0
    7.5337   -6.9256   16.9519 C   0  0  0  0  0  0  0  0  0  0  0  0
    9.6782    0.5671   23.5143 C   0  0  0  0  0  0  0  0  0  0  0  0
    8.4532    0.3482   26.0821 C   0  0  0  0  0  0  0  0  0  0  0  0
   10.4239   -1.7677   22.2230 N   0  0  0  0  0  0  0  0  0  0  0  0
    9.9468   -4.5953   20.1709 C   0  0  0  0  0  0  0  0  0  0  0  0
   10.0366   -3.0590   23.9864 N   0  0  0  0  0  0  0  0  0  0  0  0
    7.1191   -7.3636   15.7739 C   0  0  0  0  0  0  0  0  0  0  0  0
    5.9612   -8.3203   17.2732 N   0  0  0  0  0  0  0  0  0  0  0  0
    8.5296   -5.9814   17.1841 C   0  0  0  0  0  0  0  0  0  0  0  0
    9.1527   -5.2118   16.2116 C   0  0  0  0  0  0  0  0  0  0  0  0
   10.3364   -3.8368   22.9255 O   0  0  0  0  0  0  0  0  0  0  0  0
    9.6947   -4.8407   18.8534 C   0  0  0  0  0  0  0  0  0  0  0  0
    9.1596    1.7042   24.1381 C   0  0  0  0  0  0  0  0  0  0  0  0
   11.0456   -2.9774   18.2694 N   0  0  0  0  0  0  0  0  0  0  0  0
   10.4788   -3.0457   21.8593 C   0  0  0  0  0  0  0  0  0  0  0  0
    8.8693   -5.8099   18.4657 N   0  0  0  0  0  0  0  0  0  0  0  0
    8.9892   -0.7926   25.4573 C   0  0  0  0  0  0  0  0  0  0  0  0
   10.5677   -3.4462   20.5323 C   0  0  0  0  0  0  0  0  0  0  0  0
  1  8  1  0
  1 12  4  0
  1 14  4  0
  2  3  4  0
  2 18  4  0
  3 20  4  0
  3 22  4  0
  4 11  4  0
  4 21  4  0
  5  9  4  0
  5 16  4  0
  6 15  4  0
  6 16  4  0
  7 22  4  0
  7 26  4  0
  8 10  4  0
  8 25  4  0
  9 15  4  0
  9 17  1  0
 10 21  4  0
 11 25  4  0
 12 23  4  0
 13 20  4  0
 13 26  4  0
 14 19  4  0
 17 18  4  0
 17 24  4  0
 19 23  4  0
 20 24  4  0
 23 26  1  0
M  END
$$$$

 Created by Python create_sdf_string function

 26 30  0  0  0  0  0  0  0  0999 V2000
   10.0084   -1.8019   23.4945 C   0  0  0  0  0  0  0  0  0  0  0  0
   10.0005   -4.2520   16.5631 C   0  0  0  0  0  0  0  0  0  0  0  0
   10.2759   -4.0036   17.8845 C   0  0  0  0  0  0  0  0  0  0  0  0
    8.5652    1.5478   25.3778 N   0  0  0  0  0  0  0  0  0  0  0  0
    6.8048   -7.5457   17.8752 C   0  0  0  0  0  0  0  0  0  0  0  0
    6.1721   -8.2186   15.9886 N   0  0  0  0  0  0  0  0  0  0  0  0
   11.1764   -2.6600   19.5604 C   0  0  0  0  0  0  0  0  0  0  0  0
    9.5491   -0.6380   24.1912 C   0  0  0  0  0  0  0  0  0  0  0  0
    7.5337   -6.9256   16.9519 C   0  0  0  0  0  0  0  0  0  0  0  0
    9.6782    0.5671   23.5143 C   0  0  0  0  0  0  0  0  0  0  0  0
    8.4532    0.3482   26.0821 C   0  0  0  0  0  0  0  0  0  0  0  0
   10.4239   -1.7677   22.2230 N   0  0  0  0  0  0  0  0  0  0  0  0
    9.9468   -4.5953   20.1709 C   0  0  0  0  0  0  0  0  0  0  0  0
   10.0366   -3.0590   23.9864 N   0  0  0  0  0  0  0  0  0  0  0  0
    7.1191   -7.3636   15.7739 C   0  0  0  0  0  0  0  0  0  0  0  0
    5.9612   -8.3203   17.2732 N   0  0  0  0  0  0  0  0  0  0  0  0
    8.5296   -5.9814   17.1841 C   0  0  0  0  0  0  0  0  0  0  0  0
    9.1527   -5.2118   16.2116 C   0  0  0  0  0  0  0  0  0  0  0  0
   10.3364   -3.8368   22.9255 O   0  0  0  0  0  0  0  0  0  0  0  0
    9.6947   -4.8407   18.8534 C   0  0  0  0  0  0  0  0  0  0  0  0
    9.1596    1.7042   24.1381 C   0  0  0  0  0  0  0  0  0  0  0  0
   11.0456   -2.9774   18.2694 N   0  0  0  0  0  0  0  0  0  0  0  0
   10.4788   -3.0457   21.8593 C   0  0  0  0  0  0  0  0  0  0  0  0
    8.8693   -5.8099   18.4657 N   0  0  0  0  0  0  0  0  0  0  0  0
    8.9892   -0.7926   25.4573 C   0  0  0  0  0  0  0  0  0  0  0  0
   10.5677   -3.4462   20.5323 C   0  0  0  0  0  0  0  0  0  0  0  0
  1  8  1  0
  1 12  4  0
  1 14  4  0
  2  3  4  0
  2 18  4  0
  3 20  4  0
  3 22  4  0
  4 11  4  0
  4 21  4  0
  5  9  4  0
  5 16  4  0
  6 15  4  0
  6 16  4  0
  7 22  4  0
  7 26  4  0
  8 10  4  0
  8 25  4  0
  9 15  4  0
  9 17  1  0
 10 21  4  0
 11 25  4  0
 12 23  4  0
 13 20  4  0
 13 26  4  0
 14 19  4  0
 17 18  4  0
 17 24  4  0
 19 23  4  0
 20 24  4  0
 23 26  1  0
M  END
$$$$

 Created by Python create_sdf_string function

 26 30  0  0  0  0  0  0  0  0999 V2000
   10.0084   -1.8019   23.4945 C   0  0  0  0  0  0  0  0  0  0  0  0
   10.0005   -4.2520   16.5631 C   0  0  0  0  0  0  0  0  0  0  0  0
   10.2759   -4.0036   17.8845 C   0  0  0  0  0  0  0  0  0  0  0  0
    8.5652    1.5478   25.3778 N   0  0  0  0  0  0  0  0  0  0  0  0
    6.8048   -7.5457   17.8752 C   0  0  0  0  0  0  0  0  0  0  0  0
    6.1721   -8.2186   15.9886 N   0  0  0  0  0  0  0  0  0  0  0  0
   11.1764   -2.6600   19.5604 C   0  0  0  0  0  0  0  0  0  0  0  0
    9.5491   -0.6380   24.1912 C   0  0  0  0  0  0  0  0  0  0  0  0
    7.5337   -6.9256   16.9519 C   0  0  0  0  0  0  0  0  0  0  0  0
    9.6782    0.5671   23.5143 C   0  0  0  0  0  0  0  0  0  0  0  0
    8.4532    0.3482   26.0821 C   0  0  0  0  0  0  0  0  0  0  0  0
   10.4239   -1.7677   22.2230 N   0  0  0  0  0  0  0  0  0  0  0  0
    9.9468   -4.5953   20.1709 C   0  0  0  0  0  0  0  0  0  0  0  0
   10.0366   -3.0590   23.9864 N   0  0  0  0  0  0  0  0  0  0  0  0
    7.1191   -7.3636   15.7739 C   0  0  0  0  0  0  0  0  0  0  0  0
    5.9612   -8.3203   17.2732 N   0  0  0  0  0  0  0  0  0  0  0  0
    8.5296   -5.9814   17.1841 C   0  0  0  0  0  0  0  0  0  0  0  0
    9.1527   -5.2118   16.2116 C   0  0  0  0  0  0  0  0  0  0  0  0
   10.3364   -3.8368   22.9255 O   0  0  0  0  0  0  0  0  0  0  0  0
    9.6947   -4.8407   18.8534 C   0  0  0  0  0  0  0  0  0  0  0  0
    9.1596    1.7042   24.1381 C   0  0  0  0  0  0  0  0  0  0  0  0
   11.0456   -2.9774   18.2694 N   0  0  0  0  0  0  0  0  0  0  0  0
   10.4788   -3.0457   21.8593 C   0  0  0  0  0  0  0  0  0  0  0  0
    8.8693   -5.8099   18.4657 N   0  0  0  0  0  0  0  0  0  0  0  0
    8.9892   -0.7926   25.4573 C   0  0  0  0  0  0  0  0  0  0  0  0
   10.5677   -3.4462   20.5323 C   0  0  0  0  0  0  0  0  0  0  0  0
  1  8  1  0
  1 12  4  0
  1 14  4  0
  2  3  4  0
  2 18  4  0
  3 20  4  0
  3 22  4  0
  4 11  4  0
  4 21  4  0
  5  9  4  0
  5 16  4  0
  6 15  4  0
  6 16  4  0
  7 22  4  0
  7 26  4  0
  8 10  4  0
  8 25  4  0
  9 15  4  0
  9 17  1  0
 10 21  4  0
 11 25  4  0
 12 23  4  0
 13 20  4  0
 13 26  4  0
 14 19  4  0
 17 18  4  0
 17 24  4  0
 19 23  4  0
 20 24  4  0
 23 26  1  0
M  END
$$$$

 Created by Python create_sdf_string function

 26 30  0  0  0  0  0  0  0  0999 V2000
   10.0084   -1.8019   23.4945 C   0  0  0  0  0  0  0  0  0  0  0  0
   10.0005   -4.2520   16.5631 C   0  0  0  0  0  0  0  0  0  0  0  0
   10.2759   -4.0036   17.8845 C   0  0  0  0  0  0  0  0  0  0  0  0
    8.5652    1.5478   25.3778 N   0  0  0  0  0  0  0  0  0  0  0  0
    6.8048   -7.5457   17.8752 C   0  0  0  0  0  0  0  0  0  0  0  0
    6.1721   -8.2186   15.9886 N   0  0  0  0  0  0  0  0  0  0  0  0
   11.1764   -2.6600   19.5604 C   0  0  0  0  0  0  0  0  0  0  0  0
    9.5491   -0.6380   24.1912 C   0  0  0  0  0  0  0  0  0  0  0  0
    7.5337   -6.9256   16.9519 C   0  0  0  0  0  0  0  0  0  0  0  0
    9.6782    0.5671   23.5143 C   0  0  0  0  0  0  0  0  0  0  0  0
    8.4532    0.3482   26.0821 C   0  0  0  0  0  0  0  0  0  0  0  0
   10.4239   -1.7677   22.2230 N   0  0  0  0  0  0  0  0  0  0  0  0
    9.9468   -4.5953   20.1709 C   0  0  0  0  0  0  0  0  0  0  0  0
   10.0366   -3.0590   23.9864 N   0  0  0  0  0  0  0  0  0  0  0  0
    7.1191   -7.3636   15.7739 C   0  0  0  0  0  0  0  0  0  0  0  0
    5.9612   -8.3203   17.2732 N   0  0  0  0  0  0  0  0  0  0  0  0
    8.5296   -5.9814   17.1841 C   0  0  0  0  0  0  0  0  0  0  0  0
    9.1527   -5.2118   16.2116 C   0  0  0  0  0  0  0  0  0  0  0  0
   10.3364   -3.8368   22.9255 O   0  0  0  0  0  0  0  0  0  0  0  0
    9.6947   -4.8407   18.8534 C   0  0  0  0  0  0  0  0  0  0  0  0
    9.1596    1.7042   24.1381 C   0  0  0  0  0  0  0  0  0  0  0  0
   11.0456   -2.9774   18.2694 N   0  0  0  0  0  0  0  0  0  0  0  0
   10.4788   -3.0457   21.8593 C   0  0  0  0  0  0  0  0  0  0  0  0
    8.8693   -5.8099   18.4657 N   0  0  0  0  0  0  0  0  0  0  0  0
    8.9892   -0.7926   25.4573 C   0  0  0  0  0  0  0  0  0  0  0  0
   10.5677   -3.4462   20.5323 C   0  0  0  0  0  0  0  0  0  0  0  0
  1  8  1  0
  1 12  4  0
  1 14  4  0
  2  3  4  0
  2 18  4  0
  3 20  4  0
  3 22  4  0
  4 11  4  0
  4 21  4  0
  5  9  4  0
  5 16  4  0
  6 15  4  0
  6 16  4  0
  7 22  4  0
  7 26  4  0
  8 10  4  0
  8 25  4  0
  9 15  4  0
  9 17  1  0
 10 21  4  0
 11 25  4  0
 12 23  4  0
 13 20  4  0
 13 26  4  0
 14 19  4  0
 17 18  4  0
 17 24  4  0
 19 23  4  0
 20 24  4  0
 23 26  1  0
M  END
$$$$

 Created by Python create_sdf_string function

 26 30  0  0  0  0  0  0  0  0999 V2000
   10.0084   -1.8019   23.4945 C   0  0  0  0  0  0  0  0  0  0  0  0
   10.0005   -4.2520   16.5631 C   0  0  0  0  0  0  0  0  0  0  0  0
   10.2759   -4.0036   17.8845 C   0  0  0  0  0  0  0  0  0  0  0  0
    8.5652    1.5478   25.3778 N   0  0  0  0  0  0  0  0  0  0  0  0
    6.8048   -7.5457   17.8752 C   0  0  0  0  0  0  0  0  0  0  0  0
    6.1721   -8.2186   15.9886 N   0  0  0  0  0  0  0  0  0  0  0  0
   11.1764   -2.6600   19.5604 C   0  0  0  0  0  0  0  0  0  0  0  0
    9.5491   -0.6380   24.1912 C   0  0  0  0  0  0  0  0  0  0  0  0
    7.5337   -6.9256   16.9519 C   0  0  0  0  0  0  0  0  0  0  0  0
    9.6782    0.5671   23.5143 C   0  0  0  0  0  0  0  0  0  0  0  0
    8.4532    0.3482   26.0821 C   0  0  0  0  0  0  0  0  0  0  0  0
   10.4239   -1.7677   22.2230 N   0  0  0  0  0  0  0  0  0  0  0  0
    9.9468   -4.5953   20.1709 C   0  0  0  0  0  0  0  0  0  0  0  0
   10.0366   -3.0590   23.9864 N   0  0  0  0  0  0  0  0  0  0  0  0
    7.1191   -7.3636   15.7739 C   0  0  0  0  0  0  0  0  0  0  0  0
    5.9612   -8.3203   17.2732 N   0  0  0  0  0  0  0  0  0  0  0  0
    8.5296   -5.9814   17.1841 C   0  0  0  0  0  0  0  0  0  0  0  0
    9.1527   -5.2118   16.2116 C   0  0  0  0  0  0  0  0  0  0  0  0
   10.3364   -3.8368   22.9255 O   0  0  0  0  0  0  0  0  0  0  0  0
    9.6947   -4.8407   18.8534 C   0  0  0  0  0  0  0  0  0  0  0  0
    9.1596    1.7042   24.1381 C   0  0  0  0  0  0  0  0  0  0  0  0
   11.0456   -2.9774   18.2694 N   0  0  0  0  0  0  0  0  0  0  0  0
   10.4788   -3.0457   21.8593 C   0  0  0  0  0  0  0  0  0  0  0  0
    8.8693   -5.8099   18.4657 N   0  0  0  0  0  0  0  0  0  0  0  0
    8.9892   -0.7926   25.4573 C   0  0  0  0  0  0  0  0  0  0  0  0
   10.5677   -3.4462   20.5323 C   0  0  0  0  0  0  0  0  0  0  0  0
  1  8  1  0
  1 12  4  0
  1 14  4  0
  2  3  4  0
  2 18  4  0
  3 20  4  0
  3 22  4  0
  4 11  4  0
  4 21  4  0
  5  9  4  0
  5 16  4  0
  6 15  4  0
  6 16  4  0
  7 22  4  0
  7 26  4  0
  8 10  4  0
  8 25  4  0
  9 15  4  0
  9 17  1  0
 10 21  4  0
 11 25  4  0
 12 23  4  0
 13 20  4  0
 13 26  4  0
 14 19  4  0
 17 18  4  0
 17 24  4  0
 19 23  4  0
 20 24  4  0
 23 26  1  0
M  END
$$$$

 Created by Python create_sdf_string function

 26 30  0  0  0  0  0  0  0  0999 V2000
   10.0084   -1.8019   23.4945 C   0  0  0  0  0  0  0  0  0  0  0  0
   10.0005   -4.2520   16.5631 C   0  0  0  0  0  0  0  0  0  0  0  0
   10.2759   -4.0036   17.8845 C   0  0  0  0  0  0  0  0  0  0  0  0
    8.5652    1.5478   25.3778 N   0  0  0  0  0  0  0  0  0  0  0  0
    6.8048   -7.5457   17.8752 C   0  0  0  0  0  0  0  0  0  0  0  0
    6.1721   -8.2186   15.9886 N   0  0  0  0  0  0  0  0  0  0  0  0
   11.1764   -2.6600   19.5604 C   0  0  0  0  0  0  0  0  0  0  0  0
    9.5491   -0.6380   24.1912 C   0  0  0  0  0  0  0  0  0  0  0  0
    7.5337   -6.9256   16.9519 C   0  0  0  0  0  0  0  0  0  0  0  0
    9.6782    0.5671   23.5143 C   0  0  0  0  0  0  0  0  0  0  0  0
    8.4532    0.3482   26.0821 C   0  0  0  0  0  0  0  0  0  0  0  0
   10.4239   -1.7677   22.2230 N   0  0  0  0  0  0  0  0  0  0  0  0
    9.9468   -4.5953   20.1709 C   0  0  0  0  0  0  0  0  0  0  0  0
   10.0366   -3.0590   23.9864 N   0  0  0  0  0  0  0  0  0  0  0  0
    7.1191   -7.3636   15.7739 C   0  0  0  0  0  0  0  0  0  0  0  0
    5.9612   -8.3203   17.2732 N   0  0  0  0  0  0  0  0  0  0  0  0
    8.5296   -5.9814   17.1841 C   0  0  0  0  0  0  0  0  0  0  0  0
    9.1527   -5.2118   16.2116 C   0  0  0  0  0  0  0  0  0  0  0  0
   10.3364   -3.8368   22.9255 O   0  0  0  0  0  0  0  0  0  0  0  0
    9.6947   -4.8407   18.8534 C   0  0  0  0  0  0  0  0  0  0  0  0
    9.1596    1.7042   24.1381 C   0  0  0  0  0  0  0  0  0  0  0  0
   11.0456   -2.9774   18.2694 N   0  0  0  0  0  0  0  0  0  0  0  0
   10.4788   -3.0457   21.8593 C   0  0  0  0  0  0  0  0  0  0  0  0
    8.8693   -5.8099   18.4657 N   0  0  0  0  0  0  0  0  0  0  0  0
    8.9892   -0.7926   25.4573 C   0  0  0  0  0  0  0  0  0  0  0  0
   10.5677   -3.4462   20.5323 C   0  0  0  0  0  0  0  0  0  0  0  0
  1  8  1  0
  1 12  4  0
  1 14  4  0
  2  3  4  0
  2 18  4  0
  3 20  4  0
  3 22  4  0
  4 11  4  0
  4 21  4  0
  5  9  4  0
  5 16  4  0
  6 15  4  0
  6 16  4  0
  7 22  4  0
  7 26  4  0
  8 10  4  0
  8 25  4  0
  9 15  4  0
  9 17  1  0
 10 21  4  0
 11 25  4  0
 12 23  4  0
 13 20  4  0
 13 26  4  0
 14 19  4  0
 17 18  4  0
 17 24  4  0
 19 23  4  0
 20 24  4  0
 23 26  1  0
M  END
$$$$

 Created by Python create_sdf_string function

 26 30  0  0  0  0  0  0  0  0999 V2000
   10.0084   -1.8019   23.4945 C   0  0  0  0  0  0  0  0  0  0  0  0
   10.0005   -4.2520   16.5631 C   0  0  0  0  0  0  0  0  0  0  0  0
   10.2759   -4.0036   17.8845 C   0  0  0  0  0  0  0  0  0  0  0  0
    8.5652    1.5478   25.3778 N   0  0  0  0  0  0  0  0  0  0  0  0
    6.8048   -7.5457   17.8752 C   0  0  0  0  0  0  0  0  0  0  0  0
    6.1721   -8.2186   15.9886 N   0  0  0  0  0  0  0  0  0  0  0  0
   11.1764   -2.6600   19.5604 C   0  0  0  0  0  0  0  0  0  0  0  0
    9.5491   -0.6380   24.1912 C   0  0  0  0  0  0  0  0  0  0  0  0
    7.5337   -6.9256   16.9519 C   0  0  0  0  0  0  0  0  0  0  0  0
    9.6782    0.5671   23.5143 C   0  0  0  0  0  0  0  0  0  0  0  0
    8.4532    0.3482   26.0821 C   0  0  0  0  0  0  0  0  0  0  0  0
   10.4239   -1.7677   22.2230 N   0  0  0  0  0  0  0  0  0  0  0  0
    9.9468   -4.5953   20.1709 C   0  0  0  0  0  0  0  0  0  0  0  0
   10.0366   -3.0590   23.9864 N   0  0  0  0  0  0  0  0  0  0  0  0
    7.1191   -7.3636   15.7739 C   0  0  0  0  0  0  0  0  0  0  0  0
    5.9612   -8.3203   17.2732 N   0  0  0  0  0  0  0  0  0  0  0  0
    8.5296   -5.9814   17.1841 C   0  0  0  0  0  0  0  0  0  0  0  0
    9.1527   -5.2118   16.2116 C   0  0  0  0  0  0  0  0  0  0  0  0
   10.3364   -3.8368   22.9255 O   0  0  0  0  0  0  0  0  0  0  0  0
    9.6947   -4.8407   18.8534 C   0  0  0  0  0  0  0  0  0  0  0  0
    9.1596    1.7042   24.1381 C   0  0  0  0  0  0  0  0  0  0  0  0
   11.0456   -2.9774   18.2694 N   0  0  0  0  0  0  0  0  0  0  0  0
   10.4788   -3.0457   21.8593 C   0  0  0  0  0  0  0  0  0  0  0  0
    8.8693   -5.8099   18.4657 N   0  0  0  0  0  0  0  0  0  0  0  0
    8.9892   -0.7926   25.4573 C   0  0  0  0  0  0  0  0  0  0  0  0
   10.5677   -3.4462   20.5323 C   0  0  0  0  0  0  0  0  0  0  0  0
  1  8  1  0
  1 12  4  0
  1 14  4  0
  2  3  4  0
  2 18  4  0
  3 20  4  0
  3 22  4  0
  4 11  4  0
  4 21  4  0
  5  9  4  0
  5 16  4  0
  6 15  4  0
  6 16  4  0
  7 22  4  0
  7 26  4  0
  8 10  4  0
  8 25  4  0
  9 15  4  0
  9 17  1  0
 10 21  4  0
 11 25  4  0
 12 23  4  0
 13 20  4  0
 13 26  4  0
 14 19  4  0
 17 18  4  0
 17 24  4  0
 19 23  4  0
 20 24  4  0
 23 26  1  0
M  END
$$$$

 Created by Python create_sdf_string function

 26 30  0  0  0  0  0  0  0  0999 V2000
   10.0084   -1.8019   23.4945 C   0  0  0  0  0  0  0  0  0  0  0  0
   10.0005   -4.2520   16.5631 C   0  0  0  0  0  0  0  0  0  0  0  0
   10.2759   -4.0036   17.8845 C   0  0  0  0  0  0  0  0  0  0  0  0
    8.5652    1.5478   25.3778 N   0  0  0  0  0  0  0  0  0  0  0  0
    6.8048   -7.5457   17.8752 C   0  0  0  0  0  0  0  0  0  0  0  0
    6.1721   -8.2186   15.9886 N   0  0  0  0  0  0  0  0  0  0  0  0
   11.1764   -2.6600   19.5604 C   0  0  0  0  0  0  0  0  0  0  0  0
    9.5491   -0.6380   24.1912 C   0  0  0  0  0  0  0  0  0  0  0  0
    7.5337   -6.9256   16.9519 C   0  0  0  0  0  0  0  0  0  0  0  0
    9.6782    0.5671   23.5143 C   0  0  0  0  0  0  0  0  0  0  0  0
    8.4532    0.3482   26.0821 C   0  0  0  0  0  0  0  0  0  0  0  0
   10.4239   -1.7677   22.2230 N   0  0  0  0  0  0  0  0  0  0  0  0
    9.9468   -4.5953   20.1709 C   0  0  0  0  0  0  0  0  0  0  0  0
   10.0366   -3.0590   23.9864 N   0  0  0  0  0  0  0  0  0  0  0  0
    7.1191   -7.3636   15.7739 C   0  0  0  0  0  0  0  0  0  0  0  0
    5.9612   -8.3203   17.2732 N   0  0  0  0  0  0  0  0  0  0  0  0
    8.5296   -5.9814   17.1841 C   0  0  0  0  0  0  0  0  0  0  0  0
    9.1527   -5.2118   16.2116 C   0  0  0  0  0  0  0  0  0  0  0  0
   10.3364   -3.8368   22.9255 O   0  0  0  0  0  0  0  0  0  0  0  0
    9.6947   -4.8407   18.8534 C   0  0  0  0  0  0  0  0  0  0  0  0
    9.1596    1.7042   24.1381 C   0  0  0  0  0  0  0  0  0  0  0  0
   11.0456   -2.9774   18.2694 N   0  0  0  0  0  0  0  0  0  0  0  0
   10.4788   -3.0457   21.8593 C   0  0  0  0  0  0  0  0  0  0  0  0
    8.8693   -5.8099   18.4657 N   0  0  0  0  0  0  0  0  0  0  0  0
    8.9892   -0.7926   25.4573 C   0  0  0  0  0  0  0  0  0  0  0  0
   10.5677   -3.4462   20.5323 C   0  0  0  0  0  0  0  0  0  0  0  0
  1  8  1  0
  1 12  4  0
  1 14  4  0
  2  3  4  0
  2 18  4  0
  3 20  4  0
  3 22  4  0
  4 11  4  0
  4 21  4  0
  5  9  4  0
  5 16  4  0
  6 15  4  0
  6 16  4  0
  7 22  4  0
  7 26  4  0
  8 10  4  0
  8 25  4  0
  9 15  4  0
  9 17  1  0
 10 21  4  0
 11 25  4  0
 12 23  4  0
 13 20  4  0
 13 26  4  0
 14 19  4  0
 17 18  4  0
 17 24  4  0
 19 23  4  0
 20 24  4  0
 23 26  1  0
M  END
$$$$

 Created by Python create_sdf_string function

 26 30  0  0  0  0  0  0  0  0999 V2000
   10.0084   -1.8019   23.4945 C   0  0  0  0  0  0  0  0  0  0  0  0
   10.0005   -4.2520   16.5631 C   0  0  0  0  0  0  0  0  0  0  0  0
   10.2759   -4.0036   17.8845 C   0  0  0  0  0  0  0  0  0  0  0  0
    8.5652    1.5478   25.3778 N   0  0  0  0  0  0  0  0  0  0  0  0
    6.8048   -7.5457   17.8752 C   0  0  0  0  0  0  0  0  0  0  0  0
    6.1721   -8.2186   15.9886 N   0  0  0  0  0  0  0  0  0  0  0  0
   11.1764   -2.6600   19.5604 C   0  0  0  0  0  0  0  0  0  0  0  0
    9.5491   -0.6380   24.1912 C   0  0  0  0  0  0  0  0  0  0  0  0
    7.5337   -6.9256   16.9519 C   0  0  0  0  0  0  0  0  0  0  0  0
    9.6782    0.5671   23.5143 C   0  0  0  0  0  0  0  0  0  0  0  0
    8.4532    0.3482   26.0821 C   0  0  0  0  0  0  0  0  0  0  0  0
   10.4239   -1.7677   22.2230 N   0  0  0  0  0  0  0  0  0  0  0  0
    9.9468   -4.5953   20.1709 C   0  0  0  0  0  0  0  0  0  0  0  0
   10.0366   -3.0590   23.9864 N   0  0  0  0  0  0  0  0  0  0  0  0
    7.1191   -7.3636   15.7739 C   0  0  0  0  0  0  0  0  0  0  0  0
    5.9612   -8.3203   17.2732 N   0  0  0  0  0  0  0  0  0  0  0  0
    8.5296   -5.9814   17.1841 C   0  0  0  0  0  0  0  0  0  0  0  0
    9.1527   -5.2118   16.2116 C   0  0  0  0  0  0  0  0  0  0  0  0
   10.3364   -3.8368   22.9255 O   0  0  0  0  0  0  0  0  0  0  0  0
    9.6947   -4.8407   18.8534 C   0  0  0  0  0  0  0  0  0  0  0  0
    9.1596    1.7042   24.1381 C   0  0  0  0  0  0  0  0  0  0  0  0
   11.0456   -2.9774   18.2694 N   0  0  0  0  0  0  0  0  0  0  0  0
   10.4788   -3.0457   21.8593 C   0  0  0  0  0  0  0  0  0  0  0  0
    8.8693   -5.8099   18.4657 N   0  0  0  0  0  0  0  0  0  0  0  0
    8.9892   -0.7926   25.4573 C   0  0  0  0  0  0  0  0  0  0  0  0
   10.5677   -3.4462   20.5323 C   0  0  0  0  0  0  0  0  0  0  0  0
  1  8  1  0
  1 12  4  0
  1 14  4  0
  2  3  4  0
  2 18  4  0
  3 20  4  0
  3 22  4  0
  4 11  4  0
  4 21  4  0
  5  9  4  0
  5 16  4  0
  6 15  4  0
  6 16  4  0
  7 22  4  0
  7 26  4  0
  8 10  4  0
  8 25  4  0
  9 15  4  0
  9 17  1  0
 10 21  4  0
 11 25  4  0
 12 23  4  0
 13 20  4  0
 13 26  4  0
 14 19  4  0
 17 18  4  0
 17 24  4  0
 19 23  4  0
 20 24  4  0
 23 26  1  0
M  END
$$$$

 Created by Python create_sdf_string function

 26 30  0  0  0  0  0  0  0  0999 V2000
   10.0084   -1.8019   23.4945 C   0  0  0  0  0  0  0  0  0  0  0  0
   10.0005   -4.2520   16.5631 C   0  0  0  0  0  0  0  0  0  0  0  0
   10.2759   -4.0036   17.8845 C   0  0  0  0  0  0  0  0  0  0  0  0
    8.5652    1.5478   25.3778 N   0  0  0  0  0  0  0  0  0  0  0  0
    6.8048   -7.5457   17.8752 C   0  0  0  0  0  0  0  0  0  0  0  0
    6.1721   -8.2186   15.9886 N   0  0  0  0  0  0  0  0  0  0  0  0
   11.1764   -2.6600   19.5604 C   0  0  0  0  0  0  0  0  0  0  0  0
    9.5491   -0.6380   24.1912 C   0  0  0  0  0  0  0  0  0  0  0  0
    7.5337   -6.9256   16.9519 C   0  0  0  0  0  0  0  0  0  0  0  0
    9.6782    0.5671   23.5143 C   0  0  0  0  0  0  0  0  0  0  0  0
    8.4532    0.3482   26.0821 C   0  0  0  0  0  0  0  0  0  0  0  0
   10.4239   -1.7677   22.2230 N   0  0  0  0  0  0  0  0  0  0  0  0
    9.9468   -4.5953   20.1709 C   0  0  0  0  0  0  0  0  0  0  0  0
   10.0366   -3.0590   23.9864 N   0  0  0  0  0  0  0  0  0  0  0  0
    7.1191   -7.3636   15.7739 C   0  0  0  0  0  0  0  0  0  0  0  0
    5.9612   -8.3203   17.2732 N   0  0  0  0  0  0  0  0  0  0  0  0
    8.5296   -5.9814   17.1841 C   0  0  0  0  0  0  0  0  0  0  0  0
    9.1527   -5.2118   16.2116 C   0  0  0  0  0  0  0  0  0  0  0  0
   10.3364   -3.8368   22.9255 O   0  0  0  0  0  0  0  0  0  0  0  0
    9.6947   -4.8407   18.8534 C   0  0  0  0  0  0  0  0  0  0  0  0
    9.1596    1.7042   24.1381 C   0  0  0  0  0  0  0  0  0  0  0  0
   11.0456   -2.9774   18.2694 N   0  0  0  0  0  0  0  0  0  0  0  0
   10.4788   -3.0457   21.8593 C   0  0  0  0  0  0  0  0  0  0  0  0
    8.8693   -5.8099   18.4657 N   0  0  0  0  0  0  0  0  0  0  0  0
    8.9892   -0.7926   25.4573 C   0  0  0  0  0  0  0  0  0  0  0  0
   10.5677   -3.4462   20.5323 C   0  0  0  0  0  0  0  0  0  0  0  0
  1  8  1  0
  1 12  4  0
  1 14  4  0
  2  3  4  0
  2 18  4  0
  3 20  4  0
  3 22  4  0
  4 11  4  0
  4 21  4  0
  5  9  4  0
  5 16  4  0
  6 15  4  0
  6 16  4  0
  7 22  4  0
  7 26  4  0
  8 10  4  0
  8 25  4  0
  9 15  4  0
  9 17  1  0
 10 21  4  0
 11 25  4  0
 12 23  4  0
 13 20  4  0
 13 26  4  0
 14 19  4  0
 17 18  4  0
 17 24  4  0
 19 23  4  0
 20 24  4  0
 23 26  1  0
M  END
$$$$

 Created by Python create_sdf_string function

 26 30  0  0  0  0  0  0  0  0999 V2000
   10.0084   -1.8019   23.4945 C   0  0  0  0  0  0  0  0  0  0  0  0
   10.0005   -4.2520   16.5631 C   0  0  0  0  0  0  0  0  0  0  0  0
   10.2759   -4.0036   17.8845 C   0  0  0  0  0  0  0  0  0  0  0  0
    8.5652    1.5478   25.3778 N   0  0  0  0  0  0  0  0  0  0  0  0
    6.8048   -7.5457   17.8752 C   0  0  0  0  0  0  0  0  0  0  0  0
    6.1721   -8.2186   15.9886 N   0  0  0  0  0  0  0  0  0  0  0  0
   11.1764   -2.6600   19.5604 C   0  0  0  0  0  0  0  0  0  0  0  0
    9.5491   -0.6380   24.1912 C   0  0  0  0  0  0  0  0  0  0  0  0
    7.5337   -6.9256   16.9519 C   0  0  0  0  0  0  0  0  0  0  0  0
    9.6782    0.5671   23.5143 C   0  0  0  0  0  0  0  0  0  0  0  0
    8.4532    0.3482   26.0821 C   0  0  0  0  0  0  0  0  0  0  0  0
   10.4239   -1.7677   22.2230 N   0  0  0  0  0  0  0  0  0  0  0  0
    9.9468   -4.5953   20.1709 C   0  0  0  0  0  0  0  0  0  0  0  0
   10.0366   -3.0590   23.9864 N   0  0  0  0  0  0  0  0  0  0  0  0
    7.1191   -7.3636   15.7739 C   0  0  0  0  0  0  0  0  0  0  0  0
    5.9612   -8.3203   17.2732 N   0  0  0  0  0  0  0  0  0  0  0  0
    8.5296   -5.9814   17.1841 C   0  0  0  0  0  0  0  0  0  0  0  0
    9.1527   -5.2118   16.2116 C   0  0  0  0  0  0  0  0  0  0  0  0
   10.3364   -3.8368   22.9255 O   0  0  0  0  0  0  0  0  0  0  0  0
    9.6947   -4.8407   18.8534 C   0  0  0  0  0  0  0  0  0  0  0  0
    9.1596    1.7042   24.1381 C   0  0  0  0  0  0  0  0  0  0  0  0
   11.0456   -2.9774   18.2694 N   0  0  0  0  0  0  0  0  0  0  0  0
   10.4788   -3.0457   21.8593 C   0  0  0  0  0  0  0  0  0  0  0  0
    8.8693   -5.8099   18.4657 N   0  0  0  0  0  0  0  0  0  0  0  0
    8.9892   -0.7926   25.4573 C   0  0  0  0  0  0  0  0  0  0  0  0
   10.5677   -3.4462   20.5323 C   0  0  0  0  0  0  0  0  0  0  0  0
  1  8  1  0
  1 12  4  0
  1 14  4  0
  2  3  4  0
  2 18  4  0
  3 20  4  0
  3 22  4  0
  4 11  4  0
  4 21  4  0
  5  9  4  0
  5 16  4  0
  6 15  4  0
  6 16  4  0
  7 22  4  0
  7 26  4  0
  8 10  4  0
  8 25  4  0
  9 15  4  0
  9 17  1  0
 10 21  4  0
 11 25  4  0
 12 23  4  0
 13 20  4  0
 13 26  4  0
 14 19  4  0
 17 18  4  0
 17 24  4  0
 19 23  4  0
 20 24  4  0
 23 26  1  0
M  END
$$$$

 Created by Python create_sdf_string function

 26 30  0  0  0  0  0  0  0  0999 V2000
   10.0084   -1.8019   23.4945 C   0  0  0  0  0  0  0  0  0  0  0  0
   10.0005   -4.2520   16.5631 C   0  0  0  0  0  0  0  0  0  0  0  0
   10.2759   -4.0036   17.8845 C   0  0  0  0  0  0  0  0  0  0  0  0
    8.5652    1.5478   25.3778 N   0  0  0  0  0  0  0  0  0  0  0  0
    6.8048   -7.5457   17.8752 C   0  0  0  0  0  0  0  0  0  0  0  0
    6.1721   -8.2186   15.9886 N   0  0  0  0  0  0  0  0  0  0  0  0
   11.1764   -2.6600   19.5604 C   0  0  0  0  0  0  0  0  0  0  0  0
    9.5491   -0.6380   24.1912 C   0  0  0  0  0  0  0  0  0  0  0  0
    7.5337   -6.9256   16.9519 C   0  0  0  0  0  0  0  0  0  0  0  0
    9.6782    0.5671   23.5143 C   0  0  0  0  0  0  0  0  0  0  0  0
    8.4532    0.3482   26.0821 C   0  0  0  0  0  0  0  0  0  0  0  0
   10.4239   -1.7677   22.2230 N   0  0  0  0  0  0  0  0  0  0  0  0
    9.9468   -4.5953   20.1709 C   0  0  0  0  0  0  0  0  0  0  0  0
   10.0366   -3.0590   23.9864 N   0  0  0  0  0  0  0  0  0  0  0  0
    7.1191   -7.3636   15.7739 C   0  0  0  0  0  0  0  0  0  0  0  0
    5.9612   -8.3203   17.2732 N   0  0  0  0  0  0  0  0  0  0  0  0
    8.5296   -5.9814   17.1841 C   0  0  0  0  0  0  0  0  0  0  0  0
    9.1527   -5.2118   16.2116 C   0  0  0  0  0  0  0  0  0  0  0  0
   10.3364   -3.8368   22.9255 O   0  0  0  0  0  0  0  0  0  0  0  0
    9.6947   -4.8407   18.8534 C   0  0  0  0  0  0  0  0  0  0  0  0
    9.1596    1.7042   24.1381 C   0  0  0  0  0  0  0  0  0  0  0  0
   11.0456   -2.9774   18.2694 N   0  0  0  0  0  0  0  0  0  0  0  0
   10.4788   -3.0457   21.8593 C   0  0  0  0  0  0  0  0  0  0  0  0
    8.8693   -5.8099   18.4657 N   0  0  0  0  0  0  0  0  0  0  0  0
    8.9892   -0.7926   25.4573 C   0  0  0  0  0  0  0  0  0  0  0  0
   10.5677   -3.4462   20.5323 C   0  0  0  0  0  0  0  0  0  0  0  0
  1  8  1  0
  1 12  4  0
  1 14  4  0
  2  3  4  0
  2 18  4  0
  3 20  4  0
  3 22  4  0
  4 11  4  0
  4 21  4  0
  5  9  4  0
  5 16  4  0
  6 15  4  0
  6 16  4  0
  7 22  4  0
  7 26  4  0
  8 10  4  0
  8 25  4  0
  9 15  4  0
  9 17  1  0
 10 21  4  0
 11 25  4  0
 12 23  4  0
 13 20  4  0
 13 26  4  0
 14 19  4  0
 17 18  4  0
 17 24  4  0
 19 23  4  0
 20 24  4  0
 23 26  1  0
M  END
$$$$

 Created by Python create_sdf_string function

 26 30  0  0  0  0  0  0  0  0999 V2000
   10.0084   -1.8019   23.4945 C   0  0  0  0  0  0  0  0  0  0  0  0
   10.0005   -4.2520   16.5631 C   0  0  0  0  0  0  0  0  0  0  0  0
   10.2759   -4.0036   17.8845 C   0  0  0  0  0  0  0  0  0  0  0  0
    8.5652    1.5478   25.3778 N   0  0  0  0  0  0  0  0  0  0  0  0
    6.8048   -7.5457   17.8752 C   0  0  0  0  0  0  0  0  0  0  0  0
    6.1721   -8.2186   15.9886 N   0  0  0  0  0  0  0  0  0  0  0  0
   11.1764   -2.6600   19.5604 C   0  0  0  0  0  0  0  0  0  0  0  0
    9.5491   -0.6380   24.1912 C   0  0  0  0  0  0  0  0  0  0  0  0
    7.5337   -6.9256   16.9519 C   0  0  0  0  0  0  0  0  0  0  0  0
    9.6782    0.5671   23.5143 C   0  0  0  0  0  0  0  0  0  0  0  0
    8.4532    0.3482   26.0821 C   0  0  0  0  0  0  0  0  0  0  0  0
   10.4239   -1.7677   22.2230 N   0  0  0  0  0  0  0  0  0  0  0  0
    9.9468   -4.5953   20.1709 C   0  0  0  0  0  0  0  0  0  0  0  0
   10.0366   -3.0590   23.9864 N   0  0  0  0  0  0  0  0  0  0  0  0
    7.1191   -7.3636   15.7739 C   0  0  0  0  0  0  0  0  0  0  0  0
    5.9612   -8.3203   17.2732 N   0  0  0  0  0  0  0  0  0  0  0  0
    8.5296   -5.9814   17.1841 C   0  0  0  0  0  0  0  0  0  0  0  0
    9.1527   -5.2118   16.2116 C   0  0  0  0  0  0  0  0  0  0  0  0
   10.3364   -3.8368   22.9255 O   0  0  0  0  0  0  0  0  0  0  0  0
    9.6947   -4.8407   18.8534 C   0  0  0  0  0  0  0  0  0  0  0  0
    9.1596    1.7042   24.1381 C   0  0  0  0  0  0  0  0  0  0  0  0
   11.0456   -2.9774   18.2694 N   0  0  0  0  0  0  0  0  0  0  0  0
   10.4788   -3.0457   21.8593 C   0  0  0  0  0  0  0  0  0  0  0  0
    8.8693   -5.8099   18.4657 N   0  0  0  0  0  0  0  0  0  0  0  0
    8.9892   -0.7926   25.4573 C   0  0  0  0  0  0  0  0  0  0  0  0
   10.5677   -3.4462   20.5323 C   0  0  0  0  0  0  0  0  0  0  0  0
  1  8  1  0
  1 12  4  0
  1 14  4  0
  2  3  4  0
  2 18  4  0
  3 20  4  0
  3 22  4  0
  4 11  4  0
  4 21  4  0
  5  9  4  0
  5 16  4  0
  6 15  4  0
  6 16  4  0
  7 22  4  0
  7 26  4  0
  8 10  4  0
  8 25  4  0
  9 15  4  0
  9 17  1  0
 10 21  4  0
 11 25  4  0
 12 23  4  0
 13 20  4  0
 13 26  4  0
 14 19  4  0
 17 18  4  0
 17 24  4  0
 19 23  4  0
 20 24  4  0
 23 26  1  0
M  END
