
 Created by Python create_sdf_string function

 26 28  0  0  0  0  0  0  0  0999 V2000
    7.9594   -8.2092   15.9409 C   0  0  0  0  0  0  0  0  0  0  0  0
    6.0306   -7.3023   15.3357 N   0  0  0  0  0  0  0  0  0  0  0  0
    8.1651   -9.4704   17.5967 Br  0  0  0  0  0  0  0  0  0  0  0  0
    5.4483   -7.7576   17.1208 O   0  0  0  0  0  0  0  0  0  0  0  0
    7.5451   -6.5717   18.4707 N   0  0  0  0  0  0  0  0  0  0  0  0
    6.0341   -7.7902   15.9925 I   0  0  0  0  0  0  0  0  0  0  0  0
    8.4970   -5.6031   18.7425 O   0  0  0  0  0  0  0  0  0  0  0  0
    7.3410   -8.2505   17.3333 O   0  0  0  0  0  0  0  0  0  0  0  0
    6.2869   -7.5657   15.8233 P   0  0  0  0  0  0  0  0  0  0  0  0
    6.1350   -8.6274   18.0915 N   0  0  0  0  0  0  0  0  0  0  0  0
    8.6800   -9.2245   18.4561 Cl  0  0  0  0  0  0  0  0  0  0  0  0
    8.0015  -10.3622   18.3513 N   0  0  0  0  0  0  0  0  0  0  0  0
    8.5612   -6.6936   17.5384 He  0  0  0  0  0  0  0  0  0  0  0  0
    8.0461   -8.0440   17.8797 He  0  0  0  0  0  0  0  0  0  0  0  0
    9.2679   -8.0395   16.7490 He  0  0  0  0  0  0  0  0  0  0  0  0
    6.5060   -9.0629   16.8369 He  0  0  0  0  0  0  0  0  0  0  0  0
    8.0150   -6.9396   17.3536 He  0  0  0  0  0  0  0  0  0  0  0  0
    8.4532   -8.5851   15.7508 He  0  0  0  0  0  0  0  0  0  0  0  0
    8.3467   -7.7706   17.3411 He  0  0  0  0  0  0  0  0  0  0  0  0
    8.0950   -9.4479   15.0518 He  0  0  0  0  0  0  0  0  0  0  0  0
    6.8869   -8.0268   17.0253 He  0  0  0  0  0  0  0  0  0  0  0  0
    8.4762   -8.9816   18.1691 He  0  0  0  0  0  0  0  0  0  0  0  0
    5.8955   -7.2453   16.0015 He  0  0  0  0  0  0  0  0  0  0  0  0
    8.4582  -10.1217   18.8350 He  0  0  0  0  0  0  0  0  0  0  0  0
    7.8745   -6.6299   16.2571 He  0  0  0  0  0  0  0  0  0  0  0  0
    7.9409   -7.8604   17.4324 He  0  0  0  0  0  0  0  0  0  0  0  0
  1  3  3  0
  1  4  3  0
  1  5  2  0
  1  7  4  0
  2  5  1  0
  2  6  1  0
  2  9  3  0
  2 11  3  0
  2 12  1  0
  3  5  3  0
  3 10  3  0
  4  5  3  0
  4  7  3  0
  4  8  1  0
  4 10  1  0
  4 11  4  0
  5  6  4  0
  5  8  4  0
  5  9  1  0
  6 12  3  0
  7  9  3  0
  7 10  2  0
  7 11  2  0
  7 12  2  0
  8  9  3  0
  8 11  1  0
 10 11  1  0
 11 12  2  0
M  END
$$$$

 Created by Python create_sdf_string function

 26 35  0  0  0  0  0  0  0  0999 V2000
    6.4107   -8.0459   15.6946 S   0  0  0  0  0  0  0  0  0  0  0  0
    9.2988   -5.4019   17.2016 C   0  0  0  0  0  0  0  0  0  0  0  0
    7.0247   -9.3778   19.4934 Cl  0  0  0  0  0  0  0  0  0  0  0  0
    5.8289   -8.3199   16.1156 C   0  0  0  0  0  0  0  0  0  0  0  0
    3.3804   -8.5801   17.4951 C   0  0  0  0  0  0  0  0  0  0  0  0
    8.6577   -6.2343   17.9003 B   0  0  0  0  0  0  0  0  0  0  0  0
    7.1738   -8.7849   15.8321 O   0  0  0  0  0  0  0  0  0  0  0  0
    7.9503   -6.3349   16.6860 N   0  0  0  0  0  0  0  0  0  0  0  0
    4.3514   -7.9775   16.9165 Br  0  0  0  0  0  0  0  0  0  0  0  0
    5.6998   -6.9111   15.3810 F   0  0  0  0  0  0  0  0  0  0  0  0
    8.9543   -9.8921   18.5969 F   0  0  0  0  0  0  0  0  0  0  0  0
    5.8002   -8.4357   19.6760 O   0  0  0  0  0  0  0  0  0  0  0  0
    8.8304   -6.1358   16.0962 Cl  0  0  0  0  0  0  0  0  0  0  0  0
    8.0230   -6.6764   16.6444 F   0  0  0  0  0  0  0  0  0  0  0  0
    6.8563   -7.2316   15.7604 He  0  0  0  0  0  0  0  0  0  0  0  0
    9.0956   -8.9952   18.9990 He  0  0  0  0  0  0  0  0  0  0  0  0
    9.2285   -7.9100   15.7685 He  0  0  0  0  0  0  0  0  0  0  0  0
    6.4307  -11.2868   18.1129 He  0  0  0  0  0  0  0  0  0  0  0  0
    9.8565   -5.6708   18.0881 He  0  0  0  0  0  0  0  0  0  0  0  0
    9.6075   -9.4107   14.2990 He  0  0  0  0  0  0  0  0  0  0  0  0
    8.0090   -6.0039   19.4951 He  0  0  0  0  0  0  0  0  0  0  0  0
    9.9891   -6.6469   18.3400 He  0  0  0  0  0  0  0  0  0  0  0  0
    7.1473   -8.2101   17.7878 He  0  0  0  0  0  0  0  0  0  0  0  0
    7.5392   -8.2055   18.1967 He  0  0  0  0  0  0  0  0  0  0  0  0
    9.8813   -8.8677   18.3913 He  0  0  0  0  0  0  0  0  0  0  0  0
    9.5539   -7.9952   18.9193 He  0  0  0  0  0  0  0  0  0  0  0  0
  1  2  4  0
  1  6  3  0
  1 10  1  0
  1 11  4  0
  1 13  3  0
  1 14  1  0
  2  4  2  0
  2 11  1  0
  3  4  4  0
  3  7  1  0
  3 11  1  0
  3 12  1  0
  3 13  3  0
  3 14  3  0
  4  5  1  0
  4  8  4  0
  4 12  3  0
  5  6  3  0
  5  7  4  0
  5  8  4  0
  5  9  4  0
  5 11  1  0
  5 13  3  0
  6  7  3  0
  6  9  1  0
  6 11  4  0
  6 13  4  0
  6 14  1  0
  7  9  4  0
  8 10  4  0
  8 11  3  0
  9 12  1  0
 10 11  3  0
 10 12  2  0
 11 14  3  0
M  END
$$$$

 Created by Python create_sdf_string function

 26 38  0  0  0  0  0  0  0  0999 V2000
    6.7143   -6.6887   15.7561 O   0  0  0  0  0  0  0  0  0  0  0  0
    7.3175   -6.6241   18.6247 C   0  0  0  0  0  0  0  0  0  0  0  0
    9.4332   -8.2938   18.0830 C   0  0  0  0  0  0  0  0  0  0  0  0
    4.3193   -9.8799   16.7445 C   0  0  0  0  0  0  0  0  0  0  0  0
    8.7793   -4.3748   20.0406 O   0  0  0  0  0  0  0  0  0  0  0  0
    8.1461   -8.3873   13.8450 S   0  0  0  0  0  0  0  0  0  0  0  0
   11.1785   -6.0837   18.6759 O   0  0  0  0  0  0  0  0  0  0  0  0
    9.5380   -6.6742   18.7316 N   0  0  0  0  0  0  0  0  0  0  0  0
    3.3727   -9.0342   16.3430 N   0  0  0  0  0  0  0  0  0  0  0  0
    5.1480   -7.4192   16.5339 N   0  0  0  0  0  0  0  0  0  0  0  0
    7.6572   -8.9263   17.0486 C   0  0  0  0  0  0  0  0  0  0  0  0
    6.5100   -4.2757   15.7226 P   0  0  0  0  0  0  0  0  0  0  0  0
    8.9541   -8.5812   18.2805 N   0  0  0  0  0  0  0  0  0  0  0  0
    8.7507   -5.4706   15.3395 S   0  0  0  0  0  0  0  0  0  0  0  0
   10.3770   -6.1945   17.2790 C   0  0  0  0  0  0  0  0  0  0  0  0
    4.8676   -7.3545   16.1928 He  0  0  0  0  0  0  0  0  0  0  0  0
    9.8952   -6.9361   15.6700 He  0  0  0  0  0  0  0  0  0  0  0  0
    8.2919   -8.1900   15.1848 He  0  0  0  0  0  0  0  0  0  0  0  0
    5.8948   -8.7358   17.4132 He  0  0  0  0  0  0  0  0  0  0  0  0
    8.2964   -6.9956   19.7686 He  0  0  0  0  0  0  0  0  0  0  0  0
    7.8048   -8.7839   16.4669 He  0  0  0  0  0  0  0  0  0  0  0  0
    4.7102   -9.3503   15.4698 He  0  0  0  0  0  0  0  0  0  0  0  0
    7.1504   -7.4344   15.5872 He  0  0  0  0  0  0  0  0  0  0  0  0
    5.2618   -8.4023   16.5770 He  0  0  0  0  0  0  0  0  0  0  0  0
    7.8579   -9.7762   16.6162 He  0  0  0  0  0  0  0  0  0  0  0  0
    7.6350   -6.4708   16.7573 He  0  0  0  0  0  0  0  0  0  0  0  0
  1  2  3  0
  1  4  3  0
  1  6  1  0
  1  8  4  0
  1 11  4  0
  1 12  4  0
  1 15  3  0
  2  7  1  0
  2 10  3  0
  2 11  1  0
  2 15  3  0
  3  4  1  0
  3  5  3  0
  3  7  2  0
  3  9  4  0
  3 10  3  0
  3 14  3  0
  3 15  3  0
  4  7  3  0
  4 11  4  0
  4 14  3  0
  5  8  2  0
  5  9  4  0
  5 13  4  0
  6  9  1  0
  6 10  4  0
  6 14  3  0
  6 15  3  0
  8 10  3  0
  8 12  3  0
  9 10  1  0
  9 11  2  0
  9 13  3  0
 10 11  3  0
 10 12  4  0
 11 15  4  0
 13 14  4  0
 14 15  3  0
M  END
$$$$

 Created by Python create_sdf_string function

 26 27  0  0  0  0  0  0  0  0999 V2000
    3.9415   -6.7109   16.5411 N   0  0  0  0  0  0  0  0  0  0  0  0
    7.3354   -7.3079   17.3306 Se  0  0  0  0  0  0  0  0  0  0  0  0
    9.6492  -10.0242   17.7720 F   0  0  0  0  0  0  0  0  0  0  0  0
    2.1356  -10.3530   14.9364 N   0  0  0  0  0  0  0  0  0  0  0  0
    7.4708   -9.4994   16.2594 O   0  0  0  0  0  0  0  0  0  0  0  0
   10.0703   -4.6879   17.7795 F   0  0  0  0  0  0  0  0  0  0  0  0
    4.3563   -8.5394   16.9285 C   0  0  0  0  0  0  0  0  0  0  0  0
    9.7423   -5.6179   17.8075 Cl  0  0  0  0  0  0  0  0  0  0  0  0
    6.6460   -7.2233   15.8805 N   0  0  0  0  0  0  0  0  0  0  0  0
    7.8521  -10.0721   18.8037 O   0  0  0  0  0  0  0  0  0  0  0  0
    8.3198   -3.9410   15.2142 N   0  0  0  0  0  0  0  0  0  0  0  0
    7.5530   -6.9197   16.4249 P   0  0  0  0  0  0  0  0  0  0  0  0
    6.7746   -7.2447   15.3629 F   0  0  0  0  0  0  0  0  0  0  0  0
    7.8594   -9.7517   14.3687 C   0  0  0  0  0  0  0  0  0  0  0  0
    6.9796   -6.8487   14.9498 He  0  0  0  0  0  0  0  0  0  0  0  0
    8.8684   -5.3360   16.1412 He  0  0  0  0  0  0  0  0  0  0  0  0
    9.0528   -7.8494   15.2749 He  0  0  0  0  0  0  0  0  0  0  0  0
    9.4493   -5.0432   18.2011 He  0  0  0  0  0  0  0  0  0  0  0  0
    7.0998   -9.2616   17.5058 He  0  0  0  0  0  0  0  0  0  0  0  0
    9.9526   -6.3167   18.2928 He  0  0  0  0  0  0  0  0  0  0  0  0
    5.4598  -10.0287   16.1753 He  0  0  0  0  0  0  0  0  0  0  0  0
    8.4921   -7.3339   17.8763 He  0  0  0  0  0  0  0  0  0  0  0  0
    2.9840  -10.6356   17.4468 He  0  0  0  0  0  0  0  0  0  0  0  0
    8.8212   -5.3663   18.0691 He  0  0  0  0  0  0  0  0  0  0  0  0
    7.5765   -7.0353   16.3519 He  0  0  0  0  0  0  0  0  0  0  0  0
   10.7397   -3.1015   18.6869 He  0  0  0  0  0  0  0  0  0  0  0  0
  1  2  1  0
  1  3  4  0
  1  6  4  0
  1  8  3  0
  1  9  2  0
  1 10  4  0
  1 12  3  0
  2  3  3  0
  2  5  2  0
  2  6  2  0
  3  7  1  0
  3  8  4  0
  3 11  2  0
  4 12  3  0
  4 14  1  0
  5  8  1  0
  6  9  2  0
  6 10  2  0
  6 13  4  0
  7 12  3  0
  7 13  2  0
  8 14  3  0
  9 11  3  0
  9 14  4  0
 10 11  1  0
 10 13  2  0
 11 14  3  0
M  END
$$$$

 Created by Python create_sdf_string function

 26 38  0  0  0  0  0  0  0  0999 V2000
    7.0049   -7.9219   14.9226 C   0  0  0  0  0  0  0  0  0  0  0  0
    4.3882   -8.1656   15.8953 P   0  0  0  0  0  0  0  0  0  0  0  0
    8.9319   -4.3579   17.2605 F   0  0  0  0  0  0  0  0  0  0  0  0
    7.7773   -9.0791   16.2142 S   0  0  0  0  0  0  0  0  0  0  0  0
    8.9250   -5.3849   18.3007 F   0  0  0  0  0  0  0  0  0  0  0  0
    4.8970   -7.3154   17.0327 O   0  0  0  0  0  0  0  0  0  0  0  0
    9.2296   -4.5768   15.4745 F   0  0  0  0  0  0  0  0  0  0  0  0
    4.2084   -8.6563   18.4681 N   0  0  0  0  0  0  0  0  0  0  0  0
    8.9846   -4.6163   18.4382 Se  0  0  0  0  0  0  0  0  0  0  0  0
    7.5293   -8.6631   17.0033 C   0  0  0  0  0  0  0  0  0  0  0  0
    4.1979   -9.5428   14.8753 F   0  0  0  0  0  0  0  0  0  0  0  0
    6.9322   -4.9326   18.8242 C   0  0  0  0  0  0  0  0  0  0  0  0
    7.6170   -7.9023   17.5682 P   0  0  0  0  0  0  0  0  0  0  0  0
   12.1904   -3.9901   18.5829 F   0  0  0  0  0  0  0  0  0  0  0  0
    7.9673   -7.8560   17.7376 He  0  0  0  0  0  0  0  0  0  0  0  0
    7.9208   -7.0815   15.0739 He  0  0  0  0  0  0  0  0  0  0  0  0
    1.8292   -8.5040   15.6652 He  0  0  0  0  0  0  0  0  0  0  0  0
    6.6059   -7.7642   16.0741 He  0  0  0  0  0  0  0  0  0  0  0  0
   10.0673   -4.0906   19.3346 He  0  0  0  0  0  0  0  0  0  0  0  0
    6.6209  -10.5001   20.4632 He  0  0  0  0  0  0  0  0  0  0  0  0
    6.6233   -5.8000   15.7451 He  0  0  0  0  0  0  0  0  0  0  0  0
    5.3028   -5.2298   15.1177 He  0  0  0  0  0  0  0  0  0  0  0  0
    5.0952   -9.8623   14.8667 He  0  0  0  0  0  0  0  0  0  0  0  0
    5.7392   -6.6813   14.3896 He  0  0  0  0  0  0  0  0  0  0  0  0
    7.0645   -6.9559   18.1309 He  0  0  0  0  0  0  0  0  0  0  0  0
    6.6695   -9.3121   15.2004 He  0  0  0  0  0  0  0  0  0  0  0  0
  1  2  3  0
  1  3  1  0
  1  5  4  0
  1 10  3  0
  1 13  1  0
  1 14  1  0
  2  4  3  0
  2  6  4  0
  2  7  2  0
  2 11  4  0
  2 12  2  0
  3  4  3  0
  3  5  2  0
  3  6  4  0
  3  7  2  0
  3 13  1  0
  4  7  4  0
  4  8  3  0
  4  9  1  0
  4 10  4  0
  4 11  1  0
  4 14  2  0
  5  7  3  0
  5  8  4  0
  5  9  2  0
  5 10  2  0
  5 12  1  0
  5 13  4  0
  6 11  4  0
  6 13  3  0
  7 11  1  0
  8 10  2  0
  9 11  2  0
  9 12  4  0
  9 14  4  0
 10 13  3  0
 10 14  4  0
 13 14  1  0
M  END
$$$$

 Created by Python create_sdf_string function

 26 21  0  0  0  0  0  0  0  0999 V2000
    7.2848   -7.0998   20.1645 S   0  0  0  0  0  0  0  0  0  0  0  0
    9.1043   -5.6740   15.3901 C   0  0  0  0  0  0  0  0  0  0  0  0
    3.2170   -7.3788   15.5842 N   0  0  0  0  0  0  0  0  0  0  0  0
   10.0150   -3.1792   16.5418 Br  0  0  0  0  0  0  0  0  0  0  0  0
    8.8547   -6.2836   16.5884 P   0  0  0  0  0  0  0  0  0  0  0  0
    3.7135   -9.2053   13.6239 Cl  0  0  0  0  0  0  0  0  0  0  0  0
    7.6582   -4.9929   18.9575 F   0  0  0  0  0  0  0  0  0  0  0  0
    3.9156   -9.3351   16.0873 Cl  0  0  0  0  0  0  0  0  0  0  0  0
    8.3287   -6.6229   20.1445 N   0  0  0  0  0  0  0  0  0  0  0  0
    7.7414   -8.2191   16.5995 He  0  0  0  0  0  0  0  0  0  0  0  0
    3.8713   -8.3151   16.3856 He  0  0  0  0  0  0  0  0  0  0  0  0
    7.4109   -5.1913   18.3971 He  0  0  0  0  0  0  0  0  0  0  0  0
    9.5199   -8.4581   16.2441 He  0  0  0  0  0  0  0  0  0  0  0  0
    4.5105   -8.6734   17.0714 He  0  0  0  0  0  0  0  0  0  0  0  0
   11.6561   -5.9379   20.2089 He  0  0  0  0  0  0  0  0  0  0  0  0
    7.5348   -8.3126   15.9669 He  0  0  0  0  0  0  0  0  0  0  0  0
   10.3828   -3.4746   20.5454 He  0  0  0  0  0  0  0  0  0  0  0  0
    5.9439   -8.5032   18.5724 He  0  0  0  0  0  0  0  0  0  0  0  0
   10.8041   -6.5868   20.7186 He  0  0  0  0  0  0  0  0  0  0  0  0
    6.8137   -8.7608   15.8636 He  0  0  0  0  0  0  0  0  0  0  0  0
    5.6724  -10.0685   17.6208 He  0  0  0  0  0  0  0  0  0  0  0  0
    6.9840   -6.1177   17.1199 He  0  0  0  0  0  0  0  0  0  0  0  0
    5.8076   -7.3662   12.9599 He  0  0  0  0  0  0  0  0  0  0  0  0
    7.5931   -7.8798   16.5501 He  0  0  0  0  0  0  0  0  0  0  0  0
    8.0167   -9.4443   18.4421 He  0  0  0  0  0  0  0  0  0  0  0  0
   11.1674   -3.6627   18.1107 He  0  0  0  0  0  0  0  0  0  0  0  0
  1  5  2  0
  1  6  2  0
  1  8  3  0
  2  3  1  0
  2  6  4  0
  2  7  1  0
  2  8  2  0
  3  4  2  0
  3  5  4  0
  3  6  2  0
  3  7  1  0
  3  8  3  0
  4  5  3  0
  4  6  1  0
  4  8  2  0
  5  7  3  0
  5  8  1  0
  5  9  2  0
  6  8  2  0
  6  9  2  0
  7  8  2  0
M  END
$$$$

 Created by Python create_sdf_string function

 26 28  0  0  0  0  0  0  0  0999 V2000
    8.6215   -7.8157   16.8650 F   0  0  0  0  0  0  0  0  0  0  0  0
    4.5802   -9.2293   18.0096 N   0  0  0  0  0  0  0  0  0  0  0  0
    6.3639   -9.9411   15.2108 C   0  0  0  0  0  0  0  0  0  0  0  0
    9.1861   -6.8169   19.0064 C   0  0  0  0  0  0  0  0  0  0  0  0
    5.8589   -8.0955   16.0016 P   0  0  0  0  0  0  0  0  0  0  0  0
    7.0470   -5.5497   18.7932 S   0  0  0  0  0  0  0  0  0  0  0  0
    4.7940   -8.7448   16.5435 C   0  0  0  0  0  0  0  0  0  0  0  0
    6.3337   -9.7080   14.3523 I   0  0  0  0  0  0  0  0  0  0  0  0
   10.4274   -6.2206   18.6046 Se  0  0  0  0  0  0  0  0  0  0  0  0
    8.9201   -6.4086   17.8244 I   0  0  0  0  0  0  0  0  0  0  0  0
    9.7843   -3.7431   19.8321 F   0  0  0  0  0  0  0  0  0  0  0  0
    7.5693   -6.8120   19.2578 F   0  0  0  0  0  0  0  0  0  0  0  0
   10.8607   -4.8929   19.1235 C   0  0  0  0  0  0  0  0  0  0  0  0
    9.2851   -7.9154   16.0369 He  0  0  0  0  0  0  0  0  0  0  0  0
    4.2209   -7.2450   15.9235 He  0  0  0  0  0  0  0  0  0  0  0  0
    9.7291   -4.9090   15.8040 He  0  0  0  0  0  0  0  0  0  0  0  0
    7.7118   -6.0207   19.2913 He  0  0  0  0  0  0  0  0  0  0  0  0
    9.9336   -6.5256   16.2695 He  0  0  0  0  0  0  0  0  0  0  0  0
   11.0323   -5.8945   20.3120 He  0  0  0  0  0  0  0  0  0  0  0  0
    2.3565   -8.4722   18.3665 He  0  0  0  0  0  0  0  0  0  0  0  0
    9.2709   -3.5470   20.6273 He  0  0  0  0  0  0  0  0  0  0  0  0
   10.3111   -2.3054   15.2251 He  0  0  0  0  0  0  0  0  0  0  0  0
    6.1683   -7.0817   17.4997 He  0  0  0  0  0  0  0  0  0  0  0  0
    5.9981   -9.4417   17.9902 He  0  0  0  0  0  0  0  0  0  0  0  0
    9.2961   -5.9834   16.2055 He  0  0  0  0  0  0  0  0  0  0  0  0
    3.8470   -8.9335   17.4832 He  0  0  0  0  0  0  0  0  0  0  0  0
  1  2  2  0
  1  8  4  0
  1 10  4  0
  2  6  1  0
  2  9  2  0
  2 10  4  0
  2 11  2  0
  2 12  4  0
  2 13  1  0
  3  5  2  0
  3  6  1  0
  3  9  3  0
  3 10  2  0
  4  5  4  0
  4  7  1  0
  4  9  2  0
  5  9  1  0
  5 11  4  0
  5 12  3  0
  5 13  1  0
  7  8  4  0
  8  9  3  0
  8 10  1  0
  9 12  1  0
 10 11  3  0
 10 13  4  0
 11 13  1  0
 12 13  2  0
M  END
$$$$

 Created by Python create_sdf_string function

 26 38  0  0  0  0  0  0  0  0999 V2000
    8.4163   -7.1225   17.0313 C   0  0  0  0  0  0  0  0  0  0  0  0
    9.5669   -7.5517   19.2560 I   0  0  0  0  0  0  0  0  0  0  0  0
    9.8881   -6.5922   16.5720 O   0  0  0  0  0  0  0  0  0  0  0  0
   10.1220   -6.6701   16.8778 Br  0  0  0  0  0  0  0  0  0  0  0  0
    8.4815   -8.8834   16.6647 S   0  0  0  0  0  0  0  0  0  0  0  0
    7.5330   -7.7838   16.1026 C   0  0  0  0  0  0  0  0  0  0  0  0
   10.1789   -7.1181   18.3443 Cl  0  0  0  0  0  0  0  0  0  0  0  0
    6.3140   -8.8227   18.3883 O   0  0  0  0  0  0  0  0  0  0  0  0
    9.0602   -5.6843   16.5712 B   0  0  0  0  0  0  0  0  0  0  0  0
    8.4791   -8.6555   15.4167 S   0  0  0  0  0  0  0  0  0  0  0  0
    8.8024   -5.4417   18.6138 C   0  0  0  0  0  0  0  0  0  0  0  0
    9.3000   -7.4080   17.4675 C   0  0  0  0  0  0  0  0  0  0  0  0
    9.5015   -6.3978   19.1128 C   0  0  0  0  0  0  0  0  0  0  0  0
   10.6957   -4.0477   19.9020 O   0  0  0  0  0  0  0  0  0  0  0  0
    5.0506   -8.0200   14.3907 He  0  0  0  0  0  0  0  0  0  0  0  0
   10.3760   -5.2359   15.3400 He  0  0  0  0  0  0  0  0  0  0  0  0
    5.0204   -8.0737   16.9519 He  0  0  0  0  0  0  0  0  0  0  0  0
   12.1220   -6.0334   19.9737 He  0  0  0  0  0  0  0  0  0  0  0  0
    2.3955   -7.9873   16.4085 He  0  0  0  0  0  0  0  0  0  0  0  0
    7.2330   -3.3048   20.6067 He  0  0  0  0  0  0  0  0  0  0  0  0
   12.0975   -4.7245   17.7147 He  0  0  0  0  0  0  0  0  0  0  0  0
    6.4926   -9.2798   16.9641 He  0  0  0  0  0  0  0  0  0  0  0  0
    6.5200   -6.7590   16.5915 He  0  0  0  0  0  0  0  0  0  0  0  0
    3.5243   -8.0004   16.6284 He  0  0  0  0  0  0  0  0  0  0  0  0
    3.6669   -9.0213   16.6889 He  0  0  0  0  0  0  0  0  0  0  0  0
    9.4127   -3.6873   21.2678 He  0  0  0  0  0  0  0  0  0  0  0  0
  1  2  2  0
  1  3  1  0
  1  4  4  0
  1  5  3  0
  1  8  4  0
  1 12  4  0
  1 14  1  0
  2  5  1  0
  2  7  3  0
  2  8  1  0
  2 10  3  0
  2 14  3  0
  3  5  2  0
  3  8  1  0
  3  9  3  0
  3 11  1  0
  3 12  2  0
  4  9  1  0
  4 11  4  0
  4 12  3  0
  5  7  4  0
  5 10  4  0
  5 13  2  0
  5 14  3  0
  6  9  4  0
  6 11  1  0
  7  9  4  0
  7 11  2  0
  7 12  4  0
  7 13  4  0
  7 14  4  0
  8  9  4  0
  8 12  3  0
  8 13  3  0
  9 10  4  0
  9 13  3  0
 10 14  1  0
 12 14  2  0
M  END
$$$$

 Created by Python create_sdf_string function

 26 57  0  0  0  0  0  0  0  0999 V2000
    5.2783   -6.6627   16.5001 C   0  0  0  0  0  0  0  0  0  0  0  0
   10.3992   -5.5054   14.1369 C   0  0  0  0  0  0  0  0  0  0  0  0
   10.0373   -6.1049   18.9387 I   0  0  0  0  0  0  0  0  0  0  0  0
   10.7332   -6.3292   19.1434 N   0  0  0  0  0  0  0  0  0  0  0  0
   10.3463   -4.5269   16.8299 C   0  0  0  0  0  0  0  0  0  0  0  0
    4.1891   -8.6397   17.5753 F   0  0  0  0  0  0  0  0  0  0  0  0
    4.5262   -7.7777   16.5463 F   0  0  0  0  0  0  0  0  0  0  0  0
    9.1033  -10.0259   17.5590 O   0  0  0  0  0  0  0  0  0  0  0  0
    9.4743   -2.7012   20.2875 N   0  0  0  0  0  0  0  0  0  0  0  0
    6.3412   -7.7300   15.6981 O   0  0  0  0  0  0  0  0  0  0  0  0
    5.4153   -9.6821   16.1409 N   0  0  0  0  0  0  0  0  0  0  0  0
    6.5547   -9.2210   19.1977 P   0  0  0  0  0  0  0  0  0  0  0  0
    9.2028   -4.4904   17.6307 N   0  0  0  0  0  0  0  0  0  0  0  0
    5.4700   -8.3421   16.6356 I   0  0  0  0  0  0  0  0  0  0  0  0
    7.4944   -8.3904   15.9304 O   0  0  0  0  0  0  0  0  0  0  0  0
    3.8219   -8.1098   17.0954 C   0  0  0  0  0  0  0  0  0  0  0  0
   10.5445   -5.1001   20.6254 P   0  0  0  0  0  0  0  0  0  0  0  0
   10.5972   -3.9768   19.1621 F   0  0  0  0  0  0  0  0  0  0  0  0
    8.2261   -8.0706   19.0745 He  0  0  0  0  0  0  0  0  0  0  0  0
   10.4430   -5.7497   19.0549 He  0  0  0  0  0  0  0  0  0  0  0  0
   11.0264   -4.3951   17.5485 He  0  0  0  0  0  0  0  0  0  0  0  0
   11.2111   -6.0287   18.6928 He  0  0  0  0  0  0  0  0  0  0  0  0
    6.5990   -7.0539   15.5093 He  0  0  0  0  0  0  0  0  0  0  0  0
    9.6014   -5.0352   20.6493 He  0  0  0  0  0  0  0  0  0  0  0  0
    8.5914   -6.7870   16.6293 He  0  0  0  0  0  0  0  0  0  0  0  0
    9.1257   -5.3640   18.9838 He  0  0  0  0  0  0  0  0  0  0  0  0
  1  4  2  0
  1  5  4  0
  1  6  3  0
  1  9  4  0
  1 10  2  0
  1 15  4  0
  2 10  2  0
  2 11  1  0
  2 13  4  0
  2 14  1  0
  3  5  1  0
  3  7  3  0
  3  9  2  0
  3 10  4  0
  3 13  1  0
  3 16  4  0
  3 18  3  0
  4  6  3  0
  4  7  3  0
  4  9  2  0
  4 13  3  0
  4 16  4  0
  5  6  2  0
  5  9  1  0
  5 10  2  0
  5 11  2  0
  5 12  1  0
  5 13  2  0
  6  7  1  0
  6  9  3  0
  6 12  2  0
  6 14  3  0
  6 15  3  0
  6 16  1  0
  6 17  3  0
  7  8  2  0
  7 15  1  0
  7 16  2  0
  7 18  1  0
  8 10  4  0
  8 14  4  0
  8 15  1  0
  8 17  1  0
 10 12  4  0
 11 12  1  0
 11 13  2  0
 12 13  1  0
 12 14  4  0
 12 15  3  0
 12 16  4  0
 13 16  3  0
 13 17  4  0
 13 18  3  0
 14 15  3  0
 14 16  2  0
 14 17  1  0
 14 18  3  0
M  END
$$$$

 Created by Python create_sdf_string function

 26 34  0  0  0  0  0  0  0  0999 V2000
   10.7629   -3.7547   15.6032 C   0  0  0  0  0  0  0  0  0  0  0  0
   10.6484   -6.1334   19.0092 N   0  0  0  0  0  0  0  0  0  0  0  0
    4.6533   -7.6036   16.4045 C   0  0  0  0  0  0  0  0  0  0  0  0
    9.6351   -6.6128   18.8240 O   0  0  0  0  0  0  0  0  0  0  0  0
    5.2859   -8.0101   17.4591 C   0  0  0  0  0  0  0  0  0  0  0  0
    6.5669   -8.4947   16.6728 S   0  0  0  0  0  0  0  0  0  0  0  0
   11.1728   -5.5658   19.2438 C   0  0  0  0  0  0  0  0  0  0  0  0
    8.8792   -3.1678   15.4616 F   0  0  0  0  0  0  0  0  0  0  0  0
    6.1771  -10.8100   17.5654 O   0  0  0  0  0  0  0  0  0  0  0  0
    6.6504   -7.9575   15.8427 O   0  0  0  0  0  0  0  0  0  0  0  0
    8.9727   -6.9339   17.2754 C   0  0  0  0  0  0  0  0  0  0  0  0
   10.8597   -4.3849   21.7969 C   0  0  0  0  0  0  0  0  0  0  0  0
   12.3858   -3.3776   19.2623 O   0  0  0  0  0  0  0  0  0  0  0  0
    8.4886   -7.2550   18.7599 He  0  0  0  0  0  0  0  0  0  0  0  0
    7.2624   -7.0637   18.6815 He  0  0  0  0  0  0  0  0  0  0  0  0
    8.5218   -6.6768   17.6675 He  0  0  0  0  0  0  0  0  0  0  0  0
   10.7969   -3.9826   17.5051 He  0  0  0  0  0  0  0  0  0  0  0  0
    7.8777   -8.0957   18.0201 He  0  0  0  0  0  0  0  0  0  0  0  0
   11.0660   -3.6449   19.9160 He  0  0  0  0  0  0  0  0  0  0  0  0
    9.4857   -5.3580   17.9500 He  0  0  0  0  0  0  0  0  0  0  0  0
    5.3375   -8.8652   17.4909 He  0  0  0  0  0  0  0  0  0  0  0  0
    6.3333   -8.8153   17.5595 He  0  0  0  0  0  0  0  0  0  0  0  0
    7.8751   -6.4376   17.3262 He  0  0  0  0  0  0  0  0  0  0  0  0
    9.2117   -3.8285   19.1192 He  0  0  0  0  0  0  0  0  0  0  0  0
    3.7157   -8.7239   16.2394 He  0  0  0  0  0  0  0  0  0  0  0  0
   10.3306   -4.9112   17.8310 He  0  0  0  0  0  0  0  0  0  0  0  0
  1  3  1  0
  1  4  1  0
  1  5  3  0
  1  9  2  0
  1 10  4  0
  1 11  1  0
  1 13  4  0
  2  3  2  0
  2  4  3  0
  2  5  3  0
  2 12  2  0
  3  7  2  0
  3  9  3  0
  3 10  2  0
  3 11  1  0
  4  5  3  0
  4  6  4  0
  4  8  2  0
  4 12  2  0
  5  8  3  0
  5  9  3  0
  5 11  2  0
  6  7  2  0
  6 10  3  0
  7 10  3  0
  7 12  2  0
  8 10  2  0
  8 11  2  0
  8 13  1  0
  9 10  1  0
  9 12  4  0
  9 13  2  0
 10 12  3  0
 11 12  4  0
M  END
$$$$

 Created by Python create_sdf_string function

 26 13  0  0  0  0  0  0  0  0999 V2000
   10.2399   -6.9655   19.9208 F   0  0  0  0  0  0  0  0  0  0  0  0
    9.7447   -5.2873   17.5340 O   0  0  0  0  0  0  0  0  0  0  0  0
    6.6107   -7.2528   16.8789 Cl  0  0  0  0  0  0  0  0  0  0  0  0
    8.1076   -4.8767   17.7585 I   0  0  0  0  0  0  0  0  0  0  0  0
   10.4440   -5.7252   19.0602 C   0  0  0  0  0  0  0  0  0  0  0  0
    7.4265   -7.7333   16.0787 C   0  0  0  0  0  0  0  0  0  0  0  0
    9.9034   -3.0910   14.6478 F   0  0  0  0  0  0  0  0  0  0  0  0
    7.8559   -6.6298   15.8328 S   0  0  0  0  0  0  0  0  0  0  0  0
   11.2859   -3.3424   20.3006 C   0  0  0  0  0  0  0  0  0  0  0  0
    4.6503   -9.9062   16.5318 C   0  0  0  0  0  0  0  0  0  0  0  0
    7.7070   -6.8954   19.0086 He  0  0  0  0  0  0  0  0  0  0  0  0
    8.9835   -4.1523   17.0112 He  0  0  0  0  0  0  0  0  0  0  0  0
   10.6045   -4.3487   19.2637 He  0  0  0  0  0  0  0  0  0  0  0  0
    9.4971   -7.1548   17.4066 He  0  0  0  0  0  0  0  0  0  0  0  0
   10.1362   -3.7765   17.2259 He  0  0  0  0  0  0  0  0  0  0  0  0
    4.7488   -9.1158   15.7050 He  0  0  0  0  0  0  0  0  0  0  0  0
    9.9754   -6.5216   16.8305 He  0  0  0  0  0  0  0  0  0  0  0  0
   10.0381   -5.4416   21.1251 He  0  0  0  0  0  0  0  0  0  0  0  0
    4.8190   -8.9610   16.4966 He  0  0  0  0  0  0  0  0  0  0  0  0
    6.6683   -8.2871   14.9765 He  0  0  0  0  0  0  0  0  0  0  0  0
    6.6895   -6.5020   17.9772 He  0  0  0  0  0  0  0  0  0  0  0  0
    8.0227  -10.8436   18.5302 He  0  0  0  0  0  0  0  0  0  0  0  0
   11.4836   -7.0234   15.7724 He  0  0  0  0  0  0  0  0  0  0  0  0
   11.8395   -5.5732   22.8892 He  0  0  0  0  0  0  0  0  0  0  0  0
   10.4673   -4.3026   17.9340 He  0  0  0  0  0  0  0  0  0  0  0  0
   10.2412   -2.3434   19.4009 He  0  0  0  0  0  0  0  0  0  0  0  0
  1  3  4  0
  1  7  1  0
  1  8  3  0
  1  9  4  0
  1 10  1  0
  2  4  1  0
  2  8  4  0
  3  4  3  0
  4 10  2  0
  5  6  4  0
  5 10  4  0
  6  7  1  0
  9 10  1  0
M  END
$$$$

 Created by Python create_sdf_string function

 26 67  0  0  0  0  0  0  0  0999 V2000
    7.3916   -9.1775   18.3397 C   0  0  0  0  0  0  0  0  0  0  0  0
    8.8809   -3.8242   16.0303 O   0  0  0  0  0  0  0  0  0  0  0  0
    9.6468   -4.6666   19.6355 I   0  0  0  0  0  0  0  0  0  0  0  0
   11.4078   -3.7193   17.5772 N   0  0  0  0  0  0  0  0  0  0  0  0
    5.6043   -9.3307   16.2716 N   0  0  0  0  0  0  0  0  0  0  0  0
    9.9314   -5.8294   17.0418 C   0  0  0  0  0  0  0  0  0  0  0  0
    5.7888   -7.3439   15.8396 O   0  0  0  0  0  0  0  0  0  0  0  0
   11.3219   -5.3228   19.7576 F   0  0  0  0  0  0  0  0  0  0  0  0
    8.4448   -3.7692   16.5062 O   0  0  0  0  0  0  0  0  0  0  0  0
    5.5194   -7.1793   16.4309 C   0  0  0  0  0  0  0  0  0  0  0  0
    5.5161   -8.5514   16.4034 N   0  0  0  0  0  0  0  0  0  0  0  0
    9.6756   -3.4986   15.6954 C   0  0  0  0  0  0  0  0  0  0  0  0
    7.2786   -6.5886   17.2037 Cl  0  0  0  0  0  0  0  0  0  0  0  0
    8.4229   -8.4688   17.5861 C   0  0  0  0  0  0  0  0  0  0  0  0
    8.2065   -7.2428   16.4690 P   0  0  0  0  0  0  0  0  0  0  0  0
   10.6772   -3.9773   20.4747 Cl  0  0  0  0  0  0  0  0  0  0  0  0
   10.6449   -2.9117   20.1474 O   0  0  0  0  0  0  0  0  0  0  0  0
   11.1352   -4.0865   18.4599 O   0  0  0  0  0  0  0  0  0  0  0  0
    9.9708   -1.5639   17.4951 P   0  0  0  0  0  0  0  0  0  0  0  0
   11.1680   -4.8278   19.6074 He  0  0  0  0  0  0  0  0  0  0  0  0
    9.6586   -7.2332   18.7743 He  0  0  0  0  0  0  0  0  0  0  0  0
    8.5015   -6.0617   15.9816 He  0  0  0  0  0  0  0  0  0  0  0  0
    6.0677  -10.2640   18.0553 He  0  0  0  0  0  0  0  0  0  0  0  0
   10.4532   -6.6516   18.5969 He  0  0  0  0  0  0  0  0  0  0  0  0
    3.9354   -9.3000   15.6003 He  0  0  0  0  0  0  0  0  0  0  0  0
   10.1750   -4.8505   16.7718 He  0  0  0  0  0  0  0  0  0  0  0  0
  1  2  4  0
  1  3  2  0
  1  7  2  0
  1 11  1  0
  1 15  1  0
  2  4  1  0
  2  5  1  0
  2 10  2  0
  2 12  3  0
  2 16  1  0
  2 17  3  0
  2 18  1  0
  3  5  1  0
  3  9  2  0
  3 11  3  0
  3 13  1  0
  3 16  4  0
  3 17  2  0
  3 18  2  0
  3 19  1  0
  4  6  2  0
  4  7  1  0
  4 10  3  0
  4 17  2  0
  4 19  4  0
  5 13  3  0
  5 15  3  0
  5 19  2  0
  6 11  2  0
  6 12  1  0
  6 13  4  0
  6 14  2  0
  6 17  4  0
  6 18  1  0
  6 19  2  0
  7  8  3  0
  7 12  4  0
  7 15  3  0
  7 16  1  0
  7 17  1  0
  7 18  4  0
  7 19  2  0
  8 11  3  0
  8 16  4  0
  9 14  1  0
  9 15  2  0
  9 18  2  0
  9 19  4  0
 10 11  4  0
 10 13  4  0
 10 14  4  0
 10 15  1  0
 10 16  1  0
 10 17  3  0
 10 18  3  0
 11 14  3  0
 12 13  3  0
 12 14  4  0
 12 17  1  0
 13 15  2  0
 13 18  2  0
 14 16  3  0
 15 16  2  0
 15 18  4  0
 15 19  3  0
 16 17  1  0
 18 19  3  0
M  END
$$$$

 Created by Python create_sdf_string function

 26 35  0  0  0  0  0  0  0  0999 V2000
    7.8641   -8.1899   18.7825 C   0  0  0  0  0  0  0  0  0  0  0  0
    9.7438   -4.4826   14.1913 F   0  0  0  0  0  0  0  0  0  0  0  0
   10.3537   -4.8219   18.1985 N   0  0  0  0  0  0  0  0  0  0  0  0
    8.6550   -9.2335   18.2616 C   0  0  0  0  0  0  0  0  0  0  0  0
   10.8720   -1.9396   18.0637 C   0  0  0  0  0  0  0  0  0  0  0  0
    4.8356   -8.0118   16.4649 C   0  0  0  0  0  0  0  0  0  0  0  0
    6.4549   -6.5329   17.9220 N   0  0  0  0  0  0  0  0  0  0  0  0
    6.1105   -7.8981   18.2460 P   0  0  0  0  0  0  0  0  0  0  0  0
    7.3447   -8.4655   17.2905 P   0  0  0  0  0  0  0  0  0  0  0  0
   11.6893   -6.1406   21.1967 B   0  0  0  0  0  0  0  0  0  0  0  0
    4.2805   -8.8238   15.9761 C   0  0  0  0  0  0  0  0  0  0  0  0
    9.8271   -4.0735   17.1421 P   0  0  0  0  0  0  0  0  0  0  0  0
   11.7347   -3.1458   19.2446 N   0  0  0  0  0  0  0  0  0  0  0  0
   11.0438   -4.8920   21.8710 He  0  0  0  0  0  0  0  0  0  0  0  0
    6.2759   -9.2001   16.2916 He  0  0  0  0  0  0  0  0  0  0  0  0
    9.5441   -6.2025   18.2324 He  0  0  0  0  0  0  0  0  0  0  0  0
   10.9030   -6.2118   20.1897 He  0  0  0  0  0  0  0  0  0  0  0  0
    8.1009   -3.8386   17.4774 He  0  0  0  0  0  0  0  0  0  0  0  0
    5.4009   -7.9771   16.6571 He  0  0  0  0  0  0  0  0  0  0  0  0
   12.1154   -6.4524   18.7110 He  0  0  0  0  0  0  0  0  0  0  0  0
    6.4995   -6.3405   16.2041 He  0  0  0  0  0  0  0  0  0  0  0  0
    6.3720   -8.9391   17.2964 He  0  0  0  0  0  0  0  0  0  0  0  0
   10.1361   -5.2388   18.0141 He  0  0  0  0  0  0  0  0  0  0  0  0
    7.1238   -8.3549   17.0706 He  0  0  0  0  0  0  0  0  0  0  0  0
   13.0804   -4.6248   17.6942 He  0  0  0  0  0  0  0  0  0  0  0  0
   13.3329   -2.9507   17.1990 He  0  0  0  0  0  0  0  0  0  0  0  0
  1  2  4  0
  1  4  2  0
  1  6  1  0
  1  8  2  0
  1  9  2  0
  1 12  1  0
  2  3  1  0
  2  4  4  0
  2 10  1  0
  2 12  4  0
  3  4  4  0
  3  8  3  0
  3  9  3  0
  4  5  1  0
  4  8  4  0
  4  9  2  0
  4 10  1  0
  4 11  4  0
  4 12  2  0
  4 13  3  0
  5  8  3  0
  5 12  1  0
  5 13  4  0
  6  9  1  0
  6 10  4  0
  6 11  1  0
  7 10  3  0
  7 11  3  0
  8  9  1  0
  8 10  3  0
  8 13  4  0
  9 11  3  0
  9 13  2  0
 11 13  3  0
 12 13  2  0
M  END
$$$$

 Created by Python create_sdf_string function

 26 21  0  0  0  0  0  0  0  0999 V2000
    7.2050   -7.5793   17.7806 C   0  0  0  0  0  0  0  0  0  0  0  0
    9.9195   -4.2843   15.5942 C   0  0  0  0  0  0  0  0  0  0  0  0
   10.7324   -5.6280   18.6120 O   0  0  0  0  0  0  0  0  0  0  0  0
    6.2664   -8.9508   18.3205 Cl  0  0  0  0  0  0  0  0  0  0  0  0
    8.8096   -5.5438   19.7723 F   0  0  0  0  0  0  0  0  0  0  0  0
    9.0679   -4.3790   15.4083 C   0  0  0  0  0  0  0  0  0  0  0  0
    6.3363   -8.5998   16.5265 P   0  0  0  0  0  0  0  0  0  0  0  0
    8.5637   -9.9980   17.0752 F   0  0  0  0  0  0  0  0  0  0  0  0
    9.0914   -5.8380   17.9503 O   0  0  0  0  0  0  0  0  0  0  0  0
   12.8245   -3.1329   19.2472 C   0  0  0  0  0  0  0  0  0  0  0  0
   11.1424   -3.8725   16.2727 S   0  0  0  0  0  0  0  0  0  0  0  0
    9.4939   -4.1352   21.7464 He  0  0  0  0  0  0  0  0  0  0  0  0
    9.9729  -10.5520   17.4431 He  0  0  0  0  0  0  0  0  0  0  0  0
   11.2410   -1.8332   17.5158 He  0  0  0  0  0  0  0  0  0  0  0  0
   10.0033   -5.4691   18.5643 He  0  0  0  0  0  0  0  0  0  0  0  0
    4.7566   -8.5338   17.2145 He  0  0  0  0  0  0  0  0  0  0  0  0
    7.6706   -6.3094   16.4789 He  0  0  0  0  0  0  0  0  0  0  0  0
    6.1971   -8.4316   14.8799 He  0  0  0  0  0  0  0  0  0  0  0  0
   10.4824   -3.8842   19.8217 He  0  0  0  0  0  0  0  0  0  0  0  0
    6.2394   -6.6051   16.1823 He  0  0  0  0  0  0  0  0  0  0  0  0
    9.6847   -5.3743   19.1207 He  0  0  0  0  0  0  0  0  0  0  0  0
    5.5340   -8.5722   17.4663 He  0  0  0  0  0  0  0  0  0  0  0  0
    7.1065   -7.6870   16.3612 He  0  0  0  0  0  0  0  0  0  0  0  0
   11.7088   -5.4689   21.1054 He  0  0  0  0  0  0  0  0  0  0  0  0
    3.1183   -8.7766   17.0702 He  0  0  0  0  0  0  0  0  0  0  0  0
   12.0910   -5.7233   16.7607 He  0  0  0  0  0  0  0  0  0  0  0  0
  1  3  1  0
  1  7  4  0
  1 11  3  0
  2  3  1  0
  2  4  2  0
  2  6  3  0
  3  6  2  0
  3  7  4  0
  3  8  1  0
  4  6  2  0
  4 10  3  0
  5  6  2  0
  5  9  4  0
  5 10  3  0
  5 11  4  0
  6  7  4  0
  6 10  2  0
  6 11  1  0
  7  8  3  0
  8 10  4  0
  8 11  3  0
M  END
$$$$

 Created by Python create_sdf_string function

 26 26  0  0  0  0  0  0  0  0999 V2000
    9.8161   -3.0300   17.4959 C   0  0  0  0  0  0  0  0  0  0  0  0
   11.8558   -6.8349   17.9748 F   0  0  0  0  0  0  0  0  0  0  0  0
    8.7242  -11.6809   17.6484 F   0  0  0  0  0  0  0  0  0  0  0  0
    6.6574   -9.4001   17.4539 P   0  0  0  0  0  0  0  0  0  0  0  0
    8.5469   -4.5621   17.0804 F   0  0  0  0  0  0  0  0  0  0  0  0
    5.7149   -6.9284   18.7190 N   0  0  0  0  0  0  0  0  0  0  0  0
    8.6361   -6.3814   17.6418 Cl  0  0  0  0  0  0  0  0  0  0  0  0
    8.1858   -6.2977   19.2321 C   0  0  0  0  0  0  0  0  0  0  0  0
    7.1578   -8.9146   16.3866 S   0  0  0  0  0  0  0  0  0  0  0  0
    7.8452   -8.4478   16.3476 P   0  0  0  0  0  0  0  0  0  0  0  0
   12.2525   -5.9883   19.9059 C   0  0  0  0  0  0  0  0  0  0  0  0
    8.3737   -7.3086   18.3168 P   0  0  0  0  0  0  0  0  0  0  0  0
   11.8632   -2.3185   18.8782 S   0  0  0  0  0  0  0  0  0  0  0  0
   11.2451   -4.9506   18.1851 C   0  0  0  0  0  0  0  0  0  0  0  0
    8.3406   -2.3944   20.5119 He  0  0  0  0  0  0  0  0  0  0  0  0
    6.1232   -7.8640   18.0321 He  0  0  0  0  0  0  0  0  0  0  0  0
   10.2965   -2.4348   15.9291 He  0  0  0  0  0  0  0  0  0  0  0  0
    9.4633   -3.8379   15.2938 He  0  0  0  0  0  0  0  0  0  0  0  0
    6.3347   -9.4211   15.4424 He  0  0  0  0  0  0  0  0  0  0  0  0
    9.9231   -5.2028   21.3543 He  0  0  0  0  0  0  0  0  0  0  0  0
    5.6859   -8.4664   16.9648 He  0  0  0  0  0  0  0  0  0  0  0  0
    7.3115   -9.4855   17.1774 He  0  0  0  0  0  0  0  0  0  0  0  0
   10.0230   -3.9223   18.9146 He  0  0  0  0  0  0  0  0  0  0  0  0
    4.8302   -6.4514   17.1194 He  0  0  0  0  0  0  0  0  0  0  0  0
    3.4222  -10.0442   18.3401 He  0  0  0  0  0  0  0  0  0  0  0  0
   10.9491   -2.8627   15.7534 He  0  0  0  0  0  0  0  0  0  0  0  0
  1  6  1  0
  1  8  4  0
  1 14  3  0
  2 10  2  0
  2 11  2  0
  2 12  4  0
  3 11  2  0
  3 13  4  0
  3 14  3  0
  4  5  2  0
  4  9  1  0
  4 13  1  0
  5  7  3  0
  6  8  2  0
  6 10  1  0
  6 11  1  0
  6 14  1  0
  7  9  3  0
  7 12  4  0
  8  9  1  0
  8 10  4  0
  8 14  2  0
  9 10  2  0
  9 13  1  0
 10 12  3  0
 11 13  4  0
M  END
$$$$

 Created by Python create_sdf_string function

 26 28  0  0  0  0  0  0  0  0999 V2000
   10.9713   -4.5750   18.7833 C   0  0  0  0  0  0  0  0  0  0  0  0
   11.9031   -6.4288   18.0017 Se  0  0  0  0  0  0  0  0  0  0  0  0
    8.2555   -5.6001   17.8418 Cl  0  0  0  0  0  0  0  0  0  0  0  0
    4.5948   -6.1337   19.3956 F   0  0  0  0  0  0  0  0  0  0  0  0
    8.7123   -6.0960   18.2274 C   0  0  0  0  0  0  0  0  0  0  0  0
    9.3753   -6.3115   18.0890 N   0  0  0  0  0  0  0  0  0  0  0  0
    8.6477   -4.3580   15.4453 B   0  0  0  0  0  0  0  0  0  0  0  0
    4.0929   -7.7699   17.2019 Cl  0  0  0  0  0  0  0  0  0  0  0  0
    7.1460   -8.9683   16.1278 O   0  0  0  0  0  0  0  0  0  0  0  0
    8.4963   -7.6576   15.0979 C   0  0  0  0  0  0  0  0  0  0  0  0
   11.9206   -6.6053   20.5612 S   0  0  0  0  0  0  0  0  0  0  0  0
    8.9504   -7.9138   18.0984 N   0  0  0  0  0  0  0  0  0  0  0  0
    8.8478   -2.7216   18.7547 C   0  0  0  0  0  0  0  0  0  0  0  0
    8.0577   -3.6148   19.3598 He  0  0  0  0  0  0  0  0  0  0  0  0
    7.2053   -7.9578   18.9949 He  0  0  0  0  0  0  0  0  0  0  0  0
    8.6863   -8.7693   16.3087 He  0  0  0  0  0  0  0  0  0  0  0  0
    9.9917   -1.6201   15.4295 He  0  0  0  0  0  0  0  0  0  0  0  0
    7.3903   -8.1007   17.4471 He  0  0  0  0  0  0  0  0  0  0  0  0
    4.4761  -10.1406   17.5862 He  0  0  0  0  0  0  0  0  0  0  0  0
   10.6196   -3.2065   21.7475 He  0  0  0  0  0  0  0  0  0  0  0  0
    5.8172   -9.2018   17.0484 He  0  0  0  0  0  0  0  0  0  0  0  0
    7.4272   -8.2850   17.2469 He  0  0  0  0  0  0  0  0  0  0  0  0
   10.2472   -4.6455   18.6706 He  0  0  0  0  0  0  0  0  0  0  0  0
    3.6279   -8.4730   16.9140 He  0  0  0  0  0  0  0  0  0  0  0  0
   11.7672   -3.5348   19.2448 He  0  0  0  0  0  0  0  0  0  0  0  0
   12.3419   -2.2738   16.4866 He  0  0  0  0  0  0  0  0  0  0  0  0
  1  2  3  0
  1  4  3  0
  1  8  4  0
  2  3  4  0
  2  4  3  0
  2  5  3  0
  2  6  3  0
  2  7  4  0
  3  7  3  0
  3 11  3  0
  4 10  3  0
  4 11  3  0
  4 12  2  0
  5  6  1  0
  5  7  2  0
  5 11  3  0
  5 13  2  0
  6  7  4  0
  6  8  4  0
  6 12  2  0
  7  8  1  0
  7  9  3  0
  7 13  3  0
  8 10  3  0
  8 11  1  0
  8 13  4  0
 10 13  2  0
 11 13  4  0
M  END
$$$$

 Created by Python create_sdf_string function

 26 70  0  0  0  0  0  0  0  0999 V2000
   10.0008   -4.2628   19.3012 O   0  0  0  0  0  0  0  0  0  0  0  0
    6.7668   -8.3099   18.2044 O   0  0  0  0  0  0  0  0  0  0  0  0
   11.2050   -5.2126   18.0399 C   0  0  0  0  0  0  0  0  0  0  0  0
   11.2988   -4.9821   18.0074 C   0  0  0  0  0  0  0  0  0  0  0  0
    7.3476   -8.2867   13.6781 C   0  0  0  0  0  0  0  0  0  0  0  0
   11.1923   -4.8824   15.2083 O   0  0  0  0  0  0  0  0  0  0  0  0
    9.0484   -6.8002   17.8427 P   0  0  0  0  0  0  0  0  0  0  0  0
    6.4118   -7.5269   17.9879 F   0  0  0  0  0  0  0  0  0  0  0  0
    8.6610   -5.3134   18.4990 P   0  0  0  0  0  0  0  0  0  0  0  0
   10.7598   -7.4033   18.3356 N   0  0  0  0  0  0  0  0  0  0  0  0
    7.4210   -3.2609   16.3767 P   0  0  0  0  0  0  0  0  0  0  0  0
    4.6015   -9.5991   17.0784 C   0  0  0  0  0  0  0  0  0  0  0  0
   12.0323   -3.5103   21.7864 N   0  0  0  0  0  0  0  0  0  0  0  0
    5.7302   -7.7961   15.7351 C   0  0  0  0  0  0  0  0  0  0  0  0
    7.5305   -8.6359   17.5702 C   0  0  0  0  0  0  0  0  0  0  0  0
    1.8763   -7.7948   14.6794 C   0  0  0  0  0  0  0  0  0  0  0  0
    8.9348   -7.5735   17.5723 P   0  0  0  0  0  0  0  0  0  0  0  0
   11.0941   -4.1235   18.3610 N   0  0  0  0  0  0  0  0  0  0  0  0
   11.3710   -2.8402   19.6899 C   0  0  0  0  0  0  0  0  0  0  0  0
   10.6810   -4.6504   16.9697 Cl  0  0  0  0  0  0  0  0  0  0  0  0
    7.9171   -8.3803   17.8750 He  0  0  0  0  0  0  0  0  0  0  0  0
   11.2259   -4.9926   16.4290 He  0  0  0  0  0  0  0  0  0  0  0  0
    6.5927   -9.0021   15.7225 He  0  0  0  0  0  0  0  0  0  0  0  0
    7.0415   -8.0114   15.2806 He  0  0  0  0  0  0  0  0  0  0  0  0
   11.0444   -5.5797   21.1428 He  0  0  0  0  0  0  0  0  0  0  0  0
    5.2090   -8.0554   16.7440 He  0  0  0  0  0  0  0  0  0  0  0  0
  1  8  1  0
  1  9  1  0
  1 11  3  0
  1 13  2  0
  1 14  1  0
  1 18  2  0
  1 20  1  0
  2  3  4  0
  2  4  4  0
  2  8  1  0
  2 17  1  0
  2 19  3  0
  3  5  3  0
  3  9  4  0
  3 12  3  0
  3 13  1  0
  3 17  1  0
  3 19  4  0
  4  5  4  0
  4  7  2  0
  4  8  1  0
  4  9  3  0
  4 12  2  0
  4 13  1  0
  4 16  2  0
  4 18  2  0
  5  6  1  0
  5  8  3  0
  5 16  3  0
  5 20  1  0
  6 10  3  0
  6 17  4  0
  6 18  4  0
  6 19  4  0
  7  9  3  0
  7 13  1  0
  7 16  1  0
  7 17  4  0
  7 18  1  0
  7 20  1  0
  8  9  2  0
  8 12  2  0
  8 13  1  0
  8 14  4  0
  8 18  4  0
  9 10  4  0
  9 15  1  0
  9 16  4  0
  9 18  1  0
 10 11  3  0
 10 13  4  0
 10 14  3  0
 10 17  2  0
 10 20  2  0
 11 12  3  0
 11 14  2  0
 11 17  3  0
 12 14  3  0
 13 16  3  0
 14 17  1  0
 14 19  1  0
 14 20  2  0
 15 17  1  0
 15 18  4  0
 16 18  2  0
 16 19  2  0
 16 20  3  0
 17 19  1  0
 18 20  1  0
 19 20  3  0
M  END
$$$$

 Created by Python create_sdf_string function

 26 34  0  0  0  0  0  0  0  0999 V2000
   10.9018   -6.6220   20.3252 S   0  0  0  0  0  0  0  0  0  0  0  0
    8.3609   -8.4726   15.1587 F   0  0  0  0  0  0  0  0  0  0  0  0
    7.6148   -9.1240   18.1024 C   0  0  0  0  0  0  0  0  0  0  0  0
    6.7065   -7.2248   16.3845 Cl  0  0  0  0  0  0  0  0  0  0  0  0
    9.7430   -6.3342   18.1663 N   0  0  0  0  0  0  0  0  0  0  0  0
    8.7701   -5.5675   20.4166 C   0  0  0  0  0  0  0  0  0  0  0  0
    9.1500   -4.2981   17.9646 C   0  0  0  0  0  0  0  0  0  0  0  0
   11.6097   -4.1009   20.6149 Cl  0  0  0  0  0  0  0  0  0  0  0  0
    6.0571   -8.2820   16.1260 F   0  0  0  0  0  0  0  0  0  0  0  0
   11.4434   -4.4188   17.7318 N   0  0  0  0  0  0  0  0  0  0  0  0
    3.1152   -7.2191   15.9787 O   0  0  0  0  0  0  0  0  0  0  0  0
    7.4102   -9.0594   14.2018 B   0  0  0  0  0  0  0  0  0  0  0  0
    8.9277   -5.6553   18.0231 C   0  0  0  0  0  0  0  0  0  0  0  0
    9.9332   -3.7077   18.0618 F   0  0  0  0  0  0  0  0  0  0  0  0
   12.3391   -2.4972   19.2660 C   0  0  0  0  0  0  0  0  0  0  0  0
   10.7712   -6.7563   17.1194 C   0  0  0  0  0  0  0  0  0  0  0  0
   11.4890   -4.6349   17.8920 He  0  0  0  0  0  0  0  0  0  0  0  0
    7.0893   -8.4485   18.0606 He  0  0  0  0  0  0  0  0  0  0  0  0
   11.1855   -5.7721   17.9685 He  0  0  0  0  0  0  0  0  0  0  0  0
   10.9593   -3.4750   16.1526 He  0  0  0  0  0  0  0  0  0  0  0  0
    9.4625   -6.7473   18.5951 He  0  0  0  0  0  0  0  0  0  0  0  0
    5.6047   -9.6897   17.9613 He  0  0  0  0  0  0  0  0  0  0  0  0
    7.3863   -7.5027   18.4744 He  0  0  0  0  0  0  0  0  0  0  0  0
    5.5860   -8.7436   15.8662 He  0  0  0  0  0  0  0  0  0  0  0  0
    9.3127   -4.2802   22.3665 He  0  0  0  0  0  0  0  0  0  0  0  0
    5.0497  -10.1886   17.5970 He  0  0  0  0  0  0  0  0  0  0  0  0
  1  2  2  0
  1  5  4  0
  1  8  4  0
  1 11  1  0
  2  5  3  0
  2  7  4  0
  2  8  2  0
  2 13  4  0
  2 14  1  0
  3  6  1  0
  3 11  2  0
  3 13  4  0
  3 15  4  0
  4  6  1  0
  4  7  1  0
  4 13  1  0
  4 16  1  0
  5 10  2  0
  5 12  3  0
  5 15  1  0
  6  7  4  0
  6  8  3  0
  6  9  1  0
  6 16  4  0
  7  9  2  0
  8  9  4  0
  8 12  2  0
  8 13  2  0
  9 10  2  0
  9 16  2  0
 10 16  3  0
 11 12  3  0
 12 13  1  0
 13 15  2  0
M  END
$$$$

 Created by Python create_sdf_string function

 26  7  0  0  0  0  0  0  0  0999 V2000
   11.2276   -5.3758   17.8904 F   0  0  0  0  0  0  0  0  0  0  0  0
    5.5605   -6.8630   18.2686 C   0  0  0  0  0  0  0  0  0  0  0  0
   11.8113   -5.5118   18.8679 Se  0  0  0  0  0  0  0  0  0  0  0  0
   10.9800   -5.2102   19.5772 N   0  0  0  0  0  0  0  0  0  0  0  0
    6.4327   -8.5199   16.5617 C   0  0  0  0  0  0  0  0  0  0  0  0
    5.1067   -9.6773   17.7339 C   0  0  0  0  0  0  0  0  0  0  0  0
    7.0985  -10.4559   15.5018 O   0  0  0  0  0  0  0  0  0  0  0  0
   12.9240   -2.4616   20.4961 C   0  0  0  0  0  0  0  0  0  0  0  0
   10.6695   -4.0060   20.4366 He  0  0  0  0  0  0  0  0  0  0  0  0
    7.3619   -8.0159   15.6116 He  0  0  0  0  0  0  0  0  0  0  0  0
   11.5658   -4.5988   15.8961 He  0  0  0  0  0  0  0  0  0  0  0  0
    9.2673   -9.3928   17.2234 He  0  0  0  0  0  0  0  0  0  0  0  0
    8.2277   -6.2498   19.3108 He  0  0  0  0  0  0  0  0  0  0  0  0
    6.6634   -5.6201   17.7806 He  0  0  0  0  0  0  0  0  0  0  0  0
   10.5482   -7.1641   19.4372 He  0  0  0  0  0  0  0  0  0  0  0  0
    8.7776   -2.9976   16.7346 He  0  0  0  0  0  0  0  0  0  0  0  0
    5.6663   -9.0806   18.1027 He  0  0  0  0  0  0  0  0  0  0  0  0
    9.8391   -5.6409   20.7831 He  0  0  0  0  0  0  0  0  0  0  0  0
    7.3062   -7.3868   18.3729 He  0  0  0  0  0  0  0  0  0  0  0  0
   11.9567   -4.8026   17.6915 He  0  0  0  0  0  0  0  0  0  0  0  0
    6.8433   -7.6557   15.4300 He  0  0  0  0  0  0  0  0  0  0  0  0
   10.5097   -4.3602   21.9089 He  0  0  0  0  0  0  0  0  0  0  0  0
    4.8181  -10.5749   17.6639 He  0  0  0  0  0  0  0  0  0  0  0  0
    8.7470   -4.5379   17.3521 He  0  0  0  0  0  0  0  0  0  0  0  0
    9.0135   -2.0889   17.5822 He  0  0  0  0  0  0  0  0  0  0  0  0
   11.4480   -7.2469   18.6003 He  0  0  0  0  0  0  0  0  0  0  0  0
  1  6  4  0
  1  7  4  0
  2  8  4  0
  4  7  2  0
  5  6  1  0
  5  7  2  0
  5  8  1  0
M  END
$$$$

 Created by Python create_sdf_string function

 26 59  0  0  0  0  0  0  0  0999 V2000
    6.7213   -7.4910   18.2458 N   0  0  0  0  0  0  0  0  0  0  0  0
    9.0019   -3.8259   20.1354 C   0  0  0  0  0  0  0  0  0  0  0  0
    6.9948   -8.6210   16.2163 P   0  0  0  0  0  0  0  0  0  0  0  0
    8.8637   -7.7712   17.2052 C   0  0  0  0  0  0  0  0  0  0  0  0
    8.9881   -5.4855   20.2202 F   0  0  0  0  0  0  0  0  0  0  0  0
    8.4400   -6.6829   16.0835 C   0  0  0  0  0  0  0  0  0  0  0  0
   10.0966   -4.9503   19.0957 F   0  0  0  0  0  0  0  0  0  0  0  0
   12.5456   -5.6253   19.7058 F   0  0  0  0  0  0  0  0  0  0  0  0
    8.9195   -4.4159   15.4871 Cl  0  0  0  0  0  0  0  0  0  0  0  0
    4.3081   -8.2599   18.7154 F   0  0  0  0  0  0  0  0  0  0  0  0
   10.6376   -5.4129   18.9119 O   0  0  0  0  0  0  0  0  0  0  0  0
    5.7970   -9.1503   15.5919 C   0  0  0  0  0  0  0  0  0  0  0  0
    6.7961   -7.2374   17.3771 C   0  0  0  0  0  0  0  0  0  0  0  0
   10.2721   -4.7749   15.8675 C   0  0  0  0  0  0  0  0  0  0  0  0
    7.4574   -7.7510   16.9907 C   0  0  0  0  0  0  0  0  0  0  0  0
    5.3612   -9.5800   17.1039 C   0  0  0  0  0  0  0  0  0  0  0  0
    8.8272   -5.0822   17.8246 Se  0  0  0  0  0  0  0  0  0  0  0  0
    8.6670   -3.9536   17.5619 O   0  0  0  0  0  0  0  0  0  0  0  0
   11.1436   -2.6229   21.0045 Cl  0  0  0  0  0  0  0  0  0  0  0  0
   10.6749   -8.4916   19.5192 C   0  0  0  0  0  0  0  0  0  0  0  0
   10.2710   -4.3578   16.9684 He  0  0  0  0  0  0  0  0  0  0  0  0
   12.4106   -5.3223   19.8646 He  0  0  0  0  0  0  0  0  0  0  0  0
   12.1819   -4.3813   14.3797 He  0  0  0  0  0  0  0  0  0  0  0  0
    5.3166   -8.1406   17.0653 He  0  0  0  0  0  0  0  0  0  0  0  0
    6.2883   -7.8242   14.6662 He  0  0  0  0  0  0  0  0  0  0  0  0
   10.7854   -3.6042   22.7113 He  0  0  0  0  0  0  0  0  0  0  0  0
  1  2  2  0
  1  3  3  0
  1  4  2  0
  1  7  4  0
  1 11  2  0
  1 12  2  0
  1 14  3  0
  1 15  3  0
  2  3  1  0
  2  4  2  0
  2 12  3  0
  2 13  1  0
  2 16  1  0
  3  5  1  0
  3 14  2  0
  3 15  4  0
  4  9  1  0
  4 10  2  0
  4 11  1  0
  4 15  4  0
  4 18  2  0
  4 20  2  0
  5  6  1  0
  5  8  4  0
  5 10  1  0
  5 15  2  0
  6 10  2  0
  6 11  4  0
  6 13  2  0
  6 17  4  0
  6 18  4  0
  6 20  4  0
  7  8  3  0
  7 11  3  0
  7 18  2  0
  7 20  1  0
  8 10  4  0
  8 11  2  0
  8 13  4  0
  8 15  1  0
  9 11  3  0
  9 12  2  0
  9 13  1  0
  9 19  4  0
  9 20  4  0
 10 16  1  0
 10 19  4  0
 10 20  2  0
 11 12  2  0
 11 18  4  0
 11 19  3  0
 11 20  3  0
 12 19  2  0
 13 17  4  0
 13 18  4  0
 14 19  3  0
 15 18  1  0
 15 20  2  0
 16 20  2  0
M  END
$$$$

 Created by Python create_sdf_string function

 26 49  0  0  0  0  0  0  0  0999 V2000
    4.9934   -8.7902   18.8018 C   0  0  0  0  0  0  0  0  0  0  0  0
   11.3379   -4.1062   14.5601 F   0  0  0  0  0  0  0  0  0  0  0  0
    9.9916   -7.5297   16.7094 C   0  0  0  0  0  0  0  0  0  0  0  0
    8.6003   -5.6823   19.9760 C   0  0  0  0  0  0  0  0  0  0  0  0
    6.7369   -6.9839   16.3551 O   0  0  0  0  0  0  0  0  0  0  0  0
   11.9525   -6.2487   19.6572 C   0  0  0  0  0  0  0  0  0  0  0  0
   10.2898   -4.4573   17.0915 C   0  0  0  0  0  0  0  0  0  0  0  0
    5.4726   -9.1248   16.4558 S   0  0  0  0  0  0  0  0  0  0  0  0
   10.4506   -5.2173   18.4691 S   0  0  0  0  0  0  0  0  0  0  0  0
    9.9007   -4.5255   17.6966 N   0  0  0  0  0  0  0  0  0  0  0  0
    5.9395   -8.8589   18.2778 N   0  0  0  0  0  0  0  0  0  0  0  0
    6.1517   -7.8050   14.2745 O   0  0  0  0  0  0  0  0  0  0  0  0
    7.0407   -5.5911   17.8171 O   0  0  0  0  0  0  0  0  0  0  0  0
   10.3708   -3.3831   22.9744 C   0  0  0  0  0  0  0  0  0  0  0  0
    5.4546   -9.8997   16.7037 P   0  0  0  0  0  0  0  0  0  0  0  0
    9.1639   -4.7434   18.0157 C   0  0  0  0  0  0  0  0  0  0  0  0
    9.0115   -4.3643   17.2529 N   0  0  0  0  0  0  0  0  0  0  0  0
   11.8268   -5.0138   21.8700 N   0  0  0  0  0  0  0  0  0  0  0  0
   10.6922   -4.3065   16.5662 He  0  0  0  0  0  0  0  0  0  0  0  0
   10.3139   -3.3117   19.7438 He  0  0  0  0  0  0  0  0  0  0  0  0
   11.9371   -5.2561   19.4140 He  0  0  0  0  0  0  0  0  0  0  0  0
    7.2665   -6.9873   14.7382 He  0  0  0  0  0  0  0  0  0  0  0  0
   12.4060   -5.0154   20.7642 He  0  0  0  0  0  0  0  0  0  0  0  0
    6.6289   -6.9976   15.7731 He  0  0  0  0  0  0  0  0  0  0  0  0
    6.4869   -8.5071   18.2792 He  0  0  0  0  0  0  0  0  0  0  0  0
    8.2589   -8.4294   19.5990 He  0  0  0  0  0  0  0  0  0  0  0  0
  1  2  3  0
  1  3  1  0
  1  5  3  0
  1 10  4  0
  1 11  4  0
  1 17  2  0
  1 18  2  0
  2  3  1  0
  2  4  4  0
  2  6  3  0
  2 11  1  0
  3  4  4  0
  3  7  3  0
  3 15  2  0
  3 17  4  0
  4  6  1  0
  4 13  1  0
  5  8  1  0
  5  9  2  0
  5 17  2  0
  6 12  2  0
  6 14  1  0
  6 18  2  0
  7  9  2  0
  7 10  1  0
  7 11  3  0
  7 13  2  0
  7 17  4  0
  8 16  1  0
  9 12  2  0
  9 13  4  0
  9 15  1  0
  9 16  3  0
  9 17  1  0
  9 18  1  0
 10 14  3  0
 10 16  4  0
 11 13  2  0
 11 15  2  0
 12 16  3  0
 12 18  1  0
 13 14  1  0
 13 15  4  0
 13 16  2  0
 13 17  4  0
 14 16  3  0
 14 17  3  0
 14 18  1  0
 17 18  1  0
M  END
$$$$

 Created by Python create_sdf_string function

 26 38  0  0  0  0  0  0  0  0999 V2000
   10.2019   -4.8169   15.3047 C   0  0  0  0  0  0  0  0  0  0  0  0
   11.4386   -4.3789   20.1710 F   0  0  0  0  0  0  0  0  0  0  0  0
   10.9695   -5.1852   20.9641 N   0  0  0  0  0  0  0  0  0  0  0  0
    7.8413   -7.3324   14.7163 B   0  0  0  0  0  0  0  0  0  0  0  0
   10.2553   -3.2845   16.0046 C   0  0  0  0  0  0  0  0  0  0  0  0
    7.4838   -8.2012   17.0231 P   0  0  0  0  0  0  0  0  0  0  0  0
   11.6970   -5.9324   20.9018 S   0  0  0  0  0  0  0  0  0  0  0  0
    6.2994   -8.0435   16.7799 B   0  0  0  0  0  0  0  0  0  0  0  0
    6.8006   -7.6503   15.3041 C   0  0  0  0  0  0  0  0  0  0  0  0
    7.8199   -7.2602   17.9851 C   0  0  0  0  0  0  0  0  0  0  0  0
    5.9650   -7.6657   18.8959 P   0  0  0  0  0  0  0  0  0  0  0  0
    6.7355   -6.5578   16.6726 N   0  0  0  0  0  0  0  0  0  0  0  0
    8.8180   -3.6721   17.5237 Cl  0  0  0  0  0  0  0  0  0  0  0  0
   12.1567   -5.3951   21.3523 C   0  0  0  0  0  0  0  0  0  0  0  0
    7.7647   -8.0581   19.9118 S   0  0  0  0  0  0  0  0  0  0  0  0
    5.6545   -8.4093   16.7284 He  0  0  0  0  0  0  0  0  0  0  0  0
    6.9194   -6.7467   17.3336 He  0  0  0  0  0  0  0  0  0  0  0  0
    8.7086   -5.7739   18.7682 He  0  0  0  0  0  0  0  0  0  0  0  0
   12.0819   -4.3683   19.8917 He  0  0  0  0  0  0  0  0  0  0  0  0
   10.6425   -4.5861   16.2168 He  0  0  0  0  0  0  0  0  0  0  0  0
   10.8605   -4.6789   18.7136 He  0  0  0  0  0  0  0  0  0  0  0  0
    9.7574   -4.6686   18.3717 He  0  0  0  0  0  0  0  0  0  0  0  0
    5.5468   -9.0772   14.4261 He  0  0  0  0  0  0  0  0  0  0  0  0
   10.7676   -4.3265   22.4276 He  0  0  0  0  0  0  0  0  0  0  0  0
    6.0433  -10.3281   16.7529 He  0  0  0  0  0  0  0  0  0  0  0  0
    9.8582   -4.6615   18.1438 He  0  0  0  0  0  0  0  0  0  0  0  0
  1  5  1  0
  1 12  1  0
  2  4  1  0
  2  6  3  0
  2  7  3  0
  2 10  4  0
  2 14  2  0
  2 15  3  0
  3  6  1  0
  3  8  4  0
  3  9  3  0
  3 11  4  0
  3 12  1  0
  3 14  2  0
  4  5  2  0
  4  7  1  0
  4  8  3  0
  4 11  2  0
  4 12  4  0
  4 15  1  0
  5 12  4  0
  5 13  2  0
  6 10  3  0
  7  9  4  0
  7 13  2  0
  8  9  3  0
  8 13  2  0
  9 10  2  0
  9 11  4  0
  9 13  4  0
  9 15  3  0
 10 15  1  0
 11 13  3  0
 11 14  1  0
 12 15  1  0
 13 14  2  0
 13 15  3  0
 14 15  2  0
M  END
$$$$

 Created by Python create_sdf_string function

 26 17  0  0  0  0  0  0  0  0999 V2000
    5.6576   -8.8649   16.4184 O   0  0  0  0  0  0  0  0  0  0  0  0
   12.5389   -3.3879   19.5764 B   0  0  0  0  0  0  0  0  0  0  0  0
   11.2979   -5.6074   20.9974 F   0  0  0  0  0  0  0  0  0  0  0  0
    7.9115   -7.9321   16.5627 O   0  0  0  0  0  0  0  0  0  0  0  0
    9.9424   -3.0381   17.1350 C   0  0  0  0  0  0  0  0  0  0  0  0
    8.2421   -9.4107   16.4356 P   0  0  0  0  0  0  0  0  0  0  0  0
   12.0689   -4.9661   19.3956 S   0  0  0  0  0  0  0  0  0  0  0  0
   10.4956   -6.5843   17.8420 C   0  0  0  0  0  0  0  0  0  0  0  0
    5.6795   -5.8797   15.1145 I   0  0  0  0  0  0  0  0  0  0  0  0
   10.3218   -5.2713   18.3007 C   0  0  0  0  0  0  0  0  0  0  0  0
    8.1079   -8.1937   18.0140 O   0  0  0  0  0  0  0  0  0  0  0  0
    9.8382   -4.8179   16.1602 He  0  0  0  0  0  0  0  0  0  0  0  0
    5.7894   -7.3081   17.3784 He  0  0  0  0  0  0  0  0  0  0  0  0
    8.2262   -6.0362   19.0564 He  0  0  0  0  0  0  0  0  0  0  0  0
   12.0814   -5.4719   19.2451 He  0  0  0  0  0  0  0  0  0  0  0  0
   10.2936   -3.5892   16.7043 He  0  0  0  0  0  0  0  0  0  0  0  0
    5.9492   -9.0759   15.6100 He  0  0  0  0  0  0  0  0  0  0  0  0
    9.4224   -4.9065   18.6781 He  0  0  0  0  0  0  0  0  0  0  0  0
    8.4454   -6.9130   16.4142 He  0  0  0  0  0  0  0  0  0  0  0  0
    8.1259   -7.2509   17.4116 He  0  0  0  0  0  0  0  0  0  0  0  0
    7.0185   -7.7257   18.2480 He  0  0  0  0  0  0  0  0  0  0  0  0
    5.4192   -8.5847   13.9911 He  0  0  0  0  0  0  0  0  0  0  0  0
   11.7717   -4.5572   23.6655 He  0  0  0  0  0  0  0  0  0  0  0  0
    7.3481   -9.2911   15.2270 He  0  0  0  0  0  0  0  0  0  0  0  0
    9.8440   -4.3944   17.4832 He  0  0  0  0  0  0  0  0  0  0  0  0
   12.8934   -3.2306   22.7010 He  0  0  0  0  0  0  0  0  0  0  0  0
  1  2  3  0
  1  4  4  0
  1  5  2  0
  2  3  3  0
  2  5  2  0
  2  9  3  0
  2 10  4  0
  2 11  1  0
  3  5  3  0
  3  6  2  0
  3 11  2  0
  4  6  2  0
  5  8  2  0
  6  7  1  0
  7 10  3  0
  8 10  1  0
 10 11  4  0
M  END
$$$$

 Created by Python create_sdf_string function

 26 33  0  0  0  0  0  0  0  0999 V2000
    9.6737   -4.8426   16.4427 S   0  0  0  0  0  0  0  0  0  0  0  0
    6.3490   -7.8432   17.1142 B   0  0  0  0  0  0  0  0  0  0  0  0
   11.7220   -4.3476   20.7106 O   0  0  0  0  0  0  0  0  0  0  0  0
    7.8326   -8.1873   17.2792 O   0  0  0  0  0  0  0  0  0  0  0  0
    4.3964   -6.5361   14.8655 P   0  0  0  0  0  0  0  0  0  0  0  0
    8.7095   -5.3212   19.2499 P   0  0  0  0  0  0  0  0  0  0  0  0
    8.7247   -8.7829   17.3794 O   0  0  0  0  0  0  0  0  0  0  0  0
   10.9994   -5.5736   20.2928 C   0  0  0  0  0  0  0  0  0  0  0  0
    8.9736   -5.4209   17.9303 Br  0  0  0  0  0  0  0  0  0  0  0  0
    7.3320   -5.7238   16.3684 F   0  0  0  0  0  0  0  0  0  0  0  0
    5.7963   -6.1525   15.2281 Se  0  0  0  0  0  0  0  0  0  0  0  0
   11.2882   -3.9141   22.4110 O   0  0  0  0  0  0  0  0  0  0  0  0
   10.2552   -5.2152   18.2102 C   0  0  0  0  0  0  0  0  0  0  0  0
    9.6484   -8.2010   17.4420 Se  0  0  0  0  0  0  0  0  0  0  0  0
   12.8594   -6.8407   20.9600 He  0  0  0  0  0  0  0  0  0  0  0  0
    9.3488   -2.6865   17.0833 He  0  0  0  0  0  0  0  0  0  0  0  0
   13.1614   -4.7908   21.0987 He  0  0  0  0  0  0  0  0  0  0  0  0
    9.9136   -1.9289   16.8344 He  0  0  0  0  0  0  0  0  0  0  0  0
    4.6475   -9.3687   15.7134 He  0  0  0  0  0  0  0  0  0  0  0  0
    8.4057   -8.2294   18.4886 He  0  0  0  0  0  0  0  0  0  0  0  0
    9.4560   -5.2887   19.4500 He  0  0  0  0  0  0  0  0  0  0  0  0
    6.9633   -7.4615   18.2803 He  0  0  0  0  0  0  0  0  0  0  0  0
    6.3992   -8.0177   16.3864 He  0  0  0  0  0  0  0  0  0  0  0  0
    7.1854   -9.5458   14.1691 He  0  0  0  0  0  0  0  0  0  0  0  0
   10.4056   -5.4994   18.3097 He  0  0  0  0  0  0  0  0  0  0  0  0
   12.9119   -2.8289   22.5854 He  0  0  0  0  0  0  0  0  0  0  0  0
  1  5  1  0
  1  7  3  0
  1  9  3  0
  1 11  2  0
  1 14  3  0
  2  7  1  0
  2 12  4  0
  2 13  1  0
  3  4  3  0
  3  7  2  0
  3  8  1  0
  3 11  4  0
  3 12  2  0
  4  5  2  0
  4  6  2  0
  4  7  1  0
  4 13  2  0
  5  8  1  0
  5 10  3  0
  5 13  3  0
  5 14  2  0
  6 11  1  0
  7  9  3  0
  7 12  1  0
  8 12  4  0
  8 13  3  0
  9 11  3  0
  9 13  3  0
 10 13  1  0
 11 13  3  0
 11 14  4  0
 12 13  1  0
 12 14  3  0
M  END
$$$$

 Created by Python create_sdf_string function

 26 32  0  0  0  0  0  0  0  0999 V2000
    9.2497   -4.7835   16.3541 C   0  0  0  0  0  0  0  0  0  0  0  0
    6.5066   -7.1706   17.3739 Cl  0  0  0  0  0  0  0  0  0  0  0  0
   12.0023   -4.7865   18.4359 S   0  0  0  0  0  0  0  0  0  0  0  0
   12.4739   -6.0698   22.8469 Cl  0  0  0  0  0  0  0  0  0  0  0  0
    9.3434   -7.9990   17.4166 N   0  0  0  0  0  0  0  0  0  0  0  0
   14.0839   -3.6529   20.8093 S   0  0  0  0  0  0  0  0  0  0  0  0
   10.5407   -3.1078   16.1836 C   0  0  0  0  0  0  0  0  0  0  0  0
    5.9847   -8.5924   15.2084 F   0  0  0  0  0  0  0  0  0  0  0  0
    8.3591   -7.8013   17.3240 F   0  0  0  0  0  0  0  0  0  0  0  0
    6.2964   -8.3455   17.0772 C   0  0  0  0  0  0  0  0  0  0  0  0
    7.4032   -6.7981   16.4638 Se  0  0  0  0  0  0  0  0  0  0  0  0
    6.5229   -8.5296   16.0372 O   0  0  0  0  0  0  0  0  0  0  0  0
    9.9630   -6.6131   18.1365 O   0  0  0  0  0  0  0  0  0  0  0  0
    6.2794   -8.2945   17.7615 He  0  0  0  0  0  0  0  0  0  0  0  0
   11.6299   -3.4352   16.7312 He  0  0  0  0  0  0  0  0  0  0  0  0
    4.5247   -7.6717   13.7455 He  0  0  0  0  0  0  0  0  0  0  0  0
    9.0592   -5.6589   19.1709 He  0  0  0  0  0  0  0  0  0  0  0  0
   10.9087   -5.3500   20.2823 He  0  0  0  0  0  0  0  0  0  0  0  0
    9.2920   -5.5446   17.0547 He  0  0  0  0  0  0  0  0  0  0  0  0
    6.9325   -5.5168   17.3534 He  0  0  0  0  0  0  0  0  0  0  0  0
   10.2317   -5.3968   19.9512 He  0  0  0  0  0  0  0  0  0  0  0  0
    6.1518   -7.6106   16.6332 He  0  0  0  0  0  0  0  0  0  0  0  0
   11.3514   -2.6297   21.9958 He  0  0  0  0  0  0  0  0  0  0  0  0
   10.2843   -5.6869   18.5591 He  0  0  0  0  0  0  0  0  0  0  0  0
   11.2520   -3.3488   23.0678 He  0  0  0  0  0  0  0  0  0  0  0  0
    8.5179   -7.8064   18.3886 He  0  0  0  0  0  0  0  0  0  0  0  0
  1  2  1  0
  1  3  1  0
  1  4  4  0
  1  7  3  0
  1 10  2  0
  1 11  1  0
  1 12  3  0
  2 10  3  0
  2 11  1  0
  2 13  1  0
  3 10  2  0
  3 12  4  0
  4  5  2  0
  4  6  3  0
  4 10  1  0
  5  6  1  0
  5  8  2  0
  5 12  2  0
  6  8  4  0
  6 13  4  0
  7 10  4  0
  7 13  4  0
  8  9  1  0
  8 10  3  0
  8 11  2  0
  8 12  4  0
  9 11  3  0
  9 12  4  0
 10 12  4  0
 10 13  4  0
 11 12  2  0
 11 13  2  0
M  END
$$$$

 Created by Python create_sdf_string function

 26 31  0  0  0  0  0  0  0  0999 V2000
    6.1051   -7.9916   17.3287 I   0  0  0  0  0  0  0  0  0  0  0  0
   11.2116   -5.9890   22.4244 Cl  0  0  0  0  0  0  0  0  0  0  0  0
   10.4110   -3.5795   17.3439 B   0  0  0  0  0  0  0  0  0  0  0  0
    8.9664   -7.0251   17.2857 C   0  0  0  0  0  0  0  0  0  0  0  0
   10.1020   -5.9746   20.8661 F   0  0  0  0  0  0  0  0  0  0  0  0
   13.5909   -1.9221   21.1642 C   0  0  0  0  0  0  0  0  0  0  0  0
   10.4016   -1.5683   17.2963 Cl  0  0  0  0  0  0  0  0  0  0  0  0
    4.4950   -8.2534   15.4068 C   0  0  0  0  0  0  0  0  0  0  0  0
    6.5240   -6.7779   17.6601 F   0  0  0  0  0  0  0  0  0  0  0  0
    9.1552   -8.7343   16.6292 C   0  0  0  0  0  0  0  0  0  0  0  0
   11.8664   -5.5742   20.2934 C   0  0  0  0  0  0  0  0  0  0  0  0
    5.2400   -9.5837   16.0197 P   0  0  0  0  0  0  0  0  0  0  0  0
   10.0123   -5.6495   18.7624 I   0  0  0  0  0  0  0  0  0  0  0  0
    8.1486   -8.6204   20.6344 Cl  0  0  0  0  0  0  0  0  0  0  0  0
    9.9286   -3.4384   17.2482 He  0  0  0  0  0  0  0  0  0  0  0  0
   11.5061   -3.9440   17.5456 He  0  0  0  0  0  0  0  0  0  0  0  0
    5.7505   -9.6381   18.0556 He  0  0  0  0  0  0  0  0  0  0  0  0
    4.9748   -7.2956   15.0384 He  0  0  0  0  0  0  0  0  0  0  0  0
   10.9654   -5.5336   19.4849 He  0  0  0  0  0  0  0  0  0  0  0  0
    8.4541   -5.6391   17.5693 He  0  0  0  0  0  0  0  0  0  0  0  0
    6.0691   -7.2929   16.6390 He  0  0  0  0  0  0  0  0  0  0  0  0
    8.0897   -7.2479   15.9153 He  0  0  0  0  0  0  0  0  0  0  0  0
    9.6287   -5.2485   22.6246 He  0  0  0  0  0  0  0  0  0  0  0  0
    6.7457   -7.3417   16.0810 He  0  0  0  0  0  0  0  0  0  0  0  0
   11.0397   -3.4104   19.5020 He  0  0  0  0  0  0  0  0  0  0  0  0
   12.4459   -1.8333   23.1337 He  0  0  0  0  0  0  0  0  0  0  0  0
  1  4  3  0
  1  5  4  0
  1 12  1  0
  2  3  4  0
  2  4  4  0
  3  4  1  0
  3  7  1  0
  3  8  4  0
  3 11  1  0
  3 14  3  0
  4  7  1  0
  4 11  4  0
  4 12  2  0
  4 13  2  0
  5 10  4  0
  5 12  1  0
  5 14  4  0
  6  7  1  0
  6  8  1  0
  6 11  4  0
  6 13  4  0
  6 14  2  0
  7 11  1  0
  7 12  4  0
  7 14  1  0
  8 10  2  0
  8 13  3  0
  9 10  2  0
  9 13  3  0
 10 13  1  0
 11 13  3  0
M  END
$$$$

 Created by Python create_sdf_string function

 26 32  0  0  0  0  0  0  0  0999 V2000
   10.1479   -2.9308   16.4835 C   0  0  0  0  0  0  0  0  0  0  0  0
    5.6860   -6.5853   17.1073 N   0  0  0  0  0  0  0  0  0  0  0  0
    9.9056   -4.9685   20.8196 Cl  0  0  0  0  0  0  0  0  0  0  0  0
   11.2777   -6.1198   18.1956 C   0  0  0  0  0  0  0  0  0  0  0  0
    9.1487   -6.3099   18.5812 F   0  0  0  0  0  0  0  0  0  0  0  0
   12.0830   -2.8771   21.1580 B   0  0  0  0  0  0  0  0  0  0  0  0
   12.0761   -1.9490   17.7885 Cl  0  0  0  0  0  0  0  0  0  0  0  0
    4.1874   -7.1859   15.2715 C   0  0  0  0  0  0  0  0  0  0  0  0
    7.5180   -6.2702   16.9029 Br  0  0  0  0  0  0  0  0  0  0  0  0
   11.0586   -6.7375   19.0702 C   0  0  0  0  0  0  0  0  0  0  0  0
    7.1564  -10.1706   16.0928 C   0  0  0  0  0  0  0  0  0  0  0  0
    7.8519   -7.6915   16.3534 O   0  0  0  0  0  0  0  0  0  0  0  0
   10.0567   -3.8682   20.1528 F   0  0  0  0  0  0  0  0  0  0  0  0
    7.7864   -8.0331   17.8549 C   0  0  0  0  0  0  0  0  0  0  0  0
   10.9895   -4.2845   17.2434 He  0  0  0  0  0  0  0  0  0  0  0  0
    5.5596   -8.0445   17.8228 He  0  0  0  0  0  0  0  0  0  0  0  0
   10.9451   -3.8891   16.4318 He  0  0  0  0  0  0  0  0  0  0  0  0
    4.9362   -7.8352   15.9824 He  0  0  0  0  0  0  0  0  0  0  0  0
   10.6936   -6.3369   21.0366 He  0  0  0  0  0  0  0  0  0  0  0  0
    8.6243   -5.8403   18.8586 He  0  0  0  0  0  0  0  0  0  0  0  0
    7.2620   -6.8829   17.1033 He  0  0  0  0  0  0  0  0  0  0  0  0
    4.9127   -7.6193   19.7114 He  0  0  0  0  0  0  0  0  0  0  0  0
    9.5242   -2.8036   22.6554 He  0  0  0  0  0  0  0  0  0  0  0  0
    7.3609   -8.4351   16.2982 He  0  0  0  0  0  0  0  0  0  0  0  0
    9.9013   -4.9701   18.4570 He  0  0  0  0  0  0  0  0  0  0  0  0
   13.9463   -2.4451   23.1395 He  0  0  0  0  0  0  0  0  0  0  0  0
  1  3  3  0
  1  4  4  0
  1  5  2  0
  1  8  2  0
  1 11  4  0
  1 14  1  0
  2  3  1  0
  2  4  4  0
  2  5  3  0
  2  7  2  0
  2  8  4  0
  2 10  3  0
  2 12  4  0
  2 14  2  0
  3  7  2  0
  4  9  3  0
  4 13  3  0
  5  6  1  0
  5  7  3  0
  5 11  2  0
  5 12  1  0
  5 14  1  0
  6  9  4  0
  7  9  2  0
  7 13  4  0
  8 14  1  0
  9 10  4  0
  9 11  4  0
  9 14  3  0
 10 12  2  0
 11 13  4  0
 12 13  1  0
M  END
$$$$

 Created by Python create_sdf_string function

 26 29  0  0  0  0  0  0  0  0999 V2000
    9.9722   -4.0884   16.3540 C   0  0  0  0  0  0  0  0  0  0  0  0
    6.1930   -7.3711   16.1318 Cl  0  0  0  0  0  0  0  0  0  0  0  0
   11.1812   -3.3965   16.6662 B   0  0  0  0  0  0  0  0  0  0  0  0
    6.5197   -7.9264   15.1623 C   0  0  0  0  0  0  0  0  0  0  0  0
   10.8934   -5.5790   18.0036 Br  0  0  0  0  0  0  0  0  0  0  0  0
    9.0630   -6.2178   18.0593 I   0  0  0  0  0  0  0  0  0  0  0  0
   10.6241   -5.1541   20.9954 F   0  0  0  0  0  0  0  0  0  0  0  0
   12.5136   -3.4540   21.8741 C   0  0  0  0  0  0  0  0  0  0  0  0
    9.9164   -5.1820   18.5465 C   0  0  0  0  0  0  0  0  0  0  0  0
    7.1991   -8.2682   17.6985 N   0  0  0  0  0  0  0  0  0  0  0  0
    7.0357   -5.7854   17.0872 S   0  0  0  0  0  0  0  0  0  0  0  0
   10.5056   -7.4043   18.5269 C   0  0  0  0  0  0  0  0  0  0  0  0
    7.9774   -8.0633   16.0987 C   0  0  0  0  0  0  0  0  0  0  0  0
   10.8023   -3.9757   20.1085 C   0  0  0  0  0  0  0  0  0  0  0  0
   11.7909   -2.5727   22.7078 C   0  0  0  0  0  0  0  0  0  0  0  0
   11.4910   -3.3394   16.7366 He  0  0  0  0  0  0  0  0  0  0  0  0
   10.7685   -4.0956   22.2279 He  0  0  0  0  0  0  0  0  0  0  0  0
    5.2959   -7.6410   16.7625 He  0  0  0  0  0  0  0  0  0  0  0  0
   11.7096   -3.7247   17.4666 He  0  0  0  0  0  0  0  0  0  0  0  0
    5.0794   -7.8668   16.7963 He  0  0  0  0  0  0  0  0  0  0  0  0
    6.3317   -7.9750   19.8235 He  0  0  0  0  0  0  0  0  0  0  0  0
    8.4506   -7.3444   16.9567 He  0  0  0  0  0  0  0  0  0  0  0  0
   10.7231   -2.7689   24.4289 He  0  0  0  0  0  0  0  0  0  0  0  0
    7.0206   -8.1140   17.8913 He  0  0  0  0  0  0  0  0  0  0  0  0
   10.0746   -4.5164   19.1628 He  0  0  0  0  0  0  0  0  0  0  0  0
    8.9110   -7.6466   17.6800 He  0  0  0  0  0  0  0  0  0  0  0  0
  1  4  4  0
  1 13  3  0
  1 14  2  0
  2  8  3  0
  2  9  3  0
  2 13  1  0
  2 14  1  0
  3  4  2  0
  3  5  3  0
  3  9  4  0
  3 11  2  0
  4  5  3  0
  4  7  2  0
  4  8  2  0
  4  9  4  0
  4 11  3  0
  5  9  2  0
  5 11  1  0
  5 15  3  0
  6  8  2  0
  6 10  2  0
  6 14  4  0
  6 15  4  0
  7 10  2  0
  7 13  3  0
  8 15  1  0
  9 10  4  0
 10 12  1  0
 11 12  4  0
M  END
$$$$

 Created by Python create_sdf_string function

 26 47  0  0  0  0  0  0  0  0999 V2000
   10.4743   -3.1196   17.2675 C   0  0  0  0  0  0  0  0  0  0  0  0
   10.5892   -3.6235   23.3986 C   0  0  0  0  0  0  0  0  0  0  0  0
    5.7733   -7.6777   16.7292 C   0  0  0  0  0  0  0  0  0  0  0  0
    9.5278   -4.7932   16.9469 C   0  0  0  0  0  0  0  0  0  0  0  0
   10.6402   -5.3058   19.3493 C   0  0  0  0  0  0  0  0  0  0  0  0
   12.0305   -5.6727   22.5515 F   0  0  0  0  0  0  0  0  0  0  0  0
   11.3907   -4.0744   21.7417 N   0  0  0  0  0  0  0  0  0  0  0  0
   11.4294   -4.5913   17.3470 P   0  0  0  0  0  0  0  0  0  0  0  0
    4.6468   -8.6357   17.5986 S   0  0  0  0  0  0  0  0  0  0  0  0
    9.2535   -5.7508   19.5591 S   0  0  0  0  0  0  0  0  0  0  0  0
    7.0208  -10.0401   17.8405 C   0  0  0  0  0  0  0  0  0  0  0  0
    6.2383   -8.3667   18.0280 O   0  0  0  0  0  0  0  0  0  0  0  0
   11.5653   -3.6634   23.4906 C   0  0  0  0  0  0  0  0  0  0  0  0
   10.5065   -4.0822   18.4791 O   0  0  0  0  0  0  0  0  0  0  0  0
   12.4545   -4.7557   21.6198 N   0  0  0  0  0  0  0  0  0  0  0  0
   11.8917   -2.7007   22.4399 O   0  0  0  0  0  0  0  0  0  0  0  0
   11.0626   -3.7074   17.1580 He  0  0  0  0  0  0  0  0  0  0  0  0
    5.6956   -8.4730   16.5577 He  0  0  0  0  0  0  0  0  0  0  0  0
    6.5062   -7.7387   16.7128 He  0  0  0  0  0  0  0  0  0  0  0  0
    8.8845   -5.3012   17.0369 He  0  0  0  0  0  0  0  0  0  0  0  0
    7.2997   -6.0267   15.9151 He  0  0  0  0  0  0  0  0  0  0  0  0
    9.2051   -6.5916   17.0432 He  0  0  0  0  0  0  0  0  0  0  0  0
    7.1688   -7.7173   15.5791 He  0  0  0  0  0  0  0  0  0  0  0  0
    7.6320   -8.1858   16.9269 He  0  0  0  0  0  0  0  0  0  0  0  0
    6.7444   -8.4541   18.2407 He  0  0  0  0  0  0  0  0  0  0  0  0
    7.6128   -9.5073   18.3482 He  0  0  0  0  0  0  0  0  0  0  0  0
  1  2  4  0
  1  6  4  0
  1  7  4  0
  1 11  1  0
  1 14  2  0
  1 16  1  0
  2  3  2  0
  2  7  1  0
  3  4  2  0
  3  6  2  0
  3  8  2  0
  3 11  1  0
  3 13  1  0
  3 15  3  0
  4  8  2  0
  4 11  1  0
  4 15  4  0
  4 16  3  0
  5  6  4  0
  5 12  4  0
  5 14  4  0
  5 15  2  0
  6  8  2  0
  6 11  4  0
  6 13  3  0
  6 14  4  0
  6 15  3  0
  7  8  4  0
  7  9  4  0
  7 11  3  0
  7 13  1  0
  7 14  3  0
  8 13  1  0
  8 15  3  0
  9 10  1  0
  9 11  1  0
  9 14  4  0
  9 15  3  0
 10 11  2  0
 10 13  2  0
 11 13  1  0
 11 16  1  0
 12 13  1  0
 12 15  4  0
 13 14  3  0
 13 15  3  0
 15 16  4  0
M  END
$$$$

 Created by Python create_sdf_string function

 26 59  0  0  0  0  0  0  0  0999 V2000
   12.5068   -4.7687   18.1279 N   0  0  0  0  0  0  0  0  0  0  0  0
    5.3357   -7.6810   15.8386 C   0  0  0  0  0  0  0  0  0  0  0  0
   11.1188   -5.6911   18.6432 P   0  0  0  0  0  0  0  0  0  0  0  0
    9.5957   -4.5737   22.8617 N   0  0  0  0  0  0  0  0  0  0  0  0
    4.9463   -7.6065   17.4224 C   0  0  0  0  0  0  0  0  0  0  0  0
    7.1435   -7.1222   17.7717 P   0  0  0  0  0  0  0  0  0  0  0  0
    9.7474   -5.6156   17.8347 O   0  0  0  0  0  0  0  0  0  0  0  0
   12.3199   -4.7210   21.9202 I   0  0  0  0  0  0  0  0  0  0  0  0
    6.5216  -10.6544   18.3034 C   0  0  0  0  0  0  0  0  0  0  0  0
    7.4463   -7.3976   16.3251 Cl  0  0  0  0  0  0  0  0  0  0  0  0
    8.0629   -7.2807   17.5496 Cl  0  0  0  0  0  0  0  0  0  0  0  0
    8.7164   -8.9160   14.0865 C   0  0  0  0  0  0  0  0  0  0  0  0
    7.4127   -7.6448   16.3037 F   0  0  0  0  0  0  0  0  0  0  0  0
   10.7034   -3.8971   23.1382 S   0  0  0  0  0  0  0  0  0  0  0  0
   10.8683   -1.7238   18.6631 Cl  0  0  0  0  0  0  0  0  0  0  0  0
   10.9806   -4.7825   22.3414 C   0  0  0  0  0  0  0  0  0  0  0  0
   10.3857   -2.2795   23.1605 N   0  0  0  0  0  0  0  0  0  0  0  0
    7.1445   -4.7326   17.5554 He  0  0  0  0  0  0  0  0  0  0  0  0
   10.1323   -4.6849   20.0563 He  0  0  0  0  0  0  0  0  0  0  0  0
   11.2935   -3.3942   22.7576 He  0  0  0  0  0  0  0  0  0  0  0  0
   10.9110   -3.7477   18.4437 He  0  0  0  0  0  0  0  0  0  0  0  0
    4.9472   -9.3403   17.8769 He  0  0  0  0  0  0  0  0  0  0  0  0
   10.2792   -4.7840   19.6915 He  0  0  0  0  0  0  0  0  0  0  0  0
    6.8445   -8.1178   17.8152 He  0  0  0  0  0  0  0  0  0  0  0  0
    6.2358   -8.9018   19.2984 He  0  0  0  0  0  0  0  0  0  0  0  0
    8.7570   -8.6958   18.1037 He  0  0  0  0  0  0  0  0  0  0  0  0
  1  2  2  0
  1  5  1  0
  1  6  3  0
  1  7  3  0
  1 10  4  0
  1 12  3  0
  1 14  3  0
  1 15  3  0
  1 16  2  0
  1 17  3  0
  2  3  1  0
  2  5  4  0
  2  8  3  0
  2  9  3  0
  2 14  2  0
  2 15  1  0
  2 16  3  0
  3  5  2  0
  3  9  1  0
  3 15  2  0
  4  8  2  0
  4 11  4  0
  4 13  1  0
  4 14  1  0
  4 17  3  0
  5 10  3  0
  5 12  4  0
  5 14  4  0
  6  8  4  0
  6  9  3  0
  6 10  1  0
  6 14  2  0
  6 17  2  0
  7 11  4  0
  7 12  2  0
  7 13  2  0
  7 14  3  0
  7 16  2  0
  8  9  2  0
  8 11  4  0
  8 14  1  0
  8 15  4  0
  9 12  4  0
  9 13  2  0
 10 11  2  0
 10 12  1  0
 10 16  3  0
 11 13  3  0
 11 14  3  0
 12 13  3  0
 12 14  1  0
 12 15  1  0
 12 17  3  0
 13 14  3  0
 13 16  4  0
 14 15  3  0
 14 16  2  0
 15 17  1  0
 16 17  1  0
M  END
$$$$

 Created by Python create_sdf_string function

 26  6  0  0  0  0  0  0  0  0999 V2000
    5.7858   -7.6626   15.0984 P   0  0  0  0  0  0  0  0  0  0  0  0
    7.0479   -7.3918   17.7323 C   0  0  0  0  0  0  0  0  0  0  0  0
    8.1933   -5.3911   15.8655 Cl  0  0  0  0  0  0  0  0  0  0  0  0
    8.0928   -7.2664   16.9264 N   0  0  0  0  0  0  0  0  0  0  0  0
   11.1744   -4.4985   21.1322 C   0  0  0  0  0  0  0  0  0  0  0  0
    6.1626   -8.9979   17.6043 C   0  0  0  0  0  0  0  0  0  0  0  0
    6.9328   -7.0622   15.8497 O   0  0  0  0  0  0  0  0  0  0  0  0
    6.8290   -7.9245   16.4730 C   0  0  0  0  0  0  0  0  0  0  0  0
    8.8680   -7.0193   18.2359 C   0  0  0  0  0  0  0  0  0  0  0  0
   11.1208   -3.6479   15.4289 He  0  0  0  0  0  0  0  0  0  0  0  0
    9.6993   -4.9709   18.1306 He  0  0  0  0  0  0  0  0  0  0  0  0
   12.0163   -3.6031   23.2011 He  0  0  0  0  0  0  0  0  0  0  0  0
   10.6602   -3.5437   20.0456 He  0  0  0  0  0  0  0  0  0  0  0  0
   10.7155   -5.0611   16.9842 He  0  0  0  0  0  0  0  0  0  0  0  0
   11.0226   -2.6983   22.6505 He  0  0  0  0  0  0  0  0  0  0  0  0
   11.8344   -4.7077   17.8393 He  0  0  0  0  0  0  0  0  0  0  0  0
    4.7852   -7.8977   18.6853 He  0  0  0  0  0  0  0  0  0  0  0  0
   10.2018   -3.9029   19.9032 He  0  0  0  0  0  0  0  0  0  0  0  0
    8.9759   -6.9722   17.4192 He  0  0  0  0  0  0  0  0  0  0  0  0
    8.2032   -8.4022   15.1756 He  0  0  0  0  0  0  0  0  0  0  0  0
    5.9018   -8.6140   16.1680 He  0  0  0  0  0  0  0  0  0  0  0  0
   10.7925   -2.8781   23.9791 He  0  0  0  0  0  0  0  0  0  0  0  0
    6.0315   -9.3086   19.2800 He  0  0  0  0  0  0  0  0  0  0  0  0
   11.8286   -2.3131   17.2319 He  0  0  0  0  0  0  0  0  0  0  0  0
   11.7038   -4.6539   22.7713 He  0  0  0  0  0  0  0  0  0  0  0  0
   10.3651   -3.8425   22.8256 He  0  0  0  0  0  0  0  0  0  0  0  0
  1  7  2  0
  1  8  3  0
  2  9  4  0
  4  6  2  0
  4  8  3  0
  6  7  3  0
M  END
$$$$

 Created by Python create_sdf_string function

 26 56  0  0  0  0  0  0  0  0999 V2000
    5.3566   -8.3230   15.5110 O   0  0  0  0  0  0  0  0  0  0  0  0
   10.0910   -5.7510   18.1658 C   0  0  0  0  0  0  0  0  0  0  0  0
   11.8364   -3.8386   25.3732 N   0  0  0  0  0  0  0  0  0  0  0  0
    9.2776   -4.4983   14.4668 Cl  0  0  0  0  0  0  0  0  0  0  0  0
   10.1519   -2.5391   20.8166 C   0  0  0  0  0  0  0  0  0  0  0  0
   10.2146   -4.8030   17.0944 F   0  0  0  0  0  0  0  0  0  0  0  0
   11.0379   -4.2085   20.7084 Cl  0  0  0  0  0  0  0  0  0  0  0  0
   11.1239   -4.0261   17.7555 F   0  0  0  0  0  0  0  0  0  0  0  0
    5.3785   -9.2451   17.3697 C   0  0  0  0  0  0  0  0  0  0  0  0
   11.4748   -5.4195   19.4815 C   0  0  0  0  0  0  0  0  0  0  0  0
    6.3487   -9.2287   16.7255 C   0  0  0  0  0  0  0  0  0  0  0  0
    6.6832   -7.7698   16.0052 N   0  0  0  0  0  0  0  0  0  0  0  0
    9.4373   -6.4370   17.0472 Cl  0  0  0  0  0  0  0  0  0  0  0  0
    6.9479   -6.8471   15.2412 O   0  0  0  0  0  0  0  0  0  0  0  0
    6.2179   -9.0693   16.4842 C   0  0  0  0  0  0  0  0  0  0  0  0
    6.8518   -8.7596   19.5551 Se  0  0  0  0  0  0  0  0  0  0  0  0
   11.8841   -5.3882   23.5591 C   0  0  0  0  0  0  0  0  0  0  0  0
    9.9754   -7.2958   17.8477 C   0  0  0  0  0  0  0  0  0  0  0  0
   10.8631   -3.3584   16.9994 He  0  0  0  0  0  0  0  0  0  0  0  0
    7.4432   -8.3020   16.9836 He  0  0  0  0  0  0  0  0  0  0  0  0
    8.1471   -7.9144   16.4702 He  0  0  0  0  0  0  0  0  0  0  0  0
   10.9402   -4.9320   23.2675 He  0  0  0  0  0  0  0  0  0  0  0  0
    7.5754   -6.7772   15.7060 He  0  0  0  0  0  0  0  0  0  0  0  0
   11.2871   -3.1419   23.7576 He  0  0  0  0  0  0  0  0  0  0  0  0
   11.5362   -3.2819   18.8698 He  0  0  0  0  0  0  0  0  0  0  0  0
    9.1717   -2.3290   22.2576 He  0  0  0  0  0  0  0  0  0  0  0  0
  1  5  3  0
  1  9  3  0
  1 11  1  0
  1 12  1  0
  1 18  3  0
  2  4  2  0
  2 10  1  0
  2 17  2  0
  2 18  4  0
  3  4  4  0
  3  6  2  0
  3  7  1  0
  3  9  4  0
  3 14  2  0
  4  6  4  0
  4 10  3  0
  4 13  3  0
  4 14  2  0
  4 15  3  0
  5  6  2  0
  5  7  3  0
  5 10  2  0
  5 16  2  0
  6  9  1  0
  6 12  3  0
  6 13  1  0
  6 14  1  0
  7  9  2  0
  7 11  3  0
  7 13  2  0
  7 14  2  0
  7 15  3  0
  7 16  2  0
  7 17  4  0
  7 18  1  0
  8  9  3  0
  8 10  4  0
  8 13  1  0
  8 14  2  0
  8 15  3  0
  8 18  2  0
  9 11  1  0
  9 13  4  0
  9 15  3  0
  9 17  2  0
  9 18  4  0
 10 13  1  0
 10 14  2  0
 11 12  1  0
 11 14  2  0
 11 16  2  0
 13 17  3  0
 13 18  4  0
 14 16  4  0
 15 16  4  0
 15 18  1  0
M  END
$$$$

 Created by Python create_sdf_string function

 26 22  0  0  0  0  0  0  0  0999 V2000
   11.3687   -3.7358   18.5270 C   0  0  0  0  0  0  0  0  0  0  0  0
    4.6899   -7.9512   14.6894 C   0  0  0  0  0  0  0  0  0  0  0  0
   12.2432   -4.6853   24.8548 O   0  0  0  0  0  0  0  0  0  0  0  0
   11.7873   -3.8670   22.4739 C   0  0  0  0  0  0  0  0  0  0  0  0
    9.6215   -3.7415   20.8109 P   0  0  0  0  0  0  0  0  0  0  0  0
   11.5219   -3.5077   19.1192 C   0  0  0  0  0  0  0  0  0  0  0  0
   11.7768   -4.5336   20.3067 F   0  0  0  0  0  0  0  0  0  0  0  0
    9.1624   -6.2433   16.4282 C   0  0  0  0  0  0  0  0  0  0  0  0
    6.7791   -9.1808   19.5376 O   0  0  0  0  0  0  0  0  0  0  0  0
   11.8301   -3.3907   18.0447 C   0  0  0  0  0  0  0  0  0  0  0  0
   11.5517   -5.9216   23.3930 C   0  0  0  0  0  0  0  0  0  0  0  0
    9.7099   -8.2168   17.9670 C   0  0  0  0  0  0  0  0  0  0  0  0
   12.0307   -6.0234   17.7959 He  0  0  0  0  0  0  0  0  0  0  0  0
    6.0567   -9.5196   16.2307 He  0  0  0  0  0  0  0  0  0  0  0  0
    9.0267   -4.5427   17.2075 He  0  0  0  0  0  0  0  0  0  0  0  0
    6.6625   -6.6040   17.0737 He  0  0  0  0  0  0  0  0  0  0  0  0
    8.7396   -4.1778   15.9062 He  0  0  0  0  0  0  0  0  0  0  0  0
    9.9943   -5.6719   24.2283 He  0  0  0  0  0  0  0  0  0  0  0  0
    4.4001   -8.5436   16.5846 He  0  0  0  0  0  0  0  0  0  0  0  0
    6.2900   -8.7826   16.5108 He  0  0  0  0  0  0  0  0  0  0  0  0
    5.9760   -7.2708   15.6443 He  0  0  0  0  0  0  0  0  0  0  0  0
    7.4633   -6.3969   16.3656 He  0  0  0  0  0  0  0  0  0  0  0  0
    7.2375   -5.4737   15.6884 He  0  0  0  0  0  0  0  0  0  0  0  0
    5.4588   -9.1672   16.6452 He  0  0  0  0  0  0  0  0  0  0  0  0
   10.0834   -3.9896   22.2727 He  0  0  0  0  0  0  0  0  0  0  0  0
   10.0301   -3.8570   21.7943 He  0  0  0  0  0  0  0  0  0  0  0  0
  1  2  2  0
  1  3  2  0
  1  5  1  0
  1  6  4  0
  2  9  3  0
  2 11  1  0
  3  8  2  0
  4  5  4  0
  4  6  1  0
  4  8  3  0
  5  8  2  0
  5 10  1  0
  6  9  4  0
  6 10  3  0
  7 10  3  0
  8  9  2  0
  8 10  3  0
  8 12  4  0
  9 10  1  0
  9 11  4  0
  9 12  4  0
 10 12  1  0
M  END
$$$$

 Created by Python create_sdf_string function

 26 34  0  0  0  0  0  0  0  0999 V2000
   11.1337   -4.2701   19.2082 C   0  0  0  0  0  0  0  0  0  0  0  0
    5.2336   -8.5184   14.3891 C   0  0  0  0  0  0  0  0  0  0  0  0
   12.5709   -3.7629   24.2615 O   0  0  0  0  0  0  0  0  0  0  0  0
    7.5002   -6.9536   16.0471 C   0  0  0  0  0  0  0  0  0  0  0  0
    7.9508   -4.1428   16.6066 N   0  0  0  0  0  0  0  0  0  0  0  0
   10.5716   -4.4959   20.4311 C   0  0  0  0  0  0  0  0  0  0  0  0
    3.4299   -8.1391   16.2769 C   0  0  0  0  0  0  0  0  0  0  0  0
    4.7488   -7.7038   15.2597 O   0  0  0  0  0  0  0  0  0  0  0  0
    7.5811   -6.5760   17.1119 N   0  0  0  0  0  0  0  0  0  0  0  0
    6.9010   -6.1249   15.4731 N   0  0  0  0  0  0  0  0  0  0  0  0
    5.2842   -9.4827   17.3777 C   0  0  0  0  0  0  0  0  0  0  0  0
   10.1016   -4.5483   23.2107 C   0  0  0  0  0  0  0  0  0  0  0  0
    6.6102   -7.4334   19.4662 F   0  0  0  0  0  0  0  0  0  0  0  0
   10.5074   -4.0905   17.4977 C   0  0  0  0  0  0  0  0  0  0  0  0
   12.8909   -6.2469   21.9779 C   0  0  0  0  0  0  0  0  0  0  0  0
    7.4925   -8.2735   18.9836 O   0  0  0  0  0  0  0  0  0  0  0  0
   11.4600   -7.1997   18.3000 He  0  0  0  0  0  0  0  0  0  0  0  0
    5.0072   -9.4459   17.1188 He  0  0  0  0  0  0  0  0  0  0  0  0
    9.2271   -4.8400   16.4331 He  0  0  0  0  0  0  0  0  0  0  0  0
   10.8343   -3.3631   20.9111 He  0  0  0  0  0  0  0  0  0  0  0  0
   11.4769   -5.1243   23.7367 He  0  0  0  0  0  0  0  0  0  0  0  0
   11.1036   -3.9976   19.3115 He  0  0  0  0  0  0  0  0  0  0  0  0
   12.0474   -5.2389   21.2007 He  0  0  0  0  0  0  0  0  0  0  0  0
    6.2742   -8.9235   16.4381 He  0  0  0  0  0  0  0  0  0  0  0  0
    8.4741   -6.0666   16.9473 He  0  0  0  0  0  0  0  0  0  0  0  0
   10.2979   -5.1740   21.7631 He  0  0  0  0  0  0  0  0  0  0  0  0
  1  3  1  0
  2  3  1  0
  2  5  4  0
  2  6  2  0
  3  4  1  0
  3  8  1  0
  3 10  1  0
  3 11  4  0
  3 13  2  0
  4  5  2  0
  4  6  2  0
  4 13  1  0
  5  6  1  0
  5  7  2  0
  5  9  1  0
  5 14  1  0
  5 16  3  0
  6  8  4  0
  6 11  2  0
  6 15  1  0
  6 16  1  0
  7 16  1  0
  8 12  2  0
  8 13  4  0
  8 14  2  0
  9 15  2  0
 10 12  1  0
 10 14  3  0
 10 15  2  0
 11 13  3  0
 11 15  4  0
 12 13  3  0
 12 14  4  0
 12 15  2  0
M  END
$$$$

 Created by Python create_sdf_string function

 26 46  0  0  0  0  0  0  0  0999 V2000
   11.4541   -4.2172   19.2270 F   0  0  0  0  0  0  0  0  0  0  0  0
    5.0599   -7.8857   14.9768 F   0  0  0  0  0  0  0  0  0  0  0  0
   10.3244   -6.7200   17.9648 S   0  0  0  0  0  0  0  0  0  0  0  0
   11.9868   -4.9618   24.4050 O   0  0  0  0  0  0  0  0  0  0  0  0
    6.0250   -8.5969   18.3096 S   0  0  0  0  0  0  0  0  0  0  0  0
    9.2750   -3.9204   16.2514 C   0  0  0  0  0  0  0  0  0  0  0  0
    8.0498   -7.2055   16.9821 O   0  0  0  0  0  0  0  0  0  0  0  0
   11.1158   -3.5868   21.1747 O   0  0  0  0  0  0  0  0  0  0  0  0
    9.7341   -4.2111   14.7473 N   0  0  0  0  0  0  0  0  0  0  0  0
   10.8113   -4.1316   20.3429 P   0  0  0  0  0  0  0  0  0  0  0  0
    3.6515   -8.5431   15.9061 C   0  0  0  0  0  0  0  0  0  0  0  0
   11.6208   -5.0819   21.8870 N   0  0  0  0  0  0  0  0  0  0  0  0
    8.1131   -7.4994   16.7050 N   0  0  0  0  0  0  0  0  0  0  0  0
    8.2380   -6.2833   16.8132 C   0  0  0  0  0  0  0  0  0  0  0  0
    7.5936   -6.9579   16.3789 B   0  0  0  0  0  0  0  0  0  0  0  0
    5.3898   -9.5978   16.6384 P   0  0  0  0  0  0  0  0  0  0  0  0
    9.6020   -4.0279   17.7309 C   0  0  0  0  0  0  0  0  0  0  0  0
   13.2281   -4.4793   21.5294 O   0  0  0  0  0  0  0  0  0  0  0  0
   10.9802   -3.2210   21.9016 C   0  0  0  0  0  0  0  0  0  0  0  0
    6.2376   -8.3269   16.9126 F   0  0  0  0  0  0  0  0  0  0  0  0
   12.5196   -4.1574   23.4126 He  0  0  0  0  0  0  0  0  0  0  0  0
   10.4350   -3.2759   18.7835 He  0  0  0  0  0  0  0  0  0  0  0  0
    8.5129  -10.1152   16.2746 He  0  0  0  0  0  0  0  0  0  0  0  0
    4.7658   -8.8364   15.5180 He  0  0  0  0  0  0  0  0  0  0  0  0
   10.9705   -4.1864   21.9813 He  0  0  0  0  0  0  0  0  0  0  0  0
    6.8808   -9.0628   17.5604 He  0  0  0  0  0  0  0  0  0  0  0  0
  1  5  3  0
  1  7  4  0
  2  3  4  0
  2  5  1  0
  2  6  3  0
  2 13  2  0
  2 15  1  0
  3  8  2  0
  3 12  4  0
  3 13  3  0
  3 14  3  0
  3 16  4  0
  3 20  1  0
  4  7  3  0
  4 13  4  0
  4 14  1  0
  5  6  4  0
  5  8  4  0
  5 11  2  0
  5 16  1  0
  5 19  2  0
  6  8  3  0
  6 11  1  0
  6 14  3  0
  7 13  3  0
  7 15  3  0
  7 20  2  0
  8 10  4  0
  8 15  4  0
  8 17  4  0
  8 19  4  0
  9 16  2  0
  9 18  3  0
  9 19  3  0
 10 13  1  0
 10 18  4  0
 11 12  4  0
 11 15  3  0
 11 17  4  0
 11 20  3  0
 12 16  2  0
 12 18  2  0
 13 15  2  0
 14 15  2  0
 14 16  2  0
 15 17  3  0
M  END
$$$$

 Created by Python create_sdf_string function

 26 69  0  0  0  0  0  0  0  0999 V2000
   10.2831   -5.1638   18.7541 F   0  0  0  0  0  0  0  0  0  0  0  0
    5.6262   -7.4022   16.8692 C   0  0  0  0  0  0  0  0  0  0  0  0
    9.5742   -6.3199   17.6564 C   0  0  0  0  0  0  0  0  0  0  0  0
    8.1234   -6.6627   16.5357 C   0  0  0  0  0  0  0  0  0  0  0  0
   10.6330   -4.6810   21.1120 B   0  0  0  0  0  0  0  0  0  0  0  0
    8.3521   -4.9209   16.4056 F   0  0  0  0  0  0  0  0  0  0  0  0
   10.3937   -4.6273   21.1773 C   0  0  0  0  0  0  0  0  0  0  0  0
   10.6708   -3.6019   24.8899 F   0  0  0  0  0  0  0  0  0  0  0  0
    9.8837   -5.0392   17.3531 C   0  0  0  0  0  0  0  0  0  0  0  0
    3.5046   -8.6487   15.9767 C   0  0  0  0  0  0  0  0  0  0  0  0
   12.3875   -3.7254   20.9880 C   0  0  0  0  0  0  0  0  0  0  0  0
    8.7837   -9.0724   16.0093 Cl  0  0  0  0  0  0  0  0  0  0  0  0
    4.9899   -7.9727   16.2270 O   0  0  0  0  0  0  0  0  0  0  0  0
    7.4331   -7.1080   15.8919 B   0  0  0  0  0  0  0  0  0  0  0  0
    9.8217   -6.4777   17.8598 F   0  0  0  0  0  0  0  0  0  0  0  0
    7.5427   -6.7516   14.5642 N   0  0  0  0  0  0  0  0  0  0  0  0
    4.3762  -10.1472   16.3063 O   0  0  0  0  0  0  0  0  0  0  0  0
   11.1439   -2.8503   23.2058 C   0  0  0  0  0  0  0  0  0  0  0  0
    6.3686   -7.3085   16.6876 F   0  0  0  0  0  0  0  0  0  0  0  0
    9.5450   -4.3374   17.9359 C   0  0  0  0  0  0  0  0  0  0  0  0
   12.4834   -6.3500   20.7096 C   0  0  0  0  0  0  0  0  0  0  0  0
   10.7792   -2.7196   21.7554 C   0  0  0  0  0  0  0  0  0  0  0  0
   11.6682   -6.3934   25.0581 He  0  0  0  0  0  0  0  0  0  0  0  0
    4.9742   -7.8817   16.8034 He  0  0  0  0  0  0  0  0  0  0  0  0
    9.9784   -3.8551   14.9212 He  0  0  0  0  0  0  0  0  0  0  0  0
    6.3623   -7.7662   17.9677 He  0  0  0  0  0  0  0  0  0  0  0  0
  1  5  1  0
  1  7  3  0
  1  8  4  0
  1  9  1  0
  1 10  3  0
  1 11  2  0
  1 13  1  0
  1 16  1  0
  1 19  4  0
  1 21  3  0
  1 22  3  0
  2  3  3  0
  2  4  4  0
  2 10  2  0
  2 15  3  0
  2 17  4  0
  2 19  2  0
  2 21  3  0
  3  4  3  0
  3 17  4  0
  3 19  2  0
  3 21  3  0
  4  9  2  0
  4 10  2  0
  4 14  1  0
  4 16  1  0
  4 19  3  0
  4 20  1  0
  4 22  2  0
  5 12  1  0
  5 16  3  0
  5 18  4  0
  6 10  3  0
  6 13  1  0
  6 16  2  0
  7  8  2  0
  7 11  2  0
  7 16  3  0
  7 17  1  0
  7 20  1  0
  7 21  2  0
  8  9  4  0
  8 10  2  0
  9 11  4  0
  9 14  4  0
  9 18  3  0
  9 19  3  0
  9 20  4  0
 10 11  3  0
 10 13  4  0
 10 14  2  0
 11 15  4  0
 11 17  3  0
 11 20  1  0
 12 13  2  0
 12 16  1  0
 12 19  1  0
 13 15  4  0
 13 18  1  0
 14 16  1  0
 14 17  2  0
 15 16  2  0
 15 21  4  0
 15 22  3  0
 16 20  4  0
 17 22  4  0
 18 22  4  0
 19 21  2  0
 21 22  3  0
M  END
$$$$

 Created by Python create_sdf_string function

 26 41  0  0  0  0  0  0  0  0999 V2000
   11.6174   -3.6369   19.4884 C   0  0  0  0  0  0  0  0  0  0  0  0
   11.0712   -5.9916   25.0454 O   0  0  0  0  0  0  0  0  0  0  0  0
    9.6938   -4.2118   15.3621 Br  0  0  0  0  0  0  0  0  0  0  0  0
    8.4886   -6.4101   16.7538 C   0  0  0  0  0  0  0  0  0  0  0  0
    9.0729   -6.3802   15.4750 O   0  0  0  0  0  0  0  0  0  0  0  0
   10.0776   -3.6757   25.3113 C   0  0  0  0  0  0  0  0  0  0  0  0
   10.8057   -3.9407   18.4420 C   0  0  0  0  0  0  0  0  0  0  0  0
    1.6416   -8.9936   16.4995 C   0  0  0  0  0  0  0  0  0  0  0  0
   12.7090   -4.5110   21.6656 I   0  0  0  0  0  0  0  0  0  0  0  0
    8.0806   -7.7093   16.5882 C   0  0  0  0  0  0  0  0  0  0  0  0
    4.0209   -7.6636   16.0878 C   0  0  0  0  0  0  0  0  0  0  0  0
   11.7043   -3.0196   24.4582 N   0  0  0  0  0  0  0  0  0  0  0  0
    5.6721   -8.2744   15.0714 C   0  0  0  0  0  0  0  0  0  0  0  0
    9.5445   -2.8127   17.6983 C   0  0  0  0  0  0  0  0  0  0  0  0
   12.1419   -4.9181   19.9895 C   0  0  0  0  0  0  0  0  0  0  0  0
   11.0520   -3.4706   22.6196 N   0  0  0  0  0  0  0  0  0  0  0  0
    7.3959   -8.0294   17.1728 Se  0  0  0  0  0  0  0  0  0  0  0  0
    5.5903   -8.0380   16.0985 He  0  0  0  0  0  0  0  0  0  0  0  0
    8.5129   -6.0834   18.0097 He  0  0  0  0  0  0  0  0  0  0  0  0
    5.6501   -7.9579   17.1612 He  0  0  0  0  0  0  0  0  0  0  0  0
   11.3669   -4.2186   20.2479 He  0  0  0  0  0  0  0  0  0  0  0  0
   11.2917   -3.5955   21.0478 He  0  0  0  0  0  0  0  0  0  0  0  0
    6.0826   -6.5960   15.8545 He  0  0  0  0  0  0  0  0  0  0  0  0
   10.3668   -6.8473   18.3235 He  0  0  0  0  0  0  0  0  0  0  0  0
    8.2913   -5.2867   16.3702 He  0  0  0  0  0  0  0  0  0  0  0  0
    4.5356  -10.6467   16.4528 He  0  0  0  0  0  0  0  0  0  0  0  0
  1  4  1  0
  1  5  1  0
  1  7  1  0
  1 13  4  0
  1 17  4  0
  2  3  4  0
  2  5  4  0
  2  7  1  0
  2 12  2  0
  2 14  3  0
  2 15  4  0
  2 16  3  0
  3  7  3  0
  3 11  1  0
  3 16  1  0
  4  5  3  0
  4 10  1  0
  4 11  4  0
  4 13  3  0
  4 14  2  0
  4 16  4  0
  5  8  4  0
  5 10  2  0
  5 12  4  0
  5 15  3  0
  6 15  4  0
  6 17  1  0
  7 12  2  0
  7 14  4  0
  8 10  1  0
  8 11  4  0
  9 10  3  0
  9 12  2  0
  9 13  2  0
  9 15  4  0
 11 13  1  0
 11 16  1  0
 12 15  2  0
 13 15  1  0
 14 16  1  0
 15 17  2  0
M  END
$$$$

 Created by Python create_sdf_string function

 26 25  0  0  0  0  0  0  0  0999 V2000
   10.5635   -5.1490   20.0435 F   0  0  0  0  0  0  0  0  0  0  0  0
    5.0440   -7.5321   16.8241 C   0  0  0  0  0  0  0  0  0  0  0  0
    8.8212   -5.0373   19.1685 C   0  0  0  0  0  0  0  0  0  0  0  0
   11.8125   -5.0709   23.5375 P   0  0  0  0  0  0  0  0  0  0  0  0
   10.8136   -3.3669   17.2353 C   0  0  0  0  0  0  0  0  0  0  0  0
    7.6138   -5.9308   15.1970 O   0  0  0  0  0  0  0  0  0  0  0  0
   10.4662   -2.4862   21.7609 C   0  0  0  0  0  0  0  0  0  0  0  0
    3.0299   -8.5385   16.1855 C   0  0  0  0  0  0  0  0  0  0  0  0
    7.2005   -8.6336   15.8999 C   0  0  0  0  0  0  0  0  0  0  0  0
    3.8848   -8.7994   15.6166 P   0  0  0  0  0  0  0  0  0  0  0  0
   11.1501   -6.3549   19.7549 C   0  0  0  0  0  0  0  0  0  0  0  0
    5.0318   -8.3846   17.3308 C   0  0  0  0  0  0  0  0  0  0  0  0
   10.4627   -4.3497   15.8338 Cl  0  0  0  0  0  0  0  0  0  0  0  0
   10.9221   -5.5851   20.0574 F   0  0  0  0  0  0  0  0  0  0  0  0
   11.2228   -3.3595   23.2093 F   0  0  0  0  0  0  0  0  0  0  0  0
    5.8789   -6.9232   15.8038 He  0  0  0  0  0  0  0  0  0  0  0  0
    8.2990   -5.4664   17.1446 He  0  0  0  0  0  0  0  0  0  0  0  0
   11.3868   -4.8470   20.6938 He  0  0  0  0  0  0  0  0  0  0  0  0
   10.3353   -3.4596   25.7372 He  0  0  0  0  0  0  0  0  0  0  0  0
   10.9788   -3.9910   18.3301 He  0  0  0  0  0  0  0  0  0  0  0  0
   11.8170   -4.6014   20.3109 He  0  0  0  0  0  0  0  0  0  0  0  0
    6.4297   -6.9062   15.6176 He  0  0  0  0  0  0  0  0  0  0  0  0
    9.0048   -4.2014   15.3155 He  0  0  0  0  0  0  0  0  0  0  0  0
   11.2349   -5.0010   23.8601 He  0  0  0  0  0  0  0  0  0  0  0  0
    5.5238   -7.4103   15.2788 He  0  0  0  0  0  0  0  0  0  0  0  0
    6.4965   -7.2836   15.5471 He  0  0  0  0  0  0  0  0  0  0  0  0
  1  4  1  0
  1  5  2  0
  1  7  1  0
  1  8  3  0
  1  9  3  0
  1 11  3  0
  1 13  1  0
  1 14  2  0
  3  7  1  0
  3 12  1  0
  3 14  3  0
  4 12  1  0
  5 11  1  0
  5 12  3  0
  5 13  2  0
  5 15  4  0
  6  9  4  0
  6 11  4  0
  8  9  2  0
 10 11  1  0
 10 13  2  0
 11 13  3  0
 11 14  3  0
 12 13  1  0
 14 15  3  0
M  END
$$$$

 Created by Python create_sdf_string function

 26 43  0  0  0  0  0  0  0  0999 V2000
   11.1360   -4.1169   20.2140 C   0  0  0  0  0  0  0  0  0  0  0  0
    5.7647   -9.0857   15.5882 C   0  0  0  0  0  0  0  0  0  0  0  0
   11.5890   -5.1447   23.7633 Cl  0  0  0  0  0  0  0  0  0  0  0  0
    5.8476   -7.9776   16.8348 Br  0  0  0  0  0  0  0  0  0  0  0  0
   10.6158   -4.7486   18.1125 P   0  0  0  0  0  0  0  0  0  0  0  0
    8.7920   -6.9780   16.6591 P   0  0  0  0  0  0  0  0  0  0  0  0
    9.4126   -4.2345   21.8839 S   0  0  0  0  0  0  0  0  0  0  0  0
    9.6040   -3.2302   22.1544 Se  0  0  0  0  0  0  0  0  0  0  0  0
   11.8294   -3.5024   25.7555 N   0  0  0  0  0  0  0  0  0  0  0  0
   10.7646   -4.5056   20.3462 F   0  0  0  0  0  0  0  0  0  0  0  0
    6.8175   -8.0905   15.6330 C   0  0  0  0  0  0  0  0  0  0  0  0
    3.2517   -9.0657   15.1572 F   0  0  0  0  0  0  0  0  0  0  0  0
    7.5200   -7.6419   15.1287 C   0  0  0  0  0  0  0  0  0  0  0  0
    9.5411   -4.9064   16.6029 Br  0  0  0  0  0  0  0  0  0  0  0  0
    4.4822   -8.1591   18.0596 Se  0  0  0  0  0  0  0  0  0  0  0  0
   11.4176   -3.3410   23.9483 C   0  0  0  0  0  0  0  0  0  0  0  0
    9.4897   -4.1557   16.7457 C   0  0  0  0  0  0  0  0  0  0  0  0
   10.7373   -4.2538   17.3920 He  0  0  0  0  0  0  0  0  0  0  0  0
    7.6439   -5.9720   14.8956 He  0  0  0  0  0  0  0  0  0  0  0  0
   11.4484   -5.3013   18.4944 He  0  0  0  0  0  0  0  0  0  0  0  0
    4.6747   -8.8935   18.4344 He  0  0  0  0  0  0  0  0  0  0  0  0
   10.2124   -6.0681   20.0255 He  0  0  0  0  0  0  0  0  0  0  0  0
    3.3566   -8.8382   15.7530 He  0  0  0  0  0  0  0  0  0  0  0  0
   10.7053   -3.0906   19.4256 He  0  0  0  0  0  0  0  0  0  0  0  0
   11.0185   -2.6862   22.7082 He  0  0  0  0  0  0  0  0  0  0  0  0
    7.4313   -7.7182   15.8141 He  0  0  0  0  0  0  0  0  0  0  0  0
  1  5  3  0
  1 11  1  0
  1 17  1  0
  2  4  4  0
  2  5  1  0
  2  6  2  0
  2  7  1  0
  2  8  2  0
  2 15  1  0
  3  5  1  0
  3  8  4  0
  3 13  2  0
  3 14  2  0
  3 16  4  0
  3 17  3  0
  4 10  1  0
  4 11  3  0
  4 13  2  0
  4 15  1  0
  4 17  3  0
  5  6  4  0
  5  8  1  0
  6  7  2  0
  6  8  4  0
  6 11  4  0
  6 14  1  0
  7  9  3  0
  7 16  2  0
  7 17  3  0
  8  9  4  0
  8 11  2  0
  8 17  3  0
  9 12  2  0
  9 15  4  0
  9 16  3  0
 10 11  3  0
 10 12  3  0
 10 17  3  0
 11 16  3  0
 12 16  1  0
 13 14  2  0
 14 16  4  0
 16 17  4  0
M  END
$$$$

 Created by Python create_sdf_string function

 26 37  0  0  0  0  0  0  0  0999 V2000
   10.7194   -4.9469   20.4783 C   0  0  0  0  0  0  0  0  0  0  0  0
   11.0474   -4.5891   23.4248 C   0  0  0  0  0  0  0  0  0  0  0  0
    5.8225   -8.7018   16.0014 O   0  0  0  0  0  0  0  0  0  0  0  0
    8.5033   -7.7688   17.6290 Cl  0  0  0  0  0  0  0  0  0  0  0  0
   10.1930   -3.7646   21.6010 N   0  0  0  0  0  0  0  0  0  0  0  0
   10.4975   -3.0295   22.5409 N   0  0  0  0  0  0  0  0  0  0  0  0
   10.3695   -3.2376   25.3420 N   0  0  0  0  0  0  0  0  0  0  0  0
   10.6056   -4.8261   19.8894 C   0  0  0  0  0  0  0  0  0  0  0  0
    5.1264   -9.7984   17.9432 C   0  0  0  0  0  0  0  0  0  0  0  0
   12.1932   -5.0204   19.3728 C   0  0  0  0  0  0  0  0  0  0  0  0
    8.3330   -8.2847   16.4733 P   0  0  0  0  0  0  0  0  0  0  0  0
    2.9712   -9.4778   16.5219 F   0  0  0  0  0  0  0  0  0  0  0  0
    8.8042   -8.5569   15.8594 C   0  0  0  0  0  0  0  0  0  0  0  0
   11.0135   -5.5358   19.6360 Cl  0  0  0  0  0  0  0  0  0  0  0  0
    3.4367   -9.5584   16.9498 C   0  0  0  0  0  0  0  0  0  0  0  0
    9.2438   -4.7970   16.8521 P   0  0  0  0  0  0  0  0  0  0  0  0
   10.8595   -3.9183   22.8880 Br  0  0  0  0  0  0  0  0  0  0  0  0
    5.2320   -7.9676   15.4713 He  0  0  0  0  0  0  0  0  0  0  0  0
   11.4370   -4.4945   17.3344 He  0  0  0  0  0  0  0  0  0  0  0  0
   10.1214   -3.9767   17.4034 He  0  0  0  0  0  0  0  0  0  0  0  0
    7.7063   -6.1528   16.2662 He  0  0  0  0  0  0  0  0  0  0  0  0
    7.9038   -6.3616   15.3796 He  0  0  0  0  0  0  0  0  0  0  0  0
    4.7608   -7.8469   17.1757 He  0  0  0  0  0  0  0  0  0  0  0  0
   11.7058   -3.6828   23.4824 He  0  0  0  0  0  0  0  0  0  0  0  0
   11.8067   -2.0396   18.6093 He  0  0  0  0  0  0  0  0  0  0  0  0
    8.0670   -7.5433   15.1055 He  0  0  0  0  0  0  0  0  0  0  0  0
  1  3  3  0
  1  4  1  0
  1  5  4  0
  1 11  4  0
  2  3  3  0
  2  4  4  0
  2  8  2  0
  2 15  4  0
  2 16  3  0
  3  8  4  0
  3 10  3  0
  3 12  2  0
  3 13  1  0
  3 15  2  0
  3 16  1  0
  4  5  1  0
  4  7  4  0
  5  8  2  0
  5  9  2  0
  5 10  2  0
  5 11  1  0
  6 11  2  0
  6 14  1  0
  7 13  3  0
  8 10  4  0
  8 17  3  0
  9 10  3  0
  9 12  1  0
  9 15  1  0
  9 16  4  0
 10 12  4  0
 10 13  2  0
 10 14  2  0
 11 13  1  0
 11 17  3  0
 12 13  1  0
 13 14  1  0
M  END
$$$$

 Created by Python create_sdf_string function

 26 44  0  0  0  0  0  0  0  0999 V2000
    5.6196   -8.5577   15.4818 C   0  0  0  0  0  0  0  0  0  0  0  0
   10.6953   -5.1883   23.7878 O   0  0  0  0  0  0  0  0  0  0  0  0
    5.0724   -8.2337   15.9550 N   0  0  0  0  0  0  0  0  0  0  0  0
   10.4506   -3.3080   21.6658 C   0  0  0  0  0  0  0  0  0  0  0  0
    8.2635   -7.0675   15.9840 C   0  0  0  0  0  0  0  0  0  0  0  0
   11.1100   -2.8723   23.0846 F   0  0  0  0  0  0  0  0  0  0  0  0
    9.8137   -2.9823   25.6542 C   0  0  0  0  0  0  0  0  0  0  0  0
   10.9686   -4.6037   19.7901 C   0  0  0  0  0  0  0  0  0  0  0  0
    5.4106   -8.7427   17.5659 C   0  0  0  0  0  0  0  0  0  0  0  0
   11.1166   -4.7728   20.2519 C   0  0  0  0  0  0  0  0  0  0  0  0
    9.8524   -8.1961   17.2878 C   0  0  0  0  0  0  0  0  0  0  0  0
    3.5404   -8.2079   17.6313 N   0  0  0  0  0  0  0  0  0  0  0  0
    9.4515   -4.1359   17.4598 C   0  0  0  0  0  0  0  0  0  0  0  0
    4.7850   -8.5353   17.2833 S   0  0  0  0  0  0  0  0  0  0  0  0
   10.3874   -4.7680   24.1694 C   0  0  0  0  0  0  0  0  0  0  0  0
    9.2733   -5.1503   16.5199 C   0  0  0  0  0  0  0  0  0  0  0  0
   11.5248   -4.7107   17.7031 N   0  0  0  0  0  0  0  0  0  0  0  0
   11.7120   -4.0245   22.6312 F   0  0  0  0  0  0  0  0  0  0  0  0
   10.2051   -4.8814   19.7620 He  0  0  0  0  0  0  0  0  0  0  0  0
   10.6581   -4.7795   17.3351 He  0  0  0  0  0  0  0  0  0  0  0  0
    9.1479   -4.3598   15.9257 He  0  0  0  0  0  0  0  0  0  0  0  0
    8.2534   -6.8315   18.1876 He  0  0  0  0  0  0  0  0  0  0  0  0
    7.4919   -6.9045   16.8842 He  0  0  0  0  0  0  0  0  0  0  0  0
    8.2745   -7.0908   16.8356 He  0  0  0  0  0  0  0  0  0  0  0  0
    2.7711   -8.1842   16.4119 He  0  0  0  0  0  0  0  0  0  0  0  0
    7.5694   -8.9366   15.2511 He  0  0  0  0  0  0  0  0  0  0  0  0
  1  6  2  0
  1  7  1  0
  1  9  1  0
  1 12  3  0
  1 14  4  0
  1 15  4  0
  1 18  2  0
  2  7  1  0
  2  9  2  0
  2 13  3  0
  2 15  2  0
  2 16  2  0
  2 18  3  0
  3  4  1  0
  3  5  1  0
  3  7  3  0
  3  8  3  0
  3  9  2  0
  3 12  1  0
  3 13  2  0
  3 14  2  0
  4  9  1  0
  4 11  3  0
  4 18  2  0
  5 11  3  0
  5 12  2  0
  5 16  2  0
  6  7  3  0
  6 10  4  0
  6 16  3  0
  6 18  4  0
  7 13  3  0
  7 16  3  0
  8 10  4  0
  8 16  1  0
  9 10  1  0
  9 11  2  0
 10 12  1  0
 10 13  2  0
 10 17  4  0
 11 14  2  0
 12 14  1  0
 13 15  1  0
 15 17  1  0
M  END
$$$$

 Created by Python create_sdf_string function

 26 25  0  0  0  0  0  0  0  0999 V2000
   10.6667   -3.7504   20.3363 N   0  0  0  0  0  0  0  0  0  0  0  0
    6.2531   -9.4113   15.3360 C   0  0  0  0  0  0  0  0  0  0  0  0
    9.7903   -4.3369   24.7715 O   0  0  0  0  0  0  0  0  0  0  0  0
    4.7742   -7.8815   16.3663 N   0  0  0  0  0  0  0  0  0  0  0  0
    8.8487   -8.0955   17.8639 S   0  0  0  0  0  0  0  0  0  0  0  0
   11.1454   -3.9548   20.3065 C   0  0  0  0  0  0  0  0  0  0  0  0
    5.1989   -9.2348   18.2049 C   0  0  0  0  0  0  0  0  0  0  0  0
    8.6795   -6.7313   16.4260 Cl  0  0  0  0  0  0  0  0  0  0  0  0
    7.8142   -8.0852   16.5067 Cl  0  0  0  0  0  0  0  0  0  0  0  0
   10.3854   -3.6750   17.2464 C   0  0  0  0  0  0  0  0  0  0  0  0
    4.2937   -9.2505   17.3234 N   0  0  0  0  0  0  0  0  0  0  0  0
   11.4628   -4.7341   24.7958 C   0  0  0  0  0  0  0  0  0  0  0  0
    3.4179   -7.8183   16.6746 I   0  0  0  0  0  0  0  0  0  0  0  0
   11.9076   -4.0570   17.6547 I   0  0  0  0  0  0  0  0  0  0  0  0
    6.7655   -7.8246   14.5768 C   0  0  0  0  0  0  0  0  0  0  0  0
   10.4580   -4.5466   17.6494 He  0  0  0  0  0  0  0  0  0  0  0  0
    9.9652   -4.7786   14.9598 He  0  0  0  0  0  0  0  0  0  0  0  0
    7.5576   -6.8990   15.9965 He  0  0  0  0  0  0  0  0  0  0  0  0
    9.4997   -2.9115   24.5664 He  0  0  0  0  0  0  0  0  0  0  0  0
   10.3886   -2.9427   25.6396 He  0  0  0  0  0  0  0  0  0  0  0  0
   10.1125   -6.0320   18.8483 He  0  0  0  0  0  0  0  0  0  0  0  0
   12.0672   -5.2063   19.8675 He  0  0  0  0  0  0  0  0  0  0  0  0
    2.9295   -8.3255   16.8765 He  0  0  0  0  0  0  0  0  0  0  0  0
    8.5787   -7.4218   16.3737 He  0  0  0  0  0  0  0  0  0  0  0  0
    9.1796   -4.8969   15.7962 He  0  0  0  0  0  0  0  0  0  0  0  0
   11.3118   -4.2293   21.9442 He  0  0  0  0  0  0  0  0  0  0  0  0
  1  3  3  0
  1  6  1  0
  2  4  4  0
  2  6  2  0
  2  7  1  0
  2 15  3  0
  3  6  4  0
  3  8  2  0
  3 12  4  0
  4  7  1  0
  4  8  3  0
  4  9  3  0
  5 11  4  0
  5 12  2  0
  5 13  1  0
  5 14  4  0
  7  9  2  0
  7 11  4  0
  7 14  1  0
  8  9  1  0
  8 10  3  0
 10 11  3  0
 11 13  4  0
 11 14  1  0
 13 14  1  0
M  END
$$$$

 Created by Python create_sdf_string function

 26 65  0  0  0  0  0  0  0  0999 V2000
    9.9772   -3.8241   20.1544 S   0  0  0  0  0  0  0  0  0  0  0  0
    6.4331   -7.8127   16.4116 C   0  0  0  0  0  0  0  0  0  0  0  0
   11.1024   -4.2282   17.6863 C   0  0  0  0  0  0  0  0  0  0  0  0
   10.7254   -4.6215   24.9399 O   0  0  0  0  0  0  0  0  0  0  0  0
    4.2757   -7.4825   15.7327 O   0  0  0  0  0  0  0  0  0  0  0  0
    9.0235   -3.3398   15.3641 C   0  0  0  0  0  0  0  0  0  0  0  0
    9.2370   -8.3991   17.8981 F   0  0  0  0  0  0  0  0  0  0  0  0
   10.5682   -4.5376   20.9295 C   0  0  0  0  0  0  0  0  0  0  0  0
    8.0181   -6.8121   15.9597 C   0  0  0  0  0  0  0  0  0  0  0  0
   11.2029   -3.5530   25.4532 O   0  0  0  0  0  0  0  0  0  0  0  0
    6.7807   -8.8181   17.4467 F   0  0  0  0  0  0  0  0  0  0  0  0
    2.6728   -8.1722   17.2310 C   0  0  0  0  0  0  0  0  0  0  0  0
    8.3807   -7.9648   14.4954 Cl  0  0  0  0  0  0  0  0  0  0  0  0
   11.0330   -3.5630   15.9348 C   0  0  0  0  0  0  0  0  0  0  0  0
    9.4329   -5.1116   17.6610 Cl  0  0  0  0  0  0  0  0  0  0  0  0
   10.3179   -3.9920   24.5215 N   0  0  0  0  0  0  0  0  0  0  0  0
    8.3297   -4.7950   15.7463 F   0  0  0  0  0  0  0  0  0  0  0  0
   10.8413   -4.5676   17.0260 C   0  0  0  0  0  0  0  0  0  0  0  0
   11.0653   -3.1222   24.2518 C   0  0  0  0  0  0  0  0  0  0  0  0
    6.9793   -7.8120   14.4161 C   0  0  0  0  0  0  0  0  0  0  0  0
   10.3368   -2.1207   23.2850 He  0  0  0  0  0  0  0  0  0  0  0  0
    9.5743   -6.5991   19.3976 He  0  0  0  0  0  0  0  0  0  0  0  0
   12.0148   -3.6869   20.2900 He  0  0  0  0  0  0  0  0  0  0  0  0
    9.3337   -5.5730   17.3331 He  0  0  0  0  0  0  0  0  0  0  0  0
    4.1582   -8.4514   17.3401 He  0  0  0  0  0  0  0  0  0  0  0  0
    4.3347   -8.7636   17.0672 He  0  0  0  0  0  0  0  0  0  0  0  0
  1  3  2  0
  1  4  1  0
  1  5  1  0
  1  9  2  0
  1 12  4  0
  1 14  3  0
  1 18  2  0
  2  4  3  0
  2  5  2  0
  2  7  1  0
  2 11  4  0
  2 13  1  0
  3 12  1  0
  3 13  2  0
  3 15  4  0
  3 16  3  0
  3 18  4  0
  4 10  2  0
  4 13  2  0
  4 15  4  0
  5  6  3  0
  5  8  2  0
  5 10  2  0
  5 12  4  0
  5 13  3  0
  5 14  1  0
  5 16  2  0
  5 19  1  0
  5 20  3  0
  6  9  2  0
  6 10  3  0
  6 13  3  0
  6 15  1  0
  6 17  4  0
  7  9  4  0
  7 10  3  0
  7 11  2  0
  7 13  2  0
  7 17  2  0
  7 18  4  0
  8  9  2  0
  8 14  4  0
  8 15  1  0
  8 19  1  0
  9 10  3  0
  9 15  3  0
  9 17  4  0
  9 18  3  0
  9 20  2  0
 10 13  1  0
 10 14  3  0
 10 16  4  0
 10 19  3  0
 10 20  1  0
 11 12  3  0
 11 13  2  0
 11 14  1  0
 11 16  1  0
 11 20  1  0
 13 20  1  0
 14 18  4  0
 15 17  1  0
 15 18  4  0
 18 19  2  0
 18 20  3  0
M  END
$$$$

 Created by Python create_sdf_string function

 26 61  0  0  0  0  0  0  0  0999 V2000
   10.2484   -5.2949   19.0164 C   0  0  0  0  0  0  0  0  0  0  0  0
    6.0620   -8.0046   16.1910 O   0  0  0  0  0  0  0  0  0  0  0  0
   11.1733   -3.2525   17.9334 N   0  0  0  0  0  0  0  0  0  0  0  0
   11.3400   -4.6617   24.5033 F   0  0  0  0  0  0  0  0  0  0  0  0
    4.8033   -8.5679   14.9009 C   0  0  0  0  0  0  0  0  0  0  0  0
    9.3047   -4.1306   15.6948 Cl  0  0  0  0  0  0  0  0  0  0  0  0
   10.6959   -3.8903   22.0380 C   0  0  0  0  0  0  0  0  0  0  0  0
    7.7221   -6.8147   16.3098 C   0  0  0  0  0  0  0  0  0  0  0  0
   10.6532   -3.3985   22.0875 C   0  0  0  0  0  0  0  0  0  0  0  0
    9.6349   -2.6025   24.7642 C   0  0  0  0  0  0  0  0  0  0  0  0
    9.5525   -6.2561   20.2610 C   0  0  0  0  0  0  0  0  0  0  0  0
    5.0521   -7.8977   16.8271 C   0  0  0  0  0  0  0  0  0  0  0  0
    9.6159   -5.8423   17.6819 F   0  0  0  0  0  0  0  0  0  0  0  0
    8.4888   -7.6634   15.8467 C   0  0  0  0  0  0  0  0  0  0  0  0
    9.1889   -4.3539   16.6742 N   0  0  0  0  0  0  0  0  0  0  0  0
    9.0183   -4.9815   17.8123 C   0  0  0  0  0  0  0  0  0  0  0  0
    5.0895   -9.3879   17.2025 C   0  0  0  0  0  0  0  0  0  0  0  0
   10.6560   -2.8317   25.1731 C   0  0  0  0  0  0  0  0  0  0  0  0
   10.5103   -4.2590   16.2125 C   0  0  0  0  0  0  0  0  0  0  0  0
   11.0989   -4.5589   22.6173 C   0  0  0  0  0  0  0  0  0  0  0  0
    6.4174   -7.7382   16.5637 F   0  0  0  0  0  0  0  0  0  0  0  0
    9.3738   -8.0476   18.7829 He  0  0  0  0  0  0  0  0  0  0  0  0
   11.1151   -3.0825   21.1605 He  0  0  0  0  0  0  0  0  0  0  0  0
    3.0892   -8.4028   16.3912 He  0  0  0  0  0  0  0  0  0  0  0  0
    3.8023   -8.1434   17.9040 He  0  0  0  0  0  0  0  0  0  0  0  0
    8.8823   -4.3432   16.2843 He  0  0  0  0  0  0  0  0  0  0  0  0
  1  3  4  0
  1  7  1  0
  1 12  2  0
  2  5  2  0
  2 10  1  0
  2 13  4  0
  2 17  1  0
  3  8  4  0
  3 17  1  0
  3 19  4  0
  4  7  4  0
  4 10  4  0
  4 11  1  0
  4 16  3  0
  4 17  2  0
  4 19  1  0
  5  9  4  0
  5 12  1  0
  5 13  1  0
  5 14  3  0
  5 19  1  0
  6  8  4  0
  6 10  1  0
  6 11  1  0
  6 12  3  0
  6 15  4  0
  6 18  4  0
  6 19  1  0
  7  9  3  0
  7 10  1  0
  7 13  2  0
  7 14  2  0
  7 16  4  0
  7 19  4  0
  7 20  1  0
  8 14  2  0
  8 16  2  0
  8 18  1  0
  8 19  1  0
  9 10  1  0
  9 12  4  0
  9 20  4  0
 10 11  2  0
 10 14  1  0
 10 15  1  0
 10 20  3  0
 11 12  1  0
 11 13  1  0
 11 14  3  0
 11 16  3  0
 11 20  1  0
 12 17  2  0
 14 16  1  0
 14 18  2  0
 14 19  1  0
 15 19  4  0
 16 18  3  0
 16 19  4  0
 17 20  3  0
 18 19  1  0
 20 21  1  0
M  END
$$$$

 Created by Python create_sdf_string function

 26 43  0  0  0  0  0  0  0  0999 V2000
   11.1609   -3.2705   18.8484 O   0  0  0  0  0  0  0  0  0  0  0  0
    6.7652   -8.1161   16.8092 C   0  0  0  0  0  0  0  0  0  0  0  0
   10.3100   -3.9303   17.6779 N   0  0  0  0  0  0  0  0  0  0  0  0
   10.7294   -4.4710   24.5314 C   0  0  0  0  0  0  0  0  0  0  0  0
    8.6733   -3.3309   15.5866 C   0  0  0  0  0  0  0  0  0  0  0  0
    9.4218   -7.6808   17.3145 N   0  0  0  0  0  0  0  0  0  0  0  0
   10.1453   -4.1828   22.3363 N   0  0  0  0  0  0  0  0  0  0  0  0
    8.3051   -7.5757   16.7583 C   0  0  0  0  0  0  0  0  0  0  0  0
   10.3045   -5.4777   19.5657 C   0  0  0  0  0  0  0  0  0  0  0  0
    5.4427   -7.9008   15.3436 C   0  0  0  0  0  0  0  0  0  0  0  0
    9.5171   -6.2185   18.2587 C   0  0  0  0  0  0  0  0  0  0  0  0
    4.9575   -8.0208   16.0276 N   0  0  0  0  0  0  0  0  0  0  0  0
    8.4276   -8.5839   16.3304 O   0  0  0  0  0  0  0  0  0  0  0  0
    8.6068   -3.0614   15.9475 N   0  0  0  0  0  0  0  0  0  0  0  0
    9.9739   -5.4549   16.7967 N   0  0  0  0  0  0  0  0  0  0  0  0
    4.7120   -9.2182   18.5042 C   0  0  0  0  0  0  0  0  0  0  0  0
   10.3078   -1.9441   23.8559 C   0  0  0  0  0  0  0  0  0  0  0  0
    9.2541   -4.0104   15.7012 Br  0  0  0  0  0  0  0  0  0  0  0  0
   11.2504   -4.4663   17.1797 C   0  0  0  0  0  0  0  0  0  0  0  0
    6.2814   -7.3603   15.5039 C   0  0  0  0  0  0  0  0  0  0  0  0
    4.3245   -8.3869   15.8686 He  0  0  0  0  0  0  0  0  0  0  0  0
    9.4187   -1.8335   21.6579 He  0  0  0  0  0  0  0  0  0  0  0  0
   10.0276   -3.2348   23.9335 He  0  0  0  0  0  0  0  0  0  0  0  0
   11.2773   -3.9620   21.5186 He  0  0  0  0  0  0  0  0  0  0  0  0
    4.5567   -8.5428   16.5625 He  0  0  0  0  0  0  0  0  0  0  0  0
   11.7620   -3.8517   21.9652 He  0  0  0  0  0  0  0  0  0  0  0  0
  1  3  4  0
  1 13  3  0
  1 14  1  0
  1 18  1  0
  2  5  3  0
  2 15  4  0
  2 20  1  0
  3  7  3  0
  3  8  3  0
  3 12  3  0
  3 16  1  0
  4  5  2  0
  4 16  1  0
  5  8  2  0
  5  9  2  0
  5 10  2  0
  5 13  3  0
  5 15  2  0
  5 18  2  0
  5 19  1  0
  6 14  2  0
  6 15  3  0
  7  8  4  0
  7 11  1  0
  7 12  3  0
  7 13  3  0
  7 14  3  0
  7 17  3  0
  8 10  3  0
  8 13  1  0
  8 16  4  0
  8 18  3  0
  8 19  3  0
  9 11  4  0
  9 16  3  0
  9 20  3  0
 10 12  2  0
 11 15  4  0
 12 20  1  0
 13 19  4  0
 15 19  4  0
 17 18  1  0
 18 19  2  0
M  END
$$$$

 Created by Python create_sdf_string function

 26 45  0  0  0  0  0  0  0  0999 V2000
   11.1860   -3.8433   19.7813 C   0  0  0  0  0  0  0  0  0  0  0  0
    5.9782   -6.6662   16.5084 C   0  0  0  0  0  0  0  0  0  0  0  0
   10.9537   -3.4946   17.9518 N   0  0  0  0  0  0  0  0  0  0  0  0
   11.3739   -2.8115   24.8030 C   0  0  0  0  0  0  0  0  0  0  0  0
    8.9755   -3.9477   15.6454 C   0  0  0  0  0  0  0  0  0  0  0  0
   11.1675   -4.0453   22.5586 C   0  0  0  0  0  0  0  0  0  0  0  0
    8.0097   -8.3462   16.3120 C   0  0  0  0  0  0  0  0  0  0  0  0
   11.0436   -2.1493   22.3622 C   0  0  0  0  0  0  0  0  0  0  0  0
   10.1318   -2.9950   23.2155 C   0  0  0  0  0  0  0  0  0  0  0  0
    9.8069   -5.9536   19.0835 C   0  0  0  0  0  0  0  0  0  0  0  0
   10.1551   -3.0001   19.4314 C   0  0  0  0  0  0  0  0  0  0  0  0
    9.8185   -6.2533   18.3561 C   0  0  0  0  0  0  0  0  0  0  0  0
    8.2204   -7.6366   16.2141 S   0  0  0  0  0  0  0  0  0  0  0  0
    9.5643   -4.0095   15.9117 F   0  0  0  0  0  0  0  0  0  0  0  0
    9.3146   -4.7099   17.1404 C   0  0  0  0  0  0  0  0  0  0  0  0
    5.5353   -8.9298   16.9943 C   0  0  0  0  0  0  0  0  0  0  0  0
    9.6097   -3.6312   14.7484 O   0  0  0  0  0  0  0  0  0  0  0  0
    9.5120   -4.1849   17.7921 C   0  0  0  0  0  0  0  0  0  0  0  0
   10.6879   -3.6413   22.2174 C   0  0  0  0  0  0  0  0  0  0  0  0
    3.5430   -7.1750   16.3865 He  0  0  0  0  0  0  0  0  0  0  0  0
    9.4877   -7.8592   18.1473 He  0  0  0  0  0  0  0  0  0  0  0  0
    4.8555   -7.6065   15.0162 He  0  0  0  0  0  0  0  0  0  0  0  0
    4.9240   -6.5384   16.6731 He  0  0  0  0  0  0  0  0  0  0  0  0
   10.1859   -2.0932   24.0509 He  0  0  0  0  0  0  0  0  0  0  0  0
    4.1714   -9.8942   16.7253 He  0  0  0  0  0  0  0  0  0  0  0  0
    6.0547   -9.0520   15.3661 He  0  0  0  0  0  0  0  0  0  0  0  0
  1  3  3  0
  1  6  1  0
  1  7  3  0
  1  8  1  0
  2  5  1  0
  2  6  3  0
  2 10  2  0
  2 18  2  0
  2 19  4  0
  3  9  1  0
  3 16  3  0
  3 18  1  0
  4  9  2  0
  4 13  4  0
  4 14  2  0
  5 14  1  0
  5 17  2  0
  5 18  1  0
  6 10  3  0
  6 11  1  0
  6 17  3  0
  6 19  4  0
  7 12  3  0
  7 13  4  0
  7 15  4  0
  7 19  3  0
  8 10  1  0
  8 13  1  0
  8 19  3  0
  9 16  2  0
 10 11  4  0
 10 13  2  0
 10 14  3  0
 10 15  2  0
 10 18  4  0
 11 15  4  0
 11 17  1  0
 11 18  4  0
 12 15  4  0
 12 16  2  0
 12 19  3  0
 13 14  2  0
 13 18  2  0
 15 18  4  0
 16 19  1  0
M  END
$$$$

 Created by Python create_sdf_string function

 26 31  0  0  0  0  0  0  0  0999 V2000
   10.8745   -3.5938   21.2006 C   0  0  0  0  0  0  0  0  0  0  0  0
    6.9454   -6.3838   15.6943 F   0  0  0  0  0  0  0  0  0  0  0  0
   10.2104   -2.4410   17.9622 C   0  0  0  0  0  0  0  0  0  0  0  0
    4.2188   -8.2031   16.0209 C   0  0  0  0  0  0  0  0  0  0  0  0
    9.8839   -4.5972   15.4470 C   0  0  0  0  0  0  0  0  0  0  0  0
    9.5604   -7.0116   17.9692 S   0  0  0  0  0  0  0  0  0  0  0  0
   10.9192   -3.6836   22.7011 N   0  0  0  0  0  0  0  0  0  0  0  0
   10.9578   -3.3181   24.7522 C   0  0  0  0  0  0  0  0  0  0  0  0
   10.4941   -6.0623   19.5512 C   0  0  0  0  0  0  0  0  0  0  0  0
   10.2335   -6.9976   18.3586 O   0  0  0  0  0  0  0  0  0  0  0  0
    7.5318   -8.0947   17.0643 C   0  0  0  0  0  0  0  0  0  0  0  0
    9.6978   -4.6738   15.6463 C   0  0  0  0  0  0  0  0  0  0  0  0
    9.7007   -1.6312   24.0665 N   0  0  0  0  0  0  0  0  0  0  0  0
    4.7305   -9.4592   16.6285 B   0  0  0  0  0  0  0  0  0  0  0  0
   10.4431   -4.4873   17.6472 C   0  0  0  0  0  0  0  0  0  0  0  0
   10.2384   -4.6274   23.6852 C   0  0  0  0  0  0  0  0  0  0  0  0
    6.4746   -8.1149   16.2503 S   0  0  0  0  0  0  0  0  0  0  0  0
   10.5150   -2.1882   24.5354 He  0  0  0  0  0  0  0  0  0  0  0  0
    8.4048   -8.3513   17.0878 He  0  0  0  0  0  0  0  0  0  0  0  0
   10.9357   -2.8155   22.6171 He  0  0  0  0  0  0  0  0  0  0  0  0
    5.2896   -8.6353   13.7633 He  0  0  0  0  0  0  0  0  0  0  0  0
    9.4282   -5.3465   19.4557 He  0  0  0  0  0  0  0  0  0  0  0  0
    3.8057   -6.6685   15.5154 He  0  0  0  0  0  0  0  0  0  0  0  0
    9.5861   -4.9141   17.9628 He  0  0  0  0  0  0  0  0  0  0  0  0
    5.9576   -8.4272   17.6325 He  0  0  0  0  0  0  0  0  0  0  0  0
   10.2580   -3.7074   16.0779 He  0  0  0  0  0  0  0  0  0  0  0  0
  1  5  2  0
  1  7  2  0
  1 11  3  0
  1 16  4  0
  1 17  3  0
  2  6  3  0
  2  8  4  0
  2 11  1  0
  2 12  2  0
  2 14  2  0
  3 10  3  0
  3 11  3  0
  3 15  4  0
  4 10  1  0
  4 16  3  0
  5  8  2  0
  5 12  4  0
  5 16  1  0
  6 10  1  0
  6 14  1  0
  7 16  1  0
  8 14  4  0
  8 15  4  0
  8 16  4  0
  9 10  2  0
  9 13  3  0
 10 14  4  0
 11 12  2  0
 15 16  4  0
 15 17  1  0
 16 17  2  0
M  END
$$$$

 Created by Python create_sdf_string function

 26 49  0  0  0  0  0  0  0  0999 V2000
    7.5307   -6.6397   16.1773 N   0  0  0  0  0  0  0  0  0  0  0  0
   10.9333   -3.3561   17.3797 C   0  0  0  0  0  0  0  0  0  0  0  0
    9.7438   -2.7289   26.1421 C   0  0  0  0  0  0  0  0  0  0  0  0
    4.1966   -7.8501   17.1435 C   0  0  0  0  0  0  0  0  0  0  0  0
    9.3014   -7.6270   18.0427 F   0  0  0  0  0  0  0  0  0  0  0  0
   11.2078   -3.4134   21.7903 Cl  0  0  0  0  0  0  0  0  0  0  0  0
    8.7248   -8.5472   16.7968 C   0  0  0  0  0  0  0  0  0  0  0  0
   11.8026   -2.6170   22.5585 C   0  0  0  0  0  0  0  0  0  0  0  0
   10.3626   -2.9781   24.4228 C   0  0  0  0  0  0  0  0  0  0  0  0
   10.5444   -5.3075   19.0081 O   0  0  0  0  0  0  0  0  0  0  0  0
    5.7980   -6.8299   14.7158 C   0  0  0  0  0  0  0  0  0  0  0  0
   10.9965   -4.3473   19.7232 C   0  0  0  0  0  0  0  0  0  0  0  0
    9.7525   -7.1146   18.9198 O   0  0  0  0  0  0  0  0  0  0  0  0
    8.4543   -7.5860   17.1546 C   0  0  0  0  0  0  0  0  0  0  0  0
    9.1920   -3.9519   16.1601 B   0  0  0  0  0  0  0  0  0  0  0  0
    9.1661   -4.6935   19.2514 S   0  0  0  0  0  0  0  0  0  0  0  0
    6.3764   -8.8986   16.7623 O   0  0  0  0  0  0  0  0  0  0  0  0
   10.8384   -1.8940   23.1339 N   0  0  0  0  0  0  0  0  0  0  0  0
    4.9371   -7.9634   16.9788 C   0  0  0  0  0  0  0  0  0  0  0  0
    9.8119   -4.0700   20.9016 He  0  0  0  0  0  0  0  0  0  0  0  0
    8.8790   -4.7602   15.9656 He  0  0  0  0  0  0  0  0  0  0  0  0
    3.9658   -7.6255   14.4096 He  0  0  0  0  0  0  0  0  0  0  0  0
    9.7109   -3.8634   16.3068 He  0  0  0  0  0  0  0  0  0  0  0  0
   10.4525   -4.9350   17.7585 He  0  0  0  0  0  0  0  0  0  0  0  0
   11.4319   -3.7480   23.6016 He  0  0  0  0  0  0  0  0  0  0  0  0
    5.9231   -7.8662   14.5356 He  0  0  0  0  0  0  0  0  0  0  0  0
  1  2  4  0
  1 10  4  0
  1 14  1  0
  1 17  4  0
  1 18  4  0
  1 19  3  0
  2  7  4  0
  2  8  2  0
  2 10  1  0
  3  5  4  0
  3  9  1  0
  3 11  3  0
  3 13  2  0
  3 18  4  0
  4  6  3  0
  4  8  4  0
  4 19  2  0
  5  7  2  0
  5  9  1  0
  5 14  1  0
  5 19  2  0
  6  8  4  0
  6 13  1  0
  6 16  1  0
  7  9  3  0
  7 14  1  0
  7 16  1  0
  7 18  3  0
  8 13  4  0
  8 18  4  0
  9 11  3  0
  9 13  4  0
  9 17  1  0
  9 18  1  0
 10 12  4  0
 10 14  1  0
 10 15  1  0
 10 18  2  0
 11 14  1  0
 11 18  4  0
 12 15  2  0
 12 16  4  0
 13 16  4  0
 14 15  1  0
 14 19  4  0
 15 16  4  0
 16 17  2  0
 16 18  1  0
 18 19  4  0
M  END
$$$$

 Created by Python create_sdf_string function

 26 44  0  0  0  0  0  0  0  0999 V2000
   10.4007   -4.5162   20.9465 F   0  0  0  0  0  0  0  0  0  0  0  0
    8.5176   -6.6732   16.5496 N   0  0  0  0  0  0  0  0  0  0  0  0
   11.1487   -3.2308   18.1523 C   0  0  0  0  0  0  0  0  0  0  0  0
   10.5173   -3.0602   25.3531 C   0  0  0  0  0  0  0  0  0  0  0  0
    4.5910   -6.8652   16.2163 C   0  0  0  0  0  0  0  0  0  0  0  0
    9.1132   -4.3939   15.8942 C   0  0  0  0  0  0  0  0  0  0  0  0
   11.1904   -3.6042   21.4673 O   0  0  0  0  0  0  0  0  0  0  0  0
    7.6737   -8.5829   16.6598 C   0  0  0  0  0  0  0  0  0  0  0  0
   10.9743   -1.1542   22.4380 F   0  0  0  0  0  0  0  0  0  0  0  0
   11.1474   -4.7567   19.5271 C   0  0  0  0  0  0  0  0  0  0  0  0
    5.2869   -8.0677   14.7731 C   0  0  0  0  0  0  0  0  0  0  0  0
   10.9505   -4.8082   19.5587 C   0  0  0  0  0  0  0  0  0  0  0  0
    9.9654   -8.2324   18.4079 F   0  0  0  0  0  0  0  0  0  0  0  0
    4.1827   -6.9538   15.4619 P   0  0  0  0  0  0  0  0  0  0  0  0
    8.0841   -7.7315   16.9872 C   0  0  0  0  0  0  0  0  0  0  0  0
    9.7434   -4.5413   16.1334 C   0  0  0  0  0  0  0  0  0  0  0  0
    5.5386   -8.0285   16.3985 C   0  0  0  0  0  0  0  0  0  0  0  0
   11.6764   -2.1255   23.6082 S   0  0  0  0  0  0  0  0  0  0  0  0
    4.8454   -8.6951   16.9804 Cl  0  0  0  0  0  0  0  0  0  0  0  0
   10.9686   -3.4421   23.8972 N   0  0  0  0  0  0  0  0  0  0  0  0
    8.1786   -7.5416   17.2491 He  0  0  0  0  0  0  0  0  0  0  0  0
   10.9589   -2.7657   23.8141 He  0  0  0  0  0  0  0  0  0  0  0  0
    9.4576   -5.1514   18.6681 He  0  0  0  0  0  0  0  0  0  0  0  0
    9.4813   -3.5421   16.9327 He  0  0  0  0  0  0  0  0  0  0  0  0
   10.1632   -5.3325   16.8813 He  0  0  0  0  0  0  0  0  0  0  0  0
    7.2356   -7.4154   15.8939 He  0  0  0  0  0  0  0  0  0  0  0  0
  1  4  3  0
  1  5  2  0
  1  6  2  0
  1  7  2  0
  2  4  1  0
  2 15  1  0
  2 16  3  0
  2 17  1  0
  3  6  2  0
  3 10  3  0
  3 11  1  0
  3 17  3  0
  4 11  2  0
  4 18  2  0
  4 19  1  0
  5  7  2  0
  5 14  2  0
  5 15  4  0
  5 19  3  0
  6 16  1  0
  6 19  1  0
  7  9  2  0
  7 11  3  0
  7 13  2  0
  7 15  1  0
  7 20  4  0
  8 15  1  0
  8 16  3  0
  8 20  2  0
  9 15  2  0
  9 18  4  0
 10 12  4  0
 10 14  1  0
 10 15  3  0
 11 14  1  0
 11 17  1  0
 12 13  4  0
 12 20  2  0
 13 16  2  0
 14 20  2  0
 15 19  1  0
 15 20  3  0
 17 19  2  0
 19 20  2  0
M  END
$$$$

 Created by Python create_sdf_string function

 26 69  0  0  0  0  0  0  0  0999 V2000
   10.0164   -4.5570   21.1396 P   0  0  0  0  0  0  0  0  0  0  0  0
    9.1742   -7.1182   15.8896 F   0  0  0  0  0  0  0  0  0  0  0  0
   11.1097   -3.0533   25.2934 C   0  0  0  0  0  0  0  0  0  0  0  0
    3.8556   -7.5131   16.0737 C   0  0  0  0  0  0  0  0  0  0  0  0
   10.3448   -3.8518   16.1229 C   0  0  0  0  0  0  0  0  0  0  0  0
    8.9611   -6.9990   17.0420 P   0  0  0  0  0  0  0  0  0  0  0  0
   10.4069   -2.9539   21.8596 C   0  0  0  0  0  0  0  0  0  0  0  0
    8.0047   -8.4200   16.7535 C   0  0  0  0  0  0  0  0  0  0  0  0
   11.8980   -2.4555   21.8706 C   0  0  0  0  0  0  0  0  0  0  0  0
   10.5961   -3.6651   24.7872 C   0  0  0  0  0  0  0  0  0  0  0  0
   11.7410   -4.1289   19.7085 C   0  0  0  0  0  0  0  0  0  0  0  0
    4.5085   -8.7174   15.0740 C   0  0  0  0  0  0  0  0  0  0  0  0
   11.5537   -4.9879   19.6716 C   0  0  0  0  0  0  0  0  0  0  0  0
   10.2099   -7.7966   17.7776 O   0  0  0  0  0  0  0  0  0  0  0  0
    5.3270   -7.6453   15.3840 C   0  0  0  0  0  0  0  0  0  0  0  0
    7.7182   -7.7176   16.3593 C   0  0  0  0  0  0  0  0  0  0  0  0
    8.7434   -4.6091   16.2986 C   0  0  0  0  0  0  0  0  0  0  0  0
   10.6854   -5.1587   18.5609 C   0  0  0  0  0  0  0  0  0  0  0  0
    6.8054   -8.3973   16.3116 F   0  0  0  0  0  0  0  0  0  0  0  0
   11.0416   -1.0138   24.0748 F   0  0  0  0  0  0  0  0  0  0  0  0
    6.0729   -8.2377   18.2400 C   0  0  0  0  0  0  0  0  0  0  0  0
   10.2042   -4.2006   16.9470 N   0  0  0  0  0  0  0  0  0  0  0  0
   10.5840   -5.0687   16.4301 O   0  0  0  0  0  0  0  0  0  0  0  0
   11.0280   -3.2378   18.9600 He  0  0  0  0  0  0  0  0  0  0  0  0
   10.3359   -4.0437   23.0203 He  0  0  0  0  0  0  0  0  0  0  0  0
    7.0500   -7.1740   15.7802 He  0  0  0  0  0  0  0  0  0  0  0  0
  1  7  3  0
  1 13  4  0
  1 14  1  0
  1 15  1  0
  1 17  2  0
  1 18  2  0
  1 23  1  0
  2 10  2  0
  2 12  2  0
  2 15  2  0
  3 10  1  0
  3 16  4  0
  3 19  4  0
  3 21  2  0
  4  6  3  0
  4 11  3  0
  4 15  1  0
  4 20  4  0
  4 21  4  0
  5  6  2  0
  5 12  2  0
  5 17  1  0
  5 18  4  0
  5 21  4  0
  5 23  1  0
  6 10  3  0
  6 13  2  0
  6 14  3  0
  7  9  2  0
  7 11  1  0
  7 17  3  0
  8 10  2  0
  8 11  1  0
  8 14  4  0
  8 16  2  0
  8 17  2  0
  8 19  1  0
  8 20  2  0
  8 21  2  0
  9 10  2  0
  9 21  1  0
  9 22  3  0
 10 16  2  0
 10 23  4  0
 11 13  4  0
 11 15  1  0
 11 21  3  0
 12 13  4  0
 12 15  3  0
 12 19  3  0
 12 21  4  0
 12 23  4  0
 13 16  1  0
 13 18  4  0
 13 22  1  0
 13 23  3  0
 14 15  3  0
 14 17  1  0
 14 19  1  0
 14 21  3  0
 14 23  3  0
 15 23  1  0
 16 21  1  0
 17 18  1  0
 17 23  1  0
 18 20  1  0
 18 23  4  0
 19 21  1  0
 22 23  2  0
M  END
$$$$

 Created by Python create_sdf_string function

 26 39  0  0  0  0  0  0  0  0999 V2000
   11.2969   -4.5785   21.6510 C   0  0  0  0  0  0  0  0  0  0  0  0
    9.3804   -5.6824   15.9583 N   0  0  0  0  0  0  0  0  0  0  0  0
   12.0181   -3.0693   20.0659 N   0  0  0  0  0  0  0  0  0  0  0  0
   11.6416   -2.7242   25.3324 C   0  0  0  0  0  0  0  0  0  0  0  0
    3.9012   -8.4458   16.1110 C   0  0  0  0  0  0  0  0  0  0  0  0
    9.2981   -4.5648   16.1420 C   0  0  0  0  0  0  0  0  0  0  0  0
    9.1411   -7.0731   17.9210 P   0  0  0  0  0  0  0  0  0  0  0  0
   11.5339   -2.3924   22.8643 N   0  0  0  0  0  0  0  0  0  0  0  0
   10.1666   -3.8111   20.2525 C   0  0  0  0  0  0  0  0  0  0  0  0
   10.0496   -6.6153   18.7376 O   0  0  0  0  0  0  0  0  0  0  0  0
    4.8432   -7.7094   16.0676 C   0  0  0  0  0  0  0  0  0  0  0  0
    8.7819   -4.8811   15.7913 P   0  0  0  0  0  0  0  0  0  0  0  0
   11.8169   -5.1646   18.9412 Cl  0  0  0  0  0  0  0  0  0  0  0  0
    6.9564   -8.9276   16.2611 C   0  0  0  0  0  0  0  0  0  0  0  0
   10.3434   -2.7924   24.4551 C   0  0  0  0  0  0  0  0  0  0  0  0
   11.1862   -2.2955   17.3225 F   0  0  0  0  0  0  0  0  0  0  0  0
   10.7160   -5.9389   17.7650 C   0  0  0  0  0  0  0  0  0  0  0  0
   10.8767   -4.5205   23.0429 C   0  0  0  0  0  0  0  0  0  0  0  0
    5.8419   -7.9321   15.0476 S   0  0  0  0  0  0  0  0  0  0  0  0
   11.0056   -3.8255   21.1562 He  0  0  0  0  0  0  0  0  0  0  0  0
    7.5199   -8.1235   17.3852 He  0  0  0  0  0  0  0  0  0  0  0  0
   10.3539   -3.4601   24.2491 He  0  0  0  0  0  0  0  0  0  0  0  0
    4.4568   -7.6449   15.1583 He  0  0  0  0  0  0  0  0  0  0  0  0
   10.8857   -5.9212   20.1070 He  0  0  0  0  0  0  0  0  0  0  0  0
    7.6199   -7.4843   15.4695 He  0  0  0  0  0  0  0  0  0  0  0  0
    5.4949   -8.7624   17.8511 He  0  0  0  0  0  0  0  0  0  0  0  0
  1  4  4  0
  1  9  2  0
  1 18  2  0
  1 19  2  0
  2  4  3  0
  2  6  2  0
  2  7  1  0
  2  8  1  0
  2 11  4  0
  2 12  2  0
  3 16  4  0
  4 10  3  0
  4 13  1  0
  4 19  3  0
  5 11  1  0
  5 12  2  0
  5 18  1  0
  6 12  1  0
  6 15  2  0
  6 17  1  0
  7  9  1  0
  7 10  3  0
  7 14  4  0
  8 15  2  0
  9 11  1  0
  9 12  1  0
  9 15  2  0
  9 17  4  0
 10 11  1  0
 10 15  1  0
 10 17  3  0
 11 13  2  0
 12 15  4  0
 12 17  3  0
 13 17  4  0
 14 16  3  0
 16 19  2  0
 17 19  4  0
 18 19  4  0
M  END
$$$$

 Created by Python create_sdf_string function

 26 42  0  0  0  0  0  0  0  0999 V2000
   10.8816   -4.0300   21.3247 C   0  0  0  0  0  0  0  0  0  0  0  0
    7.8287   -6.0002   16.2136 N   0  0  0  0  0  0  0  0  0  0  0  0
   10.4310   -3.1169   19.2831 N   0  0  0  0  0  0  0  0  0  0  0  0
   10.9215   -2.5034   24.8348 C   0  0  0  0  0  0  0  0  0  0  0  0
    4.4643   -7.9884   17.0471 Cl  0  0  0  0  0  0  0  0  0  0  0  0
    9.3597   -6.7782   17.2394 C   0  0  0  0  0  0  0  0  0  0  0  0
   11.0375   -3.4310   21.8691 C   0  0  0  0  0  0  0  0  0  0  0  0
   11.3535   -2.0087   22.6838 N   0  0  0  0  0  0  0  0  0  0  0  0
   10.5163   -4.0027   23.2915 C   0  0  0  0  0  0  0  0  0  0  0  0
   10.7920   -3.3191   20.0435 C   0  0  0  0  0  0  0  0  0  0  0  0
   10.7464   -5.1327   19.9908 C   0  0  0  0  0  0  0  0  0  0  0  0
    9.9721   -6.8412   18.3168 O   0  0  0  0  0  0  0  0  0  0  0  0
    4.5942   -8.3720   15.5477 C   0  0  0  0  0  0  0  0  0  0  0  0
    8.9886   -6.2091   16.5301 C   0  0  0  0  0  0  0  0  0  0  0  0
   10.9177   -5.7695   19.9233 C   0  0  0  0  0  0  0  0  0  0  0  0
    6.5453   -8.3919   16.4656 C   0  0  0  0  0  0  0  0  0  0  0  0
   11.2153   -2.4801   23.2840 C   0  0  0  0  0  0  0  0  0  0  0  0
    6.0335   -8.8952   17.2786 C   0  0  0  0  0  0  0  0  0  0  0  0
   10.4212   -3.4812   16.7277 O   0  0  0  0  0  0  0  0  0  0  0  0
   11.4610   -5.2144   23.2325 C   0  0  0  0  0  0  0  0  0  0  0  0
    6.4227   -7.4440   15.2994 C   0  0  0  0  0  0  0  0  0  0  0  0
    9.5956   -4.5632   17.4327 He  0  0  0  0  0  0  0  0  0  0  0  0
    8.4370   -8.3949   17.1221 He  0  0  0  0  0  0  0  0  0  0  0  0
    5.3523   -7.4155   15.2912 He  0  0  0  0  0  0  0  0  0  0  0  0
    7.5402   -7.5500   15.7770 He  0  0  0  0  0  0  0  0  0  0  0  0
   10.3547   -4.8418   18.6859 He  0  0  0  0  0  0  0  0  0  0  0  0
  1  2  2  0
  1  7  1  0
  1  8  2  0
  1 10  4  0
  1 11  4  0
  1 19  4  0
  2  4  4  0
  2 10  4  0
  2 14  1  0
  2 16  4  0
  2 19  3  0
  3 10  4  0
  3 14  4  0
  4  7  4  0
  4  9  4  0
  4 11  3  0
  4 17  4  0
  5 11  4  0
  5 13  1  0
  6  9  4  0
  6 16  3  0
  6 17  3  0
  6 21  2  0
  7 12  2  0
  7 19  2  0
  7 20  4  0
  8 11  1  0
  8 14  3  0
  8 17  1  0
  8 19  4  0
  9 10  3  0
  9 16  4  0
  9 20  4  0
 11 12  2  0
 11 15  2  0
 11 18  1  0
 11 20  4  0
 12 21  4  0
 14 16  3  0
 16 18  1  0
 16 19  4  0
 16 21  3  0
M  END
$$$$

 Created by Python create_sdf_string function

 26 41  0  0  0  0  0  0  0  0999 V2000
   10.9293   -3.7740   20.4895 C   0  0  0  0  0  0  0  0  0  0  0  0
    6.9754   -6.0371   15.8692 N   0  0  0  0  0  0  0  0  0  0  0  0
   10.6745   -2.8276   24.6302 C   0  0  0  0  0  0  0  0  0  0  0  0
    3.6510   -8.4974   17.1633 C   0  0  0  0  0  0  0  0  0  0  0  0
    9.8297   -5.8084   16.3071 C   0  0  0  0  0  0  0  0  0  0  0  0
    8.6127   -6.5168   17.7844 N   0  0  0  0  0  0  0  0  0  0  0  0
    8.1553   -7.6159   17.1769 C   0  0  0  0  0  0  0  0  0  0  0  0
   11.4247   -1.6678   22.6436 N   0  0  0  0  0  0  0  0  0  0  0  0
   11.3712   -4.4646   25.6179 C   0  0  0  0  0  0  0  0  0  0  0  0
   10.6727   -5.3012   20.4824 O   0  0  0  0  0  0  0  0  0  0  0  0
    4.0984   -8.2185   16.4888 C   0  0  0  0  0  0  0  0  0  0  0  0
    7.6648   -8.0871   15.4665 S   0  0  0  0  0  0  0  0  0  0  0  0
   10.7646   -5.7223   17.7933 C   0  0  0  0  0  0  0  0  0  0  0  0
    7.2648   -8.5940   16.8047 C   0  0  0  0  0  0  0  0  0  0  0  0
   11.2209   -1.9505   24.5636 O   0  0  0  0  0  0  0  0  0  0  0  0
    7.0638   -9.1857   18.0394 C   0  0  0  0  0  0  0  0  0  0  0  0
   10.2606   -3.5436   17.0825 O   0  0  0  0  0  0  0  0  0  0  0  0
   10.5076   -5.3520   18.5228 N   0  0  0  0  0  0  0  0  0  0  0  0
   10.9719   -4.2452   22.6248 C   0  0  0  0  0  0  0  0  0  0  0  0
    7.6066   -6.9427   15.4919 O   0  0  0  0  0  0  0  0  0  0  0  0
   10.5704   -2.9891   17.9389 He  0  0  0  0  0  0  0  0  0  0  0  0
   11.0579   -3.4067   22.7854 He  0  0  0  0  0  0  0  0  0  0  0  0
   11.3470   -2.5175   20.2989 He  0  0  0  0  0  0  0  0  0  0  0  0
    5.5640   -8.2321   14.7358 He  0  0  0  0  0  0  0  0  0  0  0  0
    9.2386   -6.8678   19.0761 He  0  0  0  0  0  0  0  0  0  0  0  0
   10.4955   -6.0868   19.6539 He  0  0  0  0  0  0  0  0  0  0  0  0
  1  3  4  0
  1 15  4  0
  2  5  1  0
  2 12  1  0
  2 19  2  0
  2 20  2  0
  3  9  4  0
  3 10  2  0
  3 15  3  0
  3 18  3  0
  4  7  3  0
  4 11  1  0
  4 16  1  0
  5  8  1  0
  5 14  2  0
  5 17  1  0
  6  7  1  0
  6  9  3  0
  6 11  4  0
  6 14  4  0
  6 16  4  0
  6 17  4  0
  7  9  1  0
  7 12  2  0
  7 16  3  0
  7 20  4  0
  8 12  3  0
  9 19  4  0
 10 11  4  0
 10 12  1  0
 10 18  4  0
 11 17  3  0
 11 18  2  0
 12 15  2  0
 12 20  1  0
 13 20  1  0
 14 15  3  0
 14 16  1  0
 15 19  4  0
 16 17  1  0
 19 20  4  0
M  END
$$$$

 Created by Python create_sdf_string function

 26 43  0  0  0  0  0  0  0  0999 V2000
   11.3421   -3.9354   20.5875 C   0  0  0  0  0  0  0  0  0  0  0  0
    6.7072   -6.3844   16.5611 C   0  0  0  0  0  0  0  0  0  0  0  0
   10.6324   -4.1502   18.6194 C   0  0  0  0  0  0  0  0  0  0  0  0
   10.5886   -3.6963   24.8939 C   0  0  0  0  0  0  0  0  0  0  0  0
    4.6081   -8.2888   16.2876 C   0  0  0  0  0  0  0  0  0  0  0  0
    8.9189   -4.6328   15.9006 C   0  0  0  0  0  0  0  0  0  0  0  0
   10.9859   -3.0179   22.5117 C   0  0  0  0  0  0  0  0  0  0  0  0
    7.4655   -8.6143   16.7161 C   0  0  0  0  0  0  0  0  0  0  0  0
   10.4804   -3.0143   22.7668 N   0  0  0  0  0  0  0  0  0  0  0  0
    5.0313   -6.9707   15.8109 C   0  0  0  0  0  0  0  0  0  0  0  0
   10.4305   -5.6792   21.1690 O   0  0  0  0  0  0  0  0  0  0  0  0
    3.9373   -8.0992   16.6909 C   0  0  0  0  0  0  0  0  0  0  0  0
   10.0955   -5.7486   17.5024 F   0  0  0  0  0  0  0  0  0  0  0  0
   10.0884   -5.2458   19.8378 N   0  0  0  0  0  0  0  0  0  0  0  0
    7.1837   -9.0508   17.9233 C   0  0  0  0  0  0  0  0  0  0  0  0
   10.7058   -2.8866   24.4278 C   0  0  0  0  0  0  0  0  0  0  0  0
    5.7776   -8.0832   18.6100 C   0  0  0  0  0  0  0  0  0  0  0  0
    9.9894   -3.7190   16.3386 O   0  0  0  0  0  0  0  0  0  0  0  0
   11.0844   -4.4883   23.1120 C   0  0  0  0  0  0  0  0  0  0  0  0
    6.6163   -7.7820   15.2567 C   0  0  0  0  0  0  0  0  0  0  0  0
    8.3467   -7.0753   18.0951 He  0  0  0  0  0  0  0  0  0  0  0  0
   10.5482   -4.5700   24.7846 He  0  0  0  0  0  0  0  0  0  0  0  0
   10.3289   -2.7069   19.9829 He  0  0  0  0  0  0  0  0  0  0  0  0
    9.4493   -6.6575   18.3686 He  0  0  0  0  0  0  0  0  0  0  0  0
    7.4774   -7.9623   15.8483 He  0  0  0  0  0  0  0  0  0  0  0  0
   10.1124   -5.3893   18.7636 He  0  0  0  0  0  0  0  0  0  0  0  0
  1  7  1  0
  1 11  4  0
  1 12  4  0
  1 16  1  0
  1 20  2  0
  2  3  1  0
  2  4  4  0
  2 12  4  0
  2 18  2  0
  2 19  2  0
  2 20  3  0
  3  4  4  0
  3  7  2  0
  3 13  3  0
  3 14  3  0
  3 15  4  0
  3 18  1  0
  4 14  1  0
  4 16  4  0
  4 17  2  0
  4 18  3  0
  5  6  3  0
  5 16  4  0
  6 12  2  0
  6 13  4  0
  6 18  4  0
  7  9  4  0
  7 17  3  0
  7 19  4  0
  8 15  1  0
  8 17  1  0
  8 20  4  0
  9 16  4  0
  9 18  4  0
  9 20  3  0
 10 20  1  0
 11 14  4  0
 11 15  1  0
 12 13  4  0
 12 15  1  0
 15 16  3  0
 15 17  1  0
 19 20  1  0
M  END
$$$$

 Created by Python create_sdf_string function

 26 48  0  0  0  0  0  0  0  0999 V2000
   11.3276   -4.3144   21.0618 C   0  0  0  0  0  0  0  0  0  0  0  0
    7.4887   -5.8889   16.5753 C   0  0  0  0  0  0  0  0  0  0  0  0
   10.0156   -4.3089   18.2677 C   0  0  0  0  0  0  0  0  0  0  0  0
    4.4281   -8.9307   15.6396 C   0  0  0  0  0  0  0  0  0  0  0  0
    9.2379   -4.6333   15.7937 C   0  0  0  0  0  0  0  0  0  0  0  0
   10.7321   -3.6703   22.4476 C   0  0  0  0  0  0  0  0  0  0  0  0
   10.8750   -1.9076   23.1407 N   0  0  0  0  0  0  0  0  0  0  0  0
   11.2498   -4.2794   24.8843 N   0  0  0  0  0  0  0  0  0  0  0  0
   11.9095   -3.4606   19.5105 C   0  0  0  0  0  0  0  0  0  0  0  0
    5.8232   -6.9821   15.4695 C   0  0  0  0  0  0  0  0  0  0  0  0
   11.5411   -5.6864   21.6747 F   0  0  0  0  0  0  0  0  0  0  0  0
    8.6843   -7.2011   17.5252 C   0  0  0  0  0  0  0  0  0  0  0  0
    4.3959   -8.5738   17.3144 C   0  0  0  0  0  0  0  0  0  0  0  0
    7.4065   -7.7863   15.4874 F   0  0  0  0  0  0  0  0  0  0  0  0
   10.1358   -5.3702   19.2767 P   0  0  0  0  0  0  0  0  0  0  0  0
    7.0594   -8.2549   18.0781 C   0  0  0  0  0  0  0  0  0  0  0  0
   10.2992   -2.5886   24.7531 Br  0  0  0  0  0  0  0  0  0  0  0  0
   10.4314   -3.3520   17.7522 N   0  0  0  0  0  0  0  0  0  0  0  0
    9.8043   -4.3957   18.7587 C   0  0  0  0  0  0  0  0  0  0  0  0
   10.9839   -4.9353   23.0900 C   0  0  0  0  0  0  0  0  0  0  0  0
    6.1877   -7.0383   16.4238 C   0  0  0  0  0  0  0  0  0  0  0  0
   10.7535   -3.5285   25.3217 He  0  0  0  0  0  0  0  0  0  0  0  0
    8.3327   -7.5079   16.8357 He  0  0  0  0  0  0  0  0  0  0  0  0
    6.3849   -8.5030   17.1058 He  0  0  0  0  0  0  0  0  0  0  0  0
    9.8603   -5.2210   17.2036 He  0  0  0  0  0  0  0  0  0  0  0  0
    5.3109   -7.7423   18.0085 He  0  0  0  0  0  0  0  0  0  0  0  0
  1  6  1  0
  1  9  4  0
  1 10  4  0
  1 14  3  0
  1 17  4  0
  2  3  4  0
  2  8  1  0
  2 12  2  0
  2 13  2  0
  2 16  3  0
  2 17  4  0
  2 18  3  0
  2 21  2  0
  3  9  4  0
  3 14  4  0
  3 15  3  0
  3 19  4  0
  4  5  3  0
  4  7  2  0
  4  9  1  0
  4 11  4  0
  4 13  1  0
  4 17  4  0
  5  6  3  0
  5  9  3  0
  5 18  4  0
  6  7  2  0
  6 14  2  0
  6 19  4  0
  6 20  4  0
  7  9  3  0
  7 17  4  0
  7 18  3  0
  7 20  3  0
  8 12  1  0
  8 20  4  0
  9 12  2  0
 10 13  3  0
 10 19  1  0
 10 21  1  0
 11 15  4  0
 11 18  3  0
 11 20  4  0
 12 14  3  0
 12 20  2  0
 13 15  3  0
 13 19  1  0
 14 21  1  0
M  END
$$$$

 Created by Python create_sdf_string function

 26 51  0  0  0  0  0  0  0  0999 V2000
   10.9260   -3.4445   21.9019 C   0  0  0  0  0  0  0  0  0  0  0  0
   10.4823   -3.9461   19.3718 O   0  0  0  0  0  0  0  0  0  0  0  0
   10.6405   -2.7955   24.6670 B   0  0  0  0  0  0  0  0  0  0  0  0
    9.6418   -3.8556   16.5590 C   0  0  0  0  0  0  0  0  0  0  0  0
    9.0901   -7.5951   17.2080 C   0  0  0  0  0  0  0  0  0  0  0  0
    6.7165   -8.8575   17.0909 C   0  0  0  0  0  0  0  0  0  0  0  0
   11.1382   -1.8781   22.8427 N   0  0  0  0  0  0  0  0  0  0  0  0
   10.1988   -4.4667   24.7647 N   0  0  0  0  0  0  0  0  0  0  0  0
   11.0306   -3.9062   20.2010 C   0  0  0  0  0  0  0  0  0  0  0  0
   10.6440   -5.2743   20.7236 C   0  0  0  0  0  0  0  0  0  0  0  0
    8.9727   -6.4455   16.7772 C   0  0  0  0  0  0  0  0  0  0  0  0
    4.8182   -8.5786   17.1341 C   0  0  0  0  0  0  0  0  0  0  0  0
    6.8371   -7.5505   16.5037 C   0  0  0  0  0  0  0  0  0  0  0  0
    9.0367   -5.0274   17.6303 C   0  0  0  0  0  0  0  0  0  0  0  0
   10.3363   -5.9802   19.9338 C   0  0  0  0  0  0  0  0  0  0  0  0
    6.5292   -7.9587   17.8920 C   0  0  0  0  0  0  0  0  0  0  0  0
   10.6111   -2.6334   23.4640 C   0  0  0  0  0  0  0  0  0  0  0  0
    6.2119   -8.5919   17.6191 C   0  0  0  0  0  0  0  0  0  0  0  0
   11.0347   -3.6896   18.3167 F   0  0  0  0  0  0  0  0  0  0  0  0
   10.6234   -5.0167   23.8853 C   0  0  0  0  0  0  0  0  0  0  0  0
    6.5011   -7.4849   15.8612 C   0  0  0  0  0  0  0  0  0  0  0  0
    6.9104   -6.3698   16.5656 He  0  0  0  0  0  0  0  0  0  0  0  0
    4.2739   -7.8614   16.2789 He  0  0  0  0  0  0  0  0  0  0  0  0
   10.1765   -3.5908   23.1469 He  0  0  0  0  0  0  0  0  0  0  0  0
    4.8470   -6.7822   15.3561 He  0  0  0  0  0  0  0  0  0  0  0  0
   11.2964   -4.7500   18.4448 He  0  0  0  0  0  0  0  0  0  0  0  0
  1  9  4  0
  1 10  4  0
  2  4  4  0
  2  6  1  0
  2 13  2  0
  2 15  2  0
  2 18  1  0
  2 21  3  0
  3  6  4  0
  3  7  3  0
  3 17  4  0
  3 20  2  0
  3 21  1  0
  4  5  3  0
  4  6  4  0
  4 11  4  0
  4 14  4  0
  4 19  4  0
  5  6  2  0
  5 11  1  0
  5 12  2  0
  5 13  1  0
  5 15  4  0
  5 16  1  0
  6 16  3  0
  6 18  2  0
  7  9  2  0
  7 14  2  0
  7 17  2  0
  7 18  1  0
  8 12  1  0
  9 13  4  0
 10 15  4  0
 10 18  2  0
 10 21  4  0
 11 14  1  0
 11 16  3  0
 11 20  3  0
 12 18  2  0
 12 19  2  0
 12 21  4  0
 13 15  2  0
 13 17  4  0
 13 18  2  0
 13 21  1  0
 14 16  3  0
 15 16  2  0
 15 19  3  0
 16 21  3  0
 18 19  3  0
 19 20  2  0
M  END
$$$$

 Created by Python create_sdf_string function

 26 53  0  0  0  0  0  0  0  0999 V2000
   10.5828   -4.3690   20.6423 C   0  0  0  0  0  0  0  0  0  0  0  0
    7.7632   -6.1515   16.0028 C   0  0  0  0  0  0  0  0  0  0  0  0
   11.0276   -4.5775   18.3782 C   0  0  0  0  0  0  0  0  0  0  0  0
    3.9312   -8.5423   17.2876 P   0  0  0  0  0  0  0  0  0  0  0  0
    9.3580   -3.0870   16.7114 Cl  0  0  0  0  0  0  0  0  0  0  0  0
   11.2839   -3.0705   22.7775 C   0  0  0  0  0  0  0  0  0  0  0  0
    6.7059   -9.6462   17.0134 Cl  0  0  0  0  0  0  0  0  0  0  0  0
   10.2272   -3.5762   25.1288 N   0  0  0  0  0  0  0  0  0  0  0  0
   11.6101   -3.4348   19.9269 C   0  0  0  0  0  0  0  0  0  0  0  0
    5.3559   -6.7783   14.8441 C   0  0  0  0  0  0  0  0  0  0  0  0
   11.5859   -4.9848   20.7187 C   0  0  0  0  0  0  0  0  0  0  0  0
    9.2985   -6.8264   16.3943 S   0  0  0  0  0  0  0  0  0  0  0  0
    6.8900   -7.7960   17.2459 S   0  0  0  0  0  0  0  0  0  0  0  0
    9.7015   -5.3047   17.2486 C   0  0  0  0  0  0  0  0  0  0  0  0
    9.8733   -5.5985   19.4125 C   0  0  0  0  0  0  0  0  0  0  0  0
    6.7830   -8.3806   18.0152 C   0  0  0  0  0  0  0  0  0  0  0  0
   10.6650   -1.4810   24.4657 C   0  0  0  0  0  0  0  0  0  0  0  0
    5.8617   -8.2503   16.8599 F   0  0  0  0  0  0  0  0  0  0  0  0
   10.4626   -3.4306   17.1655 S   0  0  0  0  0  0  0  0  0  0  0  0
    9.9966   -5.3897   18.1363 C   0  0  0  0  0  0  0  0  0  0  0  0
   10.8214   -4.5423   24.4313 F   0  0  0  0  0  0  0  0  0  0  0  0
    6.5365   -7.1998   14.7905 C   0  0  0  0  0  0  0  0  0  0  0  0
    9.9555   -2.3651   24.9961 He  0  0  0  0  0  0  0  0  0  0  0  0
    8.8183   -7.5185   16.9540 He  0  0  0  0  0  0  0  0  0  0  0  0
   10.2671   -2.2406   22.7917 He  0  0  0  0  0  0  0  0  0  0  0  0
    4.8244   -7.7701   18.0918 He  0  0  0  0  0  0  0  0  0  0  0  0
  1  2  4  0
  1  4  2  0
  1  6  1  0
  1  9  4  0
  1 11  4  0
  2 17  1  0
  2 22  1  0
  3  4  1  0
  3  5  3  0
  3  7  4  0
  3  9  4  0
  3 20  4  0
  3 22  1  0
  4  5  4  0
  4  6  4  0
  4 10  1  0
  4 17  4  0
  5 11  2  0
  5 12  2  0
  5 14  4  0
  5 19  4  0
  6  7  1  0
  6  9  2  0
  6 10  1  0
  6 14  2  0
  6 21  4  0
  6 22  3  0
  7 10  3  0
  7 11  3  0
  7 13  1  0
  7 15  2  0
  7 16  1  0
  7 18  1  0
  7 22  2  0
  8 12  2  0
  8 13  1  0
  8 16  2  0
  8 22  2  0
 10 18  1  0
 10 22  1  0
 11 15  3  0
 12 14  1  0
 13 16  4  0
 13 22  1  0
 14 20  4  0
 15 16  2  0
 15 18  4  0
 15 19  2  0
 15 20  4  0
 15 22  3  0
 16 17  4  0
 16 18  1  0
 18 22  3  0
M  END
$$$$

 Created by Python create_sdf_string function

 26 51  0  0  0  0  0  0  0  0999 V2000
    8.0067   -5.5588   14.8890 C   0  0  0  0  0  0  0  0  0  0  0  0
   10.3841   -3.5396   19.0776 C   0  0  0  0  0  0  0  0  0  0  0  0
    3.8876   -8.4664   17.1632 N   0  0  0  0  0  0  0  0  0  0  0  0
    8.9050   -7.1639   16.9594 F   0  0  0  0  0  0  0  0  0  0  0  0
   11.2099   -3.6041   22.1068 C   0  0  0  0  0  0  0  0  0  0  0  0
    6.6482   -8.7748   17.1071 N   0  0  0  0  0  0  0  0  0  0  0  0
   10.3694   -2.4491   21.9784 C   0  0  0  0  0  0  0  0  0  0  0  0
   11.1732   -3.3744   24.8551 N   0  0  0  0  0  0  0  0  0  0  0  0
   11.3080   -3.3564   20.0219 C   0  0  0  0  0  0  0  0  0  0  0  0
    6.1635   -7.4251   15.3477 F   0  0  0  0  0  0  0  0  0  0  0  0
   10.9872   -5.5082   21.2069 C   0  0  0  0  0  0  0  0  0  0  0  0
    9.0460   -6.5732   16.4846 C   0  0  0  0  0  0  0  0  0  0  0  0
    4.3753   -7.9536   17.2048 C   0  0  0  0  0  0  0  0  0  0  0  0
    7.9035   -8.4393   16.4148 C   0  0  0  0  0  0  0  0  0  0  0  0
    9.7585   -5.7309   16.9059 C   0  0  0  0  0  0  0  0  0  0  0  0
   10.2735   -5.5984   20.0185 C   0  0  0  0  0  0  0  0  0  0  0  0
    6.8911   -7.7809   18.2287 C   0  0  0  0  0  0  0  0  0  0  0  0
    9.9730   -1.2570   23.5062 C   0  0  0  0  0  0  0  0  0  0  0  0
    5.2682   -8.4230   16.4016 C   0  0  0  0  0  0  0  0  0  0  0  0
   10.3990   -3.2201   17.0949 P   0  0  0  0  0  0  0  0  0  0  0  0
   10.2667   -4.8443   17.9704 C   0  0  0  0  0  0  0  0  0  0  0  0
   10.9834   -4.1304   23.5684 Br  0  0  0  0  0  0  0  0  0  0  0  0
    6.9556   -7.3490   15.8398 C   0  0  0  0  0  0  0  0  0  0  0  0
   11.1812   -3.6572   21.9916 He  0  0  0  0  0  0  0  0  0  0  0  0
    9.9828   -2.0883   24.6911 He  0  0  0  0  0  0  0  0  0  0  0  0
   10.5901   -4.2219   16.2659 He  0  0  0  0  0  0  0  0  0  0  0  0
  1 18  4  0
  1 21  4  0
  1 23  1  0
  2  3  2  0
  2  9  4  0
  2 20  4  0
  2 21  4  0
  2 23  4  0
  3  4  3  0
  3  5  3  0
  3 12  1  0
  3 13  1  0
  3 14  1  0
  4  7  4  0
  4 11  2  0
  4 14  1  0
  4 21  1  0
  4 22  4  0
  5  7  4  0
  5  9  2  0
  5 14  4  0
  5 16  1  0
  5 18  2  0
  6 13  1  0
  6 14  2  0
  6 17  1  0
  6 21  2  0
  6 22  4  0
  7  9  2  0
  7 16  3  0
  7 18  4  0
  8 22  4  0
  9 11  2  0
  9 13  1  0
 10 19  1  0
 10 23  1  0
 11 12  4  0
 11 16  4  0
 12 15  1  0
 12 16  3  0
 13 19  1  0
 14 15  1  0
 14 16  3  0
 14 17  1  0
 15 21  4  0
 16 21  4  0
 17 18  1  0
 17 19  3  0
 17 21  1  0
 18 19  4  0
 18 21  4  0
M  END
$$$$

 Created by Python create_sdf_string function

 26 32  0  0  0  0  0  0  0  0999 V2000
   11.2195   -4.2445   19.2437 S   0  0  0  0  0  0  0  0  0  0  0  0
   10.3001   -2.0566   24.8433 C   0  0  0  0  0  0  0  0  0  0  0  0
    3.8171   -8.9556   17.3652 N   0  0  0  0  0  0  0  0  0  0  0  0
   10.3014   -4.3568   16.2099 C   0  0  0  0  0  0  0  0  0  0  0  0
    9.0264   -7.7352   17.2317 C   0  0  0  0  0  0  0  0  0  0  0  0
   10.5432   -4.1123   22.2935 C   0  0  0  0  0  0  0  0  0  0  0  0
    5.8767   -9.0997   16.7979 C   0  0  0  0  0  0  0  0  0  0  0  0
   10.3969   -2.7402   22.3240 C   0  0  0  0  0  0  0  0  0  0  0  0
   11.4493   -3.0236   24.7719 C   0  0  0  0  0  0  0  0  0  0  0  0
   10.6301   -5.8055   21.4662 C   0  0  0  0  0  0  0  0  0  0  0  0
    9.1760   -6.3624   16.3801 C   0  0  0  0  0  0  0  0  0  0  0  0
    9.7112   -4.7032   17.1555 F   0  0  0  0  0  0  0  0  0  0  0  0
    9.9832   -1.2826   24.0234 C   0  0  0  0  0  0  0  0  0  0  0  0
    4.9877   -8.5287   16.7902 C   0  0  0  0  0  0  0  0  0  0  0  0
   10.5467   -3.4832   16.8458 N   0  0  0  0  0  0  0  0  0  0  0  0
   10.3891   -5.2075   18.7287 C   0  0  0  0  0  0  0  0  0  0  0  0
   11.1478   -4.3650   23.7420 C   0  0  0  0  0  0  0  0  0  0  0  0
    8.0211   -6.9736   15.7039 C   0  0  0  0  0  0  0  0  0  0  0  0
   10.9643   -3.6187   21.3858 He  0  0  0  0  0  0  0  0  0  0  0  0
    8.2932   -5.2712   15.4787 He  0  0  0  0  0  0  0  0  0  0  0  0
   11.0848   -3.4905   20.6251 He  0  0  0  0  0  0  0  0  0  0  0  0
    5.2889   -7.3107   14.2307 He  0  0  0  0  0  0  0  0  0  0  0  0
    5.0249   -8.3351   17.3863 He  0  0  0  0  0  0  0  0  0  0  0  0
    7.5648   -8.6100   17.0651 He  0  0  0  0  0  0  0  0  0  0  0  0
    9.9193   -5.3093   19.4038 He  0  0  0  0  0  0  0  0  0  0  0  0
    7.3831   -8.3791   17.9076 He  0  0  0  0  0  0  0  0  0  0  0  0
  1  7  2  0
  1 16  4  0
  1 18  1  0
  2  4  2  0
  2  9  4  0
  3  7  2  0
  3  8  4  0
  3 15  4  0
  4  9  2  0
  4 11  3  0
  4 12  3  0
  4 15  4  0
  4 17  1  0
  6  7  1  0
  6  8  4  0
  6 13  4  0
  6 17  4  0
  7  8  2  0
  7 10  3  0
  7 11  1  0
  7 14  1  0
  7 18  2  0
  8 11  2  0
  8 13  4  0
  8 17  4  0
  9 17  4  0
 10 15  2  0
 11 12  1  0
 11 15  2  0
 12 15  4  0
 12 16  4  0
 16 18  1  0
M  END
$$$$

 Created by Python create_sdf_string function

 26 38  0  0  0  0  0  0  0  0999 V2000
   11.0627   -4.3224   21.3001 C   0  0  0  0  0  0  0  0  0  0  0  0
    7.8802   -6.0663   15.9316 F   0  0  0  0  0  0  0  0  0  0  0  0
   11.3452   -3.7398   18.6766 C   0  0  0  0  0  0  0  0  0  0  0  0
   10.2228   -2.2306   25.4660 C   0  0  0  0  0  0  0  0  0  0  0  0
    9.8210   -3.4042   16.6466 C   0  0  0  0  0  0  0  0  0  0  0  0
    9.2883   -7.4376   18.1095 C   0  0  0  0  0  0  0  0  0  0  0  0
   10.6549   -3.9841   22.2551 C   0  0  0  0  0  0  0  0  0  0  0  0
    6.1879   -8.8758   16.8262 C   0  0  0  0  0  0  0  0  0  0  0  0
   10.8151   -2.1021   23.0074 C   0  0  0  0  0  0  0  0  0  0  0  0
   11.3399   -3.3547   24.7281 C   0  0  0  0  0  0  0  0  0  0  0  0
   10.9312   -5.8456   20.3957 C   0  0  0  0  0  0  0  0  0  0  0  0
    9.1334   -5.6624   16.5569 O   0  0  0  0  0  0  0  0  0  0  0  0
    4.5821   -8.3285   17.0544 C   0  0  0  0  0  0  0  0  0  0  0  0
    7.8883   -7.8119   17.0359 Se  0  0  0  0  0  0  0  0  0  0  0  0
    9.6429   -4.9530   17.0854 I   0  0  0  0  0  0  0  0  0  0  0  0
   10.4923   -5.6328   19.2969 N   0  0  0  0  0  0  0  0  0  0  0  0
    7.2293   -8.5435   17.7259 C   0  0  0  0  0  0  0  0  0  0  0  0
    4.8273   -8.0911   16.0519 C   0  0  0  0  0  0  0  0  0  0  0  0
   10.3397   -5.1618   18.5394 C   0  0  0  0  0  0  0  0  0  0  0  0
   11.2388   -4.1216   24.1130 C   0  0  0  0  0  0  0  0  0  0  0  0
    7.4860   -6.7757   15.2213 C   0  0  0  0  0  0  0  0  0  0  0  0
    3.7246   -8.7328   16.8738 He  0  0  0  0  0  0  0  0  0  0  0  0
   11.3281   -2.8759   20.5642 He  0  0  0  0  0  0  0  0  0  0  0  0
    5.9883   -7.9686   14.7940 He  0  0  0  0  0  0  0  0  0  0  0  0
   10.2309   -1.2378   23.5201 He  0  0  0  0  0  0  0  0  0  0  0  0
   10.8539   -3.7266   16.4676 He  0  0  0  0  0  0  0  0  0  0  0  0
  1  7  1  0
  1 11  4  0
  1 13  2  0
  1 19  4  0
  2  4  3  0
  2  9  1  0
  2 18  2  0
  2 21  1  0
  3 19  4  0
  3 21  1  0
  4 10  2  0
  5 10  3  0
  5 15  4  0
  6 12  1  0
  6 14  1  0
  6 16  4  0
  6 21  2  0
  7  9  4  0
  7 17  1  0
  7 20  4  0
  8 17  1  0
  8 18  1  0
  9 14  2  0
  9 15  2  0
  9 18  4  0
 10 21  2  0
 11 15  4  0
 11 16  4  0
 11 18  2  0
 12 15  3  0
 12 19  1  0
 13 15  1  0
 13 17  2  0
 13 18  1  0
 14 21  1  0
 15 19  4  0
 16 19  4  0
 16 20  3  0
M  END
$$$$

 Created by Python create_sdf_string function

 26 52  0  0  0  0  0  0  0  0999 V2000
   10.6906   -4.9536   21.5217 C   0  0  0  0  0  0  0  0  0  0  0  0
    8.2346   -5.5938   15.8346 N   0  0  0  0  0  0  0  0  0  0  0  0
   10.1240   -2.3264   25.1236 C   0  0  0  0  0  0  0  0  0  0  0  0
    9.8070   -3.7371   16.7066 C   0  0  0  0  0  0  0  0  0  0  0  0
    8.6725   -7.9442   17.4095 O   0  0  0  0  0  0  0  0  0  0  0  0
   10.8689   -3.0144   22.2077 C   0  0  0  0  0  0  0  0  0  0  0  0
    5.9637   -8.6639   16.7952 Cl  0  0  0  0  0  0  0  0  0  0  0  0
   10.3505   -2.4037   22.7665 C   0  0  0  0  0  0  0  0  0  0  0  0
   10.6961   -3.8878   24.4786 O   0  0  0  0  0  0  0  0  0  0  0  0
   11.5448   -2.5781   19.6533 C   0  0  0  0  0  0  0  0  0  0  0  0
    6.1991   -7.6814   16.1175 C   0  0  0  0  0  0  0  0  0  0  0  0
    9.4060   -5.9040   17.3202 C   0  0  0  0  0  0  0  0  0  0  0  0
    4.9197   -8.8742   16.9040 F   0  0  0  0  0  0  0  0  0  0  0  0
    7.8723   -7.6042   16.9692 C   0  0  0  0  0  0  0  0  0  0  0  0
   10.5693   -6.3770   19.3116 N   0  0  0  0  0  0  0  0  0  0  0  0
    7.7272   -8.3055   18.0800 C   0  0  0  0  0  0  0  0  0  0  0  0
   10.2682   -1.4663   23.5941 C   0  0  0  0  0  0  0  0  0  0  0  0
    5.4483   -7.7315   16.4358 C   0  0  0  0  0  0  0  0  0  0  0  0
   10.8005   -3.2002   17.7150 S   0  0  0  0  0  0  0  0  0  0  0  0
   10.9284   -4.8908   18.5352 C   0  0  0  0  0  0  0  0  0  0  0  0
   11.7680   -4.3334   23.5834 C   0  0  0  0  0  0  0  0  0  0  0  0
    7.1588   -6.5585   15.2696 N   0  0  0  0  0  0  0  0  0  0  0  0
   11.4166   -4.2657   18.8683 He  0  0  0  0  0  0  0  0  0  0  0  0
    3.1642   -8.8062   16.5746 He  0  0  0  0  0  0  0  0  0  0  0  0
   10.7951   -4.7727   20.8561 He  0  0  0  0  0  0  0  0  0  0  0  0
    9.7309   -4.8875   17.4773 He  0  0  0  0  0  0  0  0  0  0  0  0
  1  4  3  0
  1  5  4  0
  1 10  4  0
  2 12  1  0
  2 18  2  0
  2 22  1  0
  3  6  2  0
  3  9  4  0
  3 13  2  0
  3 14  4  0
  3 17  4  0
  4  8  1  0
  4 11  1  0
  4 15  4  0
  4 19  4  0
  4 20  4  0
  5 12  1  0
  5 20  1  0
  5 22  3  0
  6  8  4  0
  6 11  1  0
  6 17  3  0
  6 21  4  0
  6 22  3  0
  7 12  2  0
  7 13  1  0
  7 16  1  0
  7 18  1  0
  7 20  1  0
  8  9  2  0
  8 10  2  0
  8 17  4  0
  8 18  1  0
  8 19  3  0
  9 14  1  0
  9 21  4  0
 10 22  1  0
 11 18  1  0
 11 22  1  0
 12 20  1  0
 13 18  1  0
 13 21  1  0
 14 16  1  0
 14 21  2  0
 15 16  4  0
 15 19  3  0
 15 20  4  0
 15 22  1  0
 16 18  4  0
 16 19  1  0
 19 20  2  0
 19 21  1  0
M  END
$$$$

 Created by Python create_sdf_string function

 26 36  0  0  0  0  0  0  0  0999 V2000
   11.3509   -3.8487   21.4316 Cl  0  0  0  0  0  0  0  0  0  0  0  0
    7.9896   -5.1890   15.4330 N   0  0  0  0  0  0  0  0  0  0  0  0
   11.1824   -3.8884   19.0095 C   0  0  0  0  0  0  0  0  0  0  0  0
   10.3322   -1.9272   24.8036 C   0  0  0  0  0  0  0  0  0  0  0  0
    3.5817   -9.4160   17.0079 N   0  0  0  0  0  0  0  0  0  0  0  0
   10.0050   -3.3126   16.4531 P   0  0  0  0  0  0  0  0  0  0  0  0
    8.5147   -6.8822   17.5927 O   0  0  0  0  0  0  0  0  0  0  0  0
   10.6088   -1.9425   22.3362 C   0  0  0  0  0  0  0  0  0  0  0  0
   10.6407   -3.5729   24.3810 C   0  0  0  0  0  0  0  0  0  0  0  0
   11.1796   -2.9354   19.9856 N   0  0  0  0  0  0  0  0  0  0  0  0
    6.8753   -7.4254   15.9709 C   0  0  0  0  0  0  0  0  0  0  0  0
   10.5897   -5.2070   20.8099 C   0  0  0  0  0  0  0  0  0  0  0  0
    8.4452   -5.8002   16.5435 C   0  0  0  0  0  0  0  0  0  0  0  0
    4.5364   -8.4235   17.3106 N   0  0  0  0  0  0  0  0  0  0  0  0
    9.7836   -4.9049   17.1066 C   0  0  0  0  0  0  0  0  0  0  0  0
   10.2940   -6.2528   19.7270 F   0  0  0  0  0  0  0  0  0  0  0  0
    7.4379   -8.1413   17.1871 C   0  0  0  0  0  0  0  0  0  0  0  0
   10.4360   -2.1544   23.9010 C   0  0  0  0  0  0  0  0  0  0  0  0
    5.4067   -7.3734   15.7505 C   0  0  0  0  0  0  0  0  0  0  0  0
   11.4440   -3.2793   17.6407 N   0  0  0  0  0  0  0  0  0  0  0  0
   10.5986   -4.6965   19.0016 C   0  0  0  0  0  0  0  0  0  0  0  0
   11.2875   -4.3831   23.5945 N   0  0  0  0  0  0  0  0  0  0  0  0
    7.2254   -7.0460   15.6755 C   0  0  0  0  0  0  0  0  0  0  0  0
   10.0243   -3.0192   22.5368 He  0  0  0  0  0  0  0  0  0  0  0  0
    5.6584   -9.5448   17.6404 He  0  0  0  0  0  0  0  0  0  0  0  0
    7.5966   -7.6370   16.7866 He  0  0  0  0  0  0  0  0  0  0  0  0
  1  8  2  0
  1 12  2  0
  1 21  1  0
  2 13  1  0
  2 15  4  0
  2 20  1  0
  2 23  1  0
  3 11  1  0
  3 14  1  0
  3 20  4  0
  3 21  4  0
  4  9  4  0
  4 23  4  0
  5  9  3  0
  5 14  1  0
  5 20  4  0
  6 14  1  0
  6 18  3  0
  6 20  4  0
  6 21  2  0
  6 23  1  0
  7 13  1  0
  8 18  4  0
  9 22  4  0
 10 11  2  0
 10 14  2  0
 10 22  1  0
 11 15  2  0
 12 16  4  0
 12 17  2  0
 13 15  1  0
 14 19  1  0
 15 21  4  0
 16 19  3  0
 16 21  4  0
 17 22  1  0
M  END
$$$$

 Created by Python create_sdf_string function

 26 38  0  0  0  0  0  0  0  0999 V2000
   10.6175   -4.1490   20.9092 C   0  0  0  0  0  0  0  0  0  0  0  0
    7.8176   -5.5412   16.0033 N   0  0  0  0  0  0  0  0  0  0  0  0
   10.8228   -3.8460   18.7277 C   0  0  0  0  0  0  0  0  0  0  0  0
   10.9270   -2.1590   25.1383 C   0  0  0  0  0  0  0  0  0  0  0  0
    3.5731   -8.6711   16.8606 N   0  0  0  0  0  0  0  0  0  0  0  0
   10.4755   -3.4596   16.0674 C   0  0  0  0  0  0  0  0  0  0  0  0
    8.6926   -6.9111   17.6626 O   0  0  0  0  0  0  0  0  0  0  0  0
   10.6007   -3.4637   22.4129 C   0  0  0  0  0  0  0  0  0  0  0  0
    5.9422   -9.2188   17.0435 C   0  0  0  0  0  0  0  0  0  0  0  0
   10.8851   -1.7554   22.5753 C   0  0  0  0  0  0  0  0  0  0  0  0
   11.3595   -2.9766   20.5331 N   0  0  0  0  0  0  0  0  0  0  0  0
    7.0851   -7.2616   15.8478 C   0  0  0  0  0  0  0  0  0  0  0  0
    8.9111   -6.4041   17.1660 C   0  0  0  0  0  0  0  0  0  0  0  0
    4.9097   -8.6739   16.9769 C   0  0  0  0  0  0  0  0  0  0  0  0
    6.7723   -7.4356   17.0283 C   0  0  0  0  0  0  0  0  0  0  0  0
    9.4875   -5.0667   17.2598 C   0  0  0  0  0  0  0  0  0  0  0  0
   10.3080   -5.9051   19.8051 C   0  0  0  0  0  0  0  0  0  0  0  0
    6.7432   -9.1681   17.4469 C   0  0  0  0  0  0  0  0  0  0  0  0
    9.7512   -1.5071   23.5946 C   0  0  0  0  0  0  0  0  0  0  0  0
    5.4376   -8.0895   15.7994 C   0  0  0  0  0  0  0  0  0  0  0  0
   10.1564   -5.1945   18.6622 C   0  0  0  0  0  0  0  0  0  0  0  0
    7.5012   -6.1298   15.2932 C   0  0  0  0  0  0  0  0  0  0  0  0
   10.7274   -3.4113   25.0110 He  0  0  0  0  0  0  0  0  0  0  0  0
   10.3257   -5.4192   21.1038 He  0  0  0  0  0  0  0  0  0  0  0  0
   10.4837   -3.4866   17.9701 He  0  0  0  0  0  0  0  0  0  0  0  0
   10.6761   -3.8831   23.9203 He  0  0  0  0  0  0  0  0  0  0  0  0
  1  4  1  0
  1  9  4  0
  1 11  4  0
  1 13  2  0
  1 16  3  0
  1 18  2  0
  2  9  3  0
  2 13  1  0
  2 19  1  0
  2 22  1  0
  3 11  4  0
  3 19  4  0
  4  5  4  0
  4 13  3  0
  4 14  3  0
  4 19  4  0
  5 14  1  0
  6 16  4  0
  7 13  1  0
  7 15  1  0
  7 19  1  0
  8 10  4  0
  8 12  1  0
  8 21  3  0
  9 18  2  0
 10 19  4  0
 11 15  1  0
 11 17  2  0
 11 20  3  0
 12 15  2  0
 12 19  2  0
 12 20  1  0
 12 22  1  0
 13 16  1  0
 14 15  3  0
 14 20  2  0
 15 18  1  0
 16 21  4  0
M  END
$$$$

 Created by Python create_sdf_string function

 26 44  0  0  0  0  0  0  0  0999 V2000
   11.0327   -3.9032   21.3762 C   0  0  0  0  0  0  0  0  0  0  0  0
    7.8988   -6.3086   15.7519 N   0  0  0  0  0  0  0  0  0  0  0  0
   10.2135   -1.6415   25.1121 P   0  0  0  0  0  0  0  0  0  0  0  0
    3.6016   -8.2226   16.8998 N   0  0  0  0  0  0  0  0  0  0  0  0
   10.2854   -3.9861   16.2075 C   0  0  0  0  0  0  0  0  0  0  0  0
    8.4806   -6.8544   17.3188 O   0  0  0  0  0  0  0  0  0  0  0  0
   10.6045   -3.2903   22.4714 C   0  0  0  0  0  0  0  0  0  0  0  0
    5.1584   -9.2109   17.6138 C   0  0  0  0  0  0  0  0  0  0  0  0
   10.6082   -1.7490   22.8511 S   0  0  0  0  0  0  0  0  0  0  0  0
   10.7523   -3.1955   24.8053 N   0  0  0  0  0  0  0  0  0  0  0  0
    6.4958   -7.6924   16.1426 C   0  0  0  0  0  0  0  0  0  0  0  0
   10.7584   -5.0075   20.5078 C   0  0  0  0  0  0  0  0  0  0  0  0
    8.7406   -5.9820   16.8889 C   0  0  0  0  0  0  0  0  0  0  0  0
    4.7333   -8.5990   16.4110 C   0  0  0  0  0  0  0  0  0  0  0  0
    7.2119   -7.7157   17.2122 C   0  0  0  0  0  0  0  0  0  0  0  0
    9.6808   -5.2859   17.7350 C   0  0  0  0  0  0  0  0  0  0  0  0
   10.4053   -5.8257   19.0783 C   0  0  0  0  0  0  0  0  0  0  0  0
    6.9832   -8.7864   17.8135 C   0  0  0  0  0  0  0  0  0  0  0  0
   10.1212   -1.7034   23.8174 Se  0  0  0  0  0  0  0  0  0  0  0  0
   10.9849   -3.5088   17.5617 P   0  0  0  0  0  0  0  0  0  0  0  0
    9.8792   -5.0065   18.4165 C   0  0  0  0  0  0  0  0  0  0  0  0
   11.5046   -3.7544   23.9329 C   0  0  0  0  0  0  0  0  0  0  0  0
    7.0701   -6.6271   15.3205 C   0  0  0  0  0  0  0  0  0  0  0  0
   10.5987   -4.3971   18.4417 He  0  0  0  0  0  0  0  0  0  0  0  0
   11.1767   -3.4771   19.9486 He  0  0  0  0  0  0  0  0  0  0  0  0
    5.5329   -7.8450   16.0443 He  0  0  0  0  0  0  0  0  0  0  0  0
  1  3  4  0
  1  7  1  0
  1 12  4  0
  1 13  1  0
  2 17  2  0
  2 21  2  0
  3 10  4  0
  3 20  4  0
  4 14  1  0
  4 19  2  0
  5 16  4  0
  5 20  4  0
  5 22  3  0
  6  8  2  0
  6 13  1  0
  7  9  4  0
  7 13  2  0
  7 22  4  0
  8 14  1  0
  8 15  3  0
  8 16  2  0
  8 18  2  0
  9 19  4  0
  9 21  2  0
 10 11  3  0
 10 13  2  0
 10 20  4  0
 10 22  4  0
 11 15  2  0
 11 20  3  0
 11 23  1  0
 12 17  4  0
 12 23  3  0
 13 16  1  0
 13 17  4  0
 14 15  3  0
 14 22  3  0
 15 18  1  0
 16 18  4  0
 16 21  3  0
 17 20  4  0
 17 21  4  0
 18 23  1  0
 19 21  4  0
M  END
$$$$

 Created by Python create_sdf_string function

 26 43  0  0  0  0  0  0  0  0999 V2000
   11.6148   -3.8815   21.8133 C   0  0  0  0  0  0  0  0  0  0  0  0
    7.9336   -6.0613   16.0928 N   0  0  0  0  0  0  0  0  0  0  0  0
   10.5855   -3.1758   18.7944 C   0  0  0  0  0  0  0  0  0  0  0  0
    3.3182   -8.8807   16.9865 F   0  0  0  0  0  0  0  0  0  0  0  0
   10.3029   -3.7554   16.6944 N   0  0  0  0  0  0  0  0  0  0  0  0
    7.9538   -7.1772   17.1931 O   0  0  0  0  0  0  0  0  0  0  0  0
   10.9682   -2.9489   22.5319 C   0  0  0  0  0  0  0  0  0  0  0  0
    5.7683   -9.3573   18.1810 C   0  0  0  0  0  0  0  0  0  0  0  0
    9.9231   -2.5547   22.8799 C   0  0  0  0  0  0  0  0  0  0  0  0
   10.4705   -3.3430   25.1024 N   0  0  0  0  0  0  0  0  0  0  0  0
    6.1273   -7.7081   16.1155 C   0  0  0  0  0  0  0  0  0  0  0  0
   11.0305   -5.5296   21.1204 C   0  0  0  0  0  0  0  0  0  0  0  0
    8.6665   -5.6903   16.8132 C   0  0  0  0  0  0  0  0  0  0  0  0
    4.5005   -7.9513   16.1490 C   0  0  0  0  0  0  0  0  0  0  0  0
    7.1948   -7.0107   17.2683 C   0  0  0  0  0  0  0  0  0  0  0  0
    9.7259   -4.9930   17.1611 C   0  0  0  0  0  0  0  0  0  0  0  0
   10.6594   -6.0770   19.5781 C   0  0  0  0  0  0  0  0  0  0  0  0
    6.0482   -9.2018   17.9235 C   0  0  0  0  0  0  0  0  0  0  0  0
    9.3526   -0.9352   24.0177 C   0  0  0  0  0  0  0  0  0  0  0  0
    5.2532   -8.0302   15.9606 C   0  0  0  0  0  0  0  0  0  0  0  0
   10.6420   -5.2039   18.8316 C   0  0  0  0  0  0  0  0  0  0  0  0
   11.3688   -3.7510   24.1262 C   0  0  0  0  0  0  0  0  0  0  0  0
    7.0313   -6.5104   14.8304 C   0  0  0  0  0  0  0  0  0  0  0  0
   10.3877   -2.2693   24.9860 He  0  0  0  0  0  0  0  0  0  0  0  0
   10.6802   -3.4551   19.5445 He  0  0  0  0  0  0  0  0  0  0  0  0
   10.4966   -3.6804   17.3672 He  0  0  0  0  0  0  0  0  0  0  0  0
  1  6  4  0
  1  7  2  0
  1 12  4  0
  2 13  2  0
  2 15  3  0
  2 20  3  0
  2 23  2  0
  3  5  2  0
  3  9  1  0
  3 15  3  0
  3 17  1  0
  3 21  4  0
  3 23  3  0
  4 14  1  0
  4 18  2  0
  5 11  1  0
  5 16  4  0
  5 21  3  0
  6 13  1  0
  6 15  1  0
  7 22  1  0
  8 14  1  0
  8 18  2  0
  8 19  2  0
  9 13  3  0
  9 15  1  0
  9 17  4  0
  9 19  4  0
 10 21  1  0
 10 22  4  0
 11 15  2  0
 11 23  4  0
 12 17  4  0
 12 20  3  0
 13 16  1  0
 14 20  2  0
 15 17  3  0
 15 18  1  0
 16 20  3  0
 16 21  4  0
 17 20  3  0
 17 21  4  0
 20 21  3  0
M  END
$$$$

 Created by Python create_sdf_string function

 26 44  0  0  0  0  0  0  0  0999 V2000
   11.0026   -3.7090   20.7152 C   0  0  0  0  0  0  0  0  0  0  0  0
   10.7838   -3.3743   18.9074 C   0  0  0  0  0  0  0  0  0  0  0  0
   10.7057   -2.5358   25.0295 C   0  0  0  0  0  0  0  0  0  0  0  0
    2.9154   -9.2627   16.6573 N   0  0  0  0  0  0  0  0  0  0  0  0
   10.5441   -3.8426   16.8122 N   0  0  0  0  0  0  0  0  0  0  0  0
    8.0963   -6.8316   17.6718 O   0  0  0  0  0  0  0  0  0  0  0  0
   10.5710   -3.5030   22.6163 C   0  0  0  0  0  0  0  0  0  0  0  0
    5.1319   -9.0397   18.1205 C   0  0  0  0  0  0  0  0  0  0  0  0
   10.7027   -3.6396   24.5862 N   0  0  0  0  0  0  0  0  0  0  0  0
   11.0688   -3.1033   20.2689 C   0  0  0  0  0  0  0  0  0  0  0  0
    6.5094   -6.5944   15.8704 C   0  0  0  0  0  0  0  0  0  0  0  0
   11.1221   -5.6863   21.3834 C   0  0  0  0  0  0  0  0  0  0  0  0
    8.1092   -5.7145   16.6119 P   0  0  0  0  0  0  0  0  0  0  0  0
    4.0909   -9.0783   16.8037 Cl  0  0  0  0  0  0  0  0  0  0  0  0
    6.5893   -7.4605   17.4816 F   0  0  0  0  0  0  0  0  0  0  0  0
    9.2847   -5.0543   17.8588 C   0  0  0  0  0  0  0  0  0  0  0  0
   10.6429   -5.7764   19.7336 C   0  0  0  0  0  0  0  0  0  0  0  0
    6.4075   -8.7383   17.8381 C   0  0  0  0  0  0  0  0  0  0  0  0
    9.6595   -1.4378   24.1527 C   0  0  0  0  0  0  0  0  0  0  0  0
   10.4983   -3.3156   17.5415 N   0  0  0  0  0  0  0  0  0  0  0  0
   11.0456   -3.9494   24.1171 C   0  0  0  0  0  0  0  0  0  0  0  0
    7.0187   -6.5196   15.5287 C   0  0  0  0  0  0  0  0  0  0  0  0
    8.3848   -5.3907   15.5150 He  0  0  0  0  0  0  0  0  0  0  0  0
   10.1849   -1.6994   22.9141 He  0  0  0  0  0  0  0  0  0  0  0  0
    5.7085   -7.3381   15.9465 He  0  0  0  0  0  0  0  0  0  0  0  0
    9.9000   -4.8037   18.6468 He  0  0  0  0  0  0  0  0  0  0  0  0
  1  7  1  0
  1  9  1  0
  1 10  4  0
  1 12  1  0
  1 20  3  0
  2 10  2  0
  2 20  4  0
  3  9  4  0
  3 10  2  0
  3 19  4  0
  4 14  1  0
  4 22  3  0
  5 14  1  0
  5 16  4  0
  5 17  1  0
  6 13  1  0
  6 14  3  0
  6 15  2  0
  6 18  2  0
  6 20  4  0
  6 22  2  0
  7  8  4  0
  7 11  3  0
  7 13  4  0
  7 21  4  0
  8 14  1  0
  8 18  2  0
  9 20  3  0
  9 21  4  0
  9 22  4  0
 10 22  3  0
 11 15  2  0
 11 16  1  0
 11 17  4  0
 11 22  1  0
 12 15  3  0
 12 21  3  0
 13 16  4  0
 14 17  2  0
 14 19  1  0
 14 21  2  0
 15 18  1  0
 16 20  1  0
 18 20  1  0
M  END
$$$$

 Created by Python create_sdf_string function

 26 44  0  0  0  0  0  0  0  0999 V2000
   11.0067   -3.7825   20.7746 C   0  0  0  0  0  0  0  0  0  0  0  0
    8.3065   -6.0876   15.3620 C   0  0  0  0  0  0  0  0  0  0  0  0
   10.5886   -3.2361   18.7593 C   0  0  0  0  0  0  0  0  0  0  0  0
    9.8858   -2.1342   25.1165 O   0  0  0  0  0  0  0  0  0  0  0  0
    3.7667   -8.9834   16.5324 N   0  0  0  0  0  0  0  0  0  0  0  0
    9.8765   -3.9175   16.8557 N   0  0  0  0  0  0  0  0  0  0  0  0
    9.1755   -6.9090   17.8696 O   0  0  0  0  0  0  0  0  0  0  0  0
   10.5313   -3.6141   22.7654 C   0  0  0  0  0  0  0  0  0  0  0  0
    5.0834   -9.3610   17.5548 C   0  0  0  0  0  0  0  0  0  0  0  0
   10.0527   -2.3874   22.5982 C   0  0  0  0  0  0  0  0  0  0  0  0
   10.9383   -3.6317   24.6722 N   0  0  0  0  0  0  0  0  0  0  0  0
   10.9780   -3.1279   20.2597 C   0  0  0  0  0  0  0  0  0  0  0  0
    6.6345   -7.2817   15.8234 C   0  0  0  0  0  0  0  0  0  0  0  0
   10.2963   -5.2989   20.8760 C   0  0  0  0  0  0  0  0  0  0  0  0
    8.4938   -5.6813   16.4824 C   0  0  0  0  0  0  0  0  0  0  0  0
    4.2386   -8.5314   16.4566 C   0  0  0  0  0  0  0  0  0  0  0  0
    6.9054   -7.0512   17.3779 C   0  0  0  0  0  0  0  0  0  0  0  0
    9.5806   -5.5728   17.3768 C   0  0  0  0  0  0  0  0  0  0  0  0
    6.6742   -8.0442   18.4769 C   0  0  0  0  0  0  0  0  0  0  0  0
   10.0180   -1.7961   24.1518 C   0  0  0  0  0  0  0  0  0  0  0  0
   11.1168   -3.3280   17.6300 C   0  0  0  0  0  0  0  0  0  0  0  0
   10.2685   -4.6982   18.7617 C   0  0  0  0  0  0  0  0  0  0  0  0
   10.6810   -4.2566   24.0236 C   0  0  0  0  0  0  0  0  0  0  0  0
    6.9794   -6.5304   15.0064 C   0  0  0  0  0  0  0  0  0  0  0  0
   10.4169   -5.6878   20.0347 He  0  0  0  0  0  0  0  0  0  0  0  0
    5.0200   -8.1574   15.6306 He  0  0  0  0  0  0  0  0  0  0  0  0
  1 12  4  0
  1 13  3  0
  1 14  4  0
  1 17  4  0
  1 23  2  0
  2  9  2  0
  2 12  3  0
  2 15  2  0
  2 19  4  0
  2 20  3  0
  2 22  4  0
  3 12  4  0
  3 21  4  0
  3 22  4  0
  4  9  1  0
  4 11  4  0
  4 15  3  0
  4 16  1  0
  4 18  4  0
  4 20  4  0
  4 22  1  0
  5 16  1  0
  5 24  2  0
  6  9  4  0
  6 18  4  0
  6 21  4  0
  7 15  1  0
  7 17  2  0
  8 18  2  0
  8 23  4  0
  9 14  1  0
  9 19  2  0
  9 21  4  0
 10 20  2  0
 11 19  2  0
 11 23  4  0
 12 13  4  0
 12 24  4  0
 13 24  1  0
 14 20  2  0
 15 18  3  0
 17 19  1  0
 17 23  2  0
 18 22  4  0
M  END
$$$$

 Created by Python create_sdf_string function

 26 44  0  0  0  0  0  0  0  0999 V2000
   10.7130   -3.9902   21.3887 C   0  0  0  0  0  0  0  0  0  0  0  0
    8.0228   -5.7129   15.5047 C   0  0  0  0  0  0  0  0  0  0  0  0
   10.4788   -2.8322   24.8447 C   0  0  0  0  0  0  0  0  0  0  0  0
    3.3443   -8.8708   16.7498 N   0  0  0  0  0  0  0  0  0  0  0  0
    8.1835   -7.2154   17.9651 O   0  0  0  0  0  0  0  0  0  0  0  0
   10.4795   -3.1493   22.5238 C   0  0  0  0  0  0  0  0  0  0  0  0
    5.2785   -8.5591   17.7411 C   0  0  0  0  0  0  0  0  0  0  0  0
   10.6850   -3.6344   25.1591 N   0  0  0  0  0  0  0  0  0  0  0  0
   10.9141   -2.9150   20.4351 C   0  0  0  0  0  0  0  0  0  0  0  0
    6.8151   -7.1447   16.0716 C   0  0  0  0  0  0  0  0  0  0  0  0
   10.6848   -5.5145   21.1232 C   0  0  0  0  0  0  0  0  0  0  0  0
    4.3624   -8.7349   16.1292 C   0  0  0  0  0  0  0  0  0  0  0  0
    6.8654   -7.3562   17.0163 C   0  0  0  0  0  0  0  0  0  0  0  0
    9.8638   -5.0286   17.5773 Cl  0  0  0  0  0  0  0  0  0  0  0  0
   10.5113   -5.5687   19.7404 C   0  0  0  0  0  0  0  0  0  0  0  0
    5.9165   -8.3042   18.5033 C   0  0  0  0  0  0  0  0  0  0  0  0
    9.8594   -1.8160   24.1472 C   0  0  0  0  0  0  0  0  0  0  0  0
    5.2652   -7.6441   15.5907 C   0  0  0  0  0  0  0  0  0  0  0  0
   10.9542   -3.1960   17.7108 N   0  0  0  0  0  0  0  0  0  0  0  0
   11.0551   -4.5114   23.5914 C   0  0  0  0  0  0  0  0  0  0  0  0
    7.1057   -6.2037   14.7748 C   0  0  0  0  0  0  0  0  0  0  0  0
   10.5485   -3.7466   19.3289 He  0  0  0  0  0  0  0  0  0  0  0  0
   10.0338   -4.4407   16.5244 He  0  0  0  0  0  0  0  0  0  0  0  0
   10.1880   -2.2279   22.9771 He  0  0  0  0  0  0  0  0  0  0  0  0
    8.6916   -5.8683   17.2684 He  0  0  0  0  0  0  0  0  0  0  0  0
   10.0965   -4.9846   18.5449 He  0  0  0  0  0  0  0  0  0  0  0  0
  1  4  4  0
  1  6  1  0
  1  9  4  0
  1 11  3  0
  1 19  2  0
  2  6  4  0
  2  9  2  0
  2 21  1  0
  3  5  2  0
  3  8  4  0
  3  9  4  0
  4 12  1  0
  4 20  3  0
  5  7  3  0
  5 13  2  0
  5 14  4  0
  6  8  3  0
  6 12  3  0
  6 19  4  0
  6 20  4  0
  7 12  1  0
  7 16  2  0
  7 17  3  0
  8 10  1  0
  8 20  3  0
  9 15  3  0
 10 13  2  0
 10 15  1  0
 10 18  2  0
 10 20  4  0
 10 21  1  0
 11 15  4  0
 11 17  3  0
 12 16  4  0
 12 18  2  0
 12 19  3  0
 12 20  1  0
 13 16  1  0
 14 19  2  0
 15 16  2  0
 15 18  2  0
 15 19  2  0
 15 21  2  0
 18 21  4  0
M  END
$$$$

 Created by Python create_sdf_string function

 26 52  0  0  0  0  0  0  0  0999 V2000
   11.1956   -4.0319   21.7316 C   0  0  0  0  0  0  0  0  0  0  0  0
    8.3397   -5.8112   15.6232 C   0  0  0  0  0  0  0  0  0  0  0  0
   10.4358   -3.6280   18.9456 N   0  0  0  0  0  0  0  0  0  0  0  0
   10.5928   -2.6852   25.3781 C   0  0  0  0  0  0  0  0  0  0  0  0
    3.5682   -8.8253   16.4090 S   0  0  0  0  0  0  0  0  0  0  0  0
   10.1989   -4.1955   16.4088 N   0  0  0  0  0  0  0  0  0  0  0  0
    8.0682   -6.7834   17.8330 C   0  0  0  0  0  0  0  0  0  0  0  0
   10.6349   -2.9781   22.5544 S   0  0  0  0  0  0  0  0  0  0  0  0
    4.8434   -9.0326   17.7444 C   0  0  0  0  0  0  0  0  0  0  0  0
   10.1782   -2.5093   23.0568 C   0  0  0  0  0  0  0  0  0  0  0  0
   11.0648   -3.8007   25.0311 N   0  0  0  0  0  0  0  0  0  0  0  0
   10.8255   -3.0481   20.4222 C   0  0  0  0  0  0  0  0  0  0  0  0
    6.8730   -7.3052   15.9538 C   0  0  0  0  0  0  0  0  0  0  0  0
   10.1883   -5.5806   20.6763 C   0  0  0  0  0  0  0  0  0  0  0  0
    8.2423   -5.7769   16.9019 C   0  0  0  0  0  0  0  0  0  0  0  0
    4.3702   -8.7068   16.7106 C   0  0  0  0  0  0  0  0  0  0  0  0
    7.1514   -7.6430   17.4838 C   0  0  0  0  0  0  0  0  0  0  0  0
   10.5426   -6.0917   19.4902 C   0  0  0  0  0  0  0  0  0  0  0  0
    6.2208   -7.9586   18.2817 C   0  0  0  0  0  0  0  0  0  0  0  0
    9.9329   -1.3527   24.3076 O   0  0  0  0  0  0  0  0  0  0  0  0
    4.8778   -7.7696   15.5497 C   0  0  0  0  0  0  0  0  0  0  0  0
   10.6881   -2.9758   17.1394 N   0  0  0  0  0  0  0  0  0  0  0  0
   10.4069   -4.7527   18.2888 C   0  0  0  0  0  0  0  0  0  0  0  0
   11.1116   -4.1269   23.5641 S   0  0  0  0  0  0  0  0  0  0  0  0
    7.4284   -5.9824   14.7107 C   0  0  0  0  0  0  0  0  0  0  0  0
    9.6146   -5.0002   17.5803 He  0  0  0  0  0  0  0  0  0  0  0  0
  1  8  1  0
  1 12  4  0
  1 13  4  0
  1 14  4  0
  1 16  2  0
  1 25  1  0
  2 12  3  0
  2 15  2  0
  2 25  1  0
  3  4  1  0
  3  5  3  0
  3 11  4  0
  3 12  4  0
  3 15  1  0
  3 22  4  0
  3 23  4  0
  4 11  4  0
  4 20  4  0
  5 14  4  0
  5 16  1  0
  6 22  4  0
  7 15  1  0
  7 22  3  0
  7 25  4  0
  8 10  4  0
  8 13  1  0
  8 24  4  0
  9 16  1  0
  9 20  1  0
 10 13  1  0
 10 14  1  0
 11 13  3  0
 11 15  1  0
 11 17  4  0
 11 24  4  0
 12 16  4  0
 12 21  4  0
 12 24  4  0
 13 17  1  0
 13 18  3  0
 13 20  2  0
 13 21  2  0
 13 25  1  0
 14 18  1  0
 15 16  3  0
 15 25  4  0
 16 23  1  0
 17 19  1  0
 18 23  4  0
 19 20  2  0
 20 25  4  0
 21 24  4  0
M  END
$$$$

 Created by Python create_sdf_string function

 26 43  0  0  0  0  0  0  0  0999 V2000
   10.6288   -3.8827   20.9625 C   0  0  0  0  0  0  0  0  0  0  0  0
    8.2910   -5.6429   15.8486 C   0  0  0  0  0  0  0  0  0  0  0  0
   10.5739   -3.4006   18.7352 C   0  0  0  0  0  0  0  0  0  0  0  0
   10.7715   -2.8019   25.2023 C   0  0  0  0  0  0  0  0  0  0  0  0
    3.2076   -9.3318   16.3309 N   0  0  0  0  0  0  0  0  0  0  0  0
   10.2508   -3.5505   16.6414 N   0  0  0  0  0  0  0  0  0  0  0  0
    8.3513   -6.7807   17.8189 C   0  0  0  0  0  0  0  0  0  0  0  0
   10.6405   -2.9037   23.0340 C   0  0  0  0  0  0  0  0  0  0  0  0
    5.0498   -8.7455   17.7446 O   0  0  0  0  0  0  0  0  0  0  0  0
   10.1854   -2.0341   22.9907 C   0  0  0  0  0  0  0  0  0  0  0  0
   10.9881   -3.6792   24.9416 N   0  0  0  0  0  0  0  0  0  0  0  0
   10.7786   -3.2099   20.3630 C   0  0  0  0  0  0  0  0  0  0  0  0
    6.5026   -7.5920   15.4199 C   0  0  0  0  0  0  0  0  0  0  0  0
   10.8973   -5.3666   21.1624 C   0  0  0  0  0  0  0  0  0  0  0  0
    8.4684   -5.6126   16.8326 C   0  0  0  0  0  0  0  0  0  0  0  0
    4.3430   -8.8465   16.2972 Cl  0  0  0  0  0  0  0  0  0  0  0  0
    7.2837   -7.3610   16.9097 C   0  0  0  0  0  0  0  0  0  0  0  0
    9.6214   -4.9566   17.1436 C   0  0  0  0  0  0  0  0  0  0  0  0
   10.5266   -6.2479   19.6705 C   0  0  0  0  0  0  0  0  0  0  0  0
    6.2698   -8.3209   18.2149 C   0  0  0  0  0  0  0  0  0  0  0  0
    9.7609   -1.9508   23.7711 C   0  0  0  0  0  0  0  0  0  0  0  0
    4.8227   -8.0074   15.8082 C   0  0  0  0  0  0  0  0  0  0  0  0
   10.8586   -2.8101   17.7109 N   0  0  0  0  0  0  0  0  0  0  0  0
   10.4048   -4.8685   18.7578 C   0  0  0  0  0  0  0  0  0  0  0  0
   11.1915   -4.1286   23.5257 C   0  0  0  0  0  0  0  0  0  0  0  0
    7.1604   -6.2616   14.8870 C   0  0  0  0  0  0  0  0  0  0  0  0
  1  8  1  0
  1 12  4  0
  2  6  1  0
  2 15  2  0
  2 22  1  0
  2 26  1  0
  3 12  4  0
  3 14  1  0
  3 19  2  0
  3 21  2  0
  3 23  4  0
  3 24  4  0
  4 11  3  0
  4 13  2  0
  4 21  4  0
  5 11  1  0
  5 15  1  0
  5 16  4  0
  6 11  1  0
  6 18  4  0
  6 23  4  0
  7  8  2  0
  7 16  1  0
  7 26  3  0
  8 10  4  0
  8 25  2  0
  9 16  1  0
 10 21  4  0
 11 25  4  0
 13 17  1  0
 13 24  3  0
 13 26  4  0
 14 19  4  0
 14 23  4  0
 15 18  1  0
 16 18  4  0
 16 22  1  0
 17 20  2  0
 17 21  1  0
 18 21  4  0
 18 24  4  0
 19 24  4  0
 21 22  3  0
M  END
$$$$

 Created by Python create_sdf_string function

 26 40  0  0  0  0  0  0  0  0999 V2000
    7.8532   -5.7425   15.4394 C   0  0  0  0  0  0  0  0  0  0  0  0
   10.7825   -3.3007   19.0705 C   0  0  0  0  0  0  0  0  0  0  0  0
   10.1145   -2.5971   25.0146 C   0  0  0  0  0  0  0  0  0  0  0  0
   10.1850   -3.9408   16.7475 N   0  0  0  0  0  0  0  0  0  0  0  0
    8.0972   -6.6686   17.7970 C   0  0  0  0  0  0  0  0  0  0  0  0
   10.6790   -3.6527   22.2974 C   0  0  0  0  0  0  0  0  0  0  0  0
    5.2453   -8.6138   17.9031 F   0  0  0  0  0  0  0  0  0  0  0  0
   10.1714   -1.9174   22.6741 C   0  0  0  0  0  0  0  0  0  0  0  0
   11.1395   -3.9507   25.0110 N   0  0  0  0  0  0  0  0  0  0  0  0
   10.7685   -2.9292   20.0990 C   0  0  0  0  0  0  0  0  0  0  0  0
    6.4106   -7.0903   15.9082 C   0  0  0  0  0  0  0  0  0  0  0  0
   10.5095   -5.3939   20.5931 C   0  0  0  0  0  0  0  0  0  0  0  0
    8.5976   -6.1253   16.7595 C   0  0  0  0  0  0  0  0  0  0  0  0
    4.3806   -8.7708   16.3215 C   0  0  0  0  0  0  0  0  0  0  0  0
    7.5091   -7.5676   17.1512 C   0  0  0  0  0  0  0  0  0  0  0  0
    9.5989   -4.6924   17.5365 C   0  0  0  0  0  0  0  0  0  0  0  0
   10.6300   -5.6017   19.2276 O   0  0  0  0  0  0  0  0  0  0  0  0
    5.9696   -8.6738   18.3035 N   0  0  0  0  0  0  0  0  0  0  0  0
    9.3361   -2.0574   24.3321 F   0  0  0  0  0  0  0  0  0  0  0  0
    5.0760   -7.7306   15.6857 C   0  0  0  0  0  0  0  0  0  0  0  0
   10.4527   -2.8512   17.6548 N   0  0  0  0  0  0  0  0  0  0  0  0
   10.4825   -4.8294   18.9934 C   0  0  0  0  0  0  0  0  0  0  0  0
   10.9034   -4.2888   23.5953 C   0  0  0  0  0  0  0  0  0  0  0  0
    7.2570   -6.6298   15.2639 C   0  0  0  0  0  0  0  0  0  0  0  0
   10.7677   -4.2736   21.2267 He  0  0  0  0  0  0  0  0  0  0  0  0
    3.4347   -8.8279   16.1505 He  0  0  0  0  0  0  0  0  0  0  0  0
  1  2  1  0
  1 11  1  0
  1 13  2  0
  1 15  2  0
  1 24  1  0
  2 10  4  0
  2 13  4  0
  2 17  4  0
  2 22  4  0
  4 16  4  0
  4 21  4  0
  5 12  3  0
  5 13  1  0
  5 15  1  0
  6  8  4  0
  6 22  1  0
  6 23  4  0
  6 24  3  0
  7 14  2  0
  7 18  1  0
  7 22  3  0
  8 19  4  0
  9 11  1  0
  9 17  3  0
  9 23  4  0
  9 24  1  0
 11 13  2  0
 11 15  3  0
 11 20  1  0
 12 21  2  0
 12 24  3  0
 13 16  1  0
 13 17  3  0
 14 16  4  0
 14 20  2  0
 15 18  2  0
 16 20  2  0
 16 22  4  0
 17 22  4  0
 20 22  3  0
M  END
$$$$

 Created by Python create_sdf_string function

 26 42  0  0  0  0  0  0  0  0999 V2000
   10.8147   -3.9971   21.2441 C   0  0  0  0  0  0  0  0  0  0  0  0
   10.7804   -3.4293   19.0689 O   0  0  0  0  0  0  0  0  0  0  0  0
   10.1510   -3.2302   25.1546 C   0  0  0  0  0  0  0  0  0  0  0  0
    3.3951   -8.8741   16.3775 O   0  0  0  0  0  0  0  0  0  0  0  0
    9.8136   -3.4933   16.5810 N   0  0  0  0  0  0  0  0  0  0  0  0
    8.1811   -6.6567   17.5113 C   0  0  0  0  0  0  0  0  0  0  0  0
    4.9520   -8.9313   17.7267 C   0  0  0  0  0  0  0  0  0  0  0  0
    9.9012   -2.1049   22.7002 C   0  0  0  0  0  0  0  0  0  0  0  0
   10.9870   -3.6504   24.6202 N   0  0  0  0  0  0  0  0  0  0  0  0
   11.3706   -3.3363   19.6614 C   0  0  0  0  0  0  0  0  0  0  0  0
    6.6446   -7.3155   16.1150 C   0  0  0  0  0  0  0  0  0  0  0  0
   10.8940   -5.4282   20.5215 C   0  0  0  0  0  0  0  0  0  0  0  0
    8.6105   -6.1505   16.7408 C   0  0  0  0  0  0  0  0  0  0  0  0
    4.5068   -8.6829   16.7150 C   0  0  0  0  0  0  0  0  0  0  0  0
    6.8377   -7.6907   17.1450 C   0  0  0  0  0  0  0  0  0  0  0  0
    9.7501   -4.9255   17.3920 C   0  0  0  0  0  0  0  0  0  0  0  0
   10.2923   -5.9028   19.7505 C   0  0  0  0  0  0  0  0  0  0  0  0
    6.6448   -8.5356   18.2478 C   0  0  0  0  0  0  0  0  0  0  0  0
   10.1308   -1.9830   24.2786 C   0  0  0  0  0  0  0  0  0  0  0  0
    5.4315   -8.0611   15.7658 C   0  0  0  0  0  0  0  0  0  0  0  0
   10.5602   -3.0135   18.0675 N   0  0  0  0  0  0  0  0  0  0  0  0
   10.4484   -4.7340   18.4334 C   0  0  0  0  0  0  0  0  0  0  0  0
   11.0719   -4.5343   23.7938 C   0  0  0  0  0  0  0  0  0  0  0  0
    7.0675   -6.3953   14.9929 C   0  0  0  0  0  0  0  0  0  0  0  0
    8.1367   -5.9296   15.6701 He  0  0  0  0  0  0  0  0  0  0  0  0
   10.2637   -3.5713   22.0247 He  0  0  0  0  0  0  0  0  0  0  0  0
  1 10  4  0
  1 12  4  0
  1 15  3  0
  1 21  4  0
  2  7  3  0
  2  9  2  0
  2 10  4  0
  2 13  1  0
  2 21  4  0
  2 22  1  0
  3  9  4  0
  3 13  2  0
  3 18  2  0
  3 19  4  0
  4 14  1  0
  4 15  4  0
  5 11  4  0
  5 12  2  0
  5 13  3  0
  5 16  4  0
  5 21  4  0
  6 15  1  0
  6 20  1  0
  7 13  3  0
  7 14  2  0
  8 17  4  0
  8 19  4  0
  9 23  4  0
 10 19  1  0
 10 21  3  0
 11 15  1  0
 11 20  2  0
 11 24  3  0
 12 18  1  0
 13 16  2  0
 13 20  1  0
 14 20  2  0
 15 18  2  0
 15 21  3  0
 16 22  4  0
 17 22  4  0
 18 20  4  0
M  END
$$$$

 Created by Python create_sdf_string function

 26 48  0  0  0  0  0  0  0  0999 V2000
   10.8809   -4.2924   21.1851 C   0  0  0  0  0  0  0  0  0  0  0  0
    8.0574   -5.4654   15.6223 C   0  0  0  0  0  0  0  0  0  0  0  0
   10.6399   -3.5949   18.7627 C   0  0  0  0  0  0  0  0  0  0  0  0
   10.3322   -3.0535   24.8901 Cl  0  0  0  0  0  0  0  0  0  0  0  0
    3.3238   -8.7932   16.2736 O   0  0  0  0  0  0  0  0  0  0  0  0
   10.1552   -3.6207   17.1723 N   0  0  0  0  0  0  0  0  0  0  0  0
    8.0425   -6.7357   17.8871 C   0  0  0  0  0  0  0  0  0  0  0  0
   10.4362   -3.3481   22.5201 C   0  0  0  0  0  0  0  0  0  0  0  0
    5.0437   -9.0370   17.6034 C   0  0  0  0  0  0  0  0  0  0  0  0
   10.3387   -2.4935   22.4346 C   0  0  0  0  0  0  0  0  0  0  0  0
   10.6114   -4.1569   24.5124 N   0  0  0  0  0  0  0  0  0  0  0  0
   11.1669   -3.2784   20.0591 C   0  0  0  0  0  0  0  0  0  0  0  0
    6.9004   -7.5094   15.9993 C   0  0  0  0  0  0  0  0  0  0  0  0
   10.6738   -5.0536   20.6080 C   0  0  0  0  0  0  0  0  0  0  0  0
    8.5475   -5.9208   16.8752 C   0  0  0  0  0  0  0  0  0  0  0  0
    4.5459   -8.6658   16.6065 C   0  0  0  0  0  0  0  0  0  0  0  0
    7.1555   -7.7182   17.5486 C   0  0  0  0  0  0  0  0  0  0  0  0
    9.5431   -4.6251   17.4657 C   0  0  0  0  0  0  0  0  0  0  0  0
   10.3025   -5.7259   19.3728 C   0  0  0  0  0  0  0  0  0  0  0  0
    6.4591   -8.6749   18.2715 C   0  0  0  0  0  0  0  0  0  0  0  0
    9.7288   -2.1977   24.0867 C   0  0  0  0  0  0  0  0  0  0  0  0
    5.0654   -8.0439   15.6672 C   0  0  0  0  0  0  0  0  0  0  0  0
   10.5545   -4.9138   18.6802 C   0  0  0  0  0  0  0  0  0  0  0  0
   10.9737   -4.6752   23.7431 P   0  0  0  0  0  0  0  0  0  0  0  0
    7.1686   -6.6617   15.1535 C   0  0  0  0  0  0  0  0  0  0  0  0
   10.7202   -2.9426   17.6094 He  0  0  0  0  0  0  0  0  0  0  0  0
  1  8  1  0
  1  9  4  0
  1 12  4  0
  1 14  2  0
  1 23  2  0
  2  7  4  0
  2 11  2  0
  2 15  2  0
  2 22  2  0
  2 25  2  0
  3 12  4  0
  3 15  3  0
  3 23  4  0
  4 11  4  0
  4 21  4  0
  5 16  1  0
  6 10  3  0
  6 16  1  0
  6 18  4  0
  7 13  4  0
  7 15  1  0
  7 17  1  0
  8 10  4  0
  8 21  4  0
  8 24  4  0
  9 11  4  0
  9 17  1  0
  9 20  1  0
  9 23  3  0
 10 15  3  0
 10 21  4  0
 11 12  2  0
 11 24  4  0
 12 20  2  0
 12 23  1  0
 13 17  1  0
 13 22  2  0
 13 25  1  0
 14 19  4  0
 15 18  1  0
 16 22  2  0
 17 20  2  0
 17 24  1  0
 18 19  4  0
 18 23  4  0
 19 23  4  0
 20 25  3  0
 21 25  1  0
M  END
$$$$

 Created by Python create_sdf_string function

 26 35  0  0  0  0  0  0  0  0999 V2000
   10.6761   -4.0476   21.3480 C   0  0  0  0  0  0  0  0  0  0  0  0
   10.9349   -3.5900   18.5856 C   0  0  0  0  0  0  0  0  0  0  0  0
   10.1854   -2.9734   25.2587 C   0  0  0  0  0  0  0  0  0  0  0  0
    3.1666   -9.0557   16.4664 O   0  0  0  0  0  0  0  0  0  0  0  0
    9.8204   -3.4720   16.9203 N   0  0  0  0  0  0  0  0  0  0  0  0
    8.3463   -6.8201   17.9632 C   0  0  0  0  0  0  0  0  0  0  0  0
   10.7713   -3.6650   22.3686 C   0  0  0  0  0  0  0  0  0  0  0  0
    5.5245   -9.2332   18.1850 C   0  0  0  0  0  0  0  0  0  0  0  0
   10.3285   -2.2284   22.5763 S   0  0  0  0  0  0  0  0  0  0  0  0
   10.4198   -4.1609   24.6544 N   0  0  0  0  0  0  0  0  0  0  0  0
   11.0865   -3.2438   20.0972 F   0  0  0  0  0  0  0  0  0  0  0  0
    6.6176   -7.4572   16.4000 C   0  0  0  0  0  0  0  0  0  0  0  0
   10.5446   -5.6241   20.9714 C   0  0  0  0  0  0  0  0  0  0  0  0
    8.4394   -5.8625   16.8984 C   0  0  0  0  0  0  0  0  0  0  0  0
    4.7801   -8.6543   16.5781 C   0  0  0  0  0  0  0  0  0  0  0  0
    7.4023   -7.5399   17.3922 C   0  0  0  0  0  0  0  0  0  0  0  0
    9.7306   -4.6697   17.2175 C   0  0  0  0  0  0  0  0  0  0  0  0
   10.5457   -5.6317   19.5579 C   0  0  0  0  0  0  0  0  0  0  0  0
    6.0695   -8.4762   18.1379 C   0  0  0  0  0  0  0  0  0  0  0  0
    9.8426   -1.8916   23.7082 C   0  0  0  0  0  0  0  0  0  0  0  0
   10.8366   -2.7665   17.3724 N   0  0  0  0  0  0  0  0  0  0  0  0
   10.0720   -4.8713   18.5685 C   0  0  0  0  0  0  0  0  0  0  0  0
   10.9694   -4.8557   23.5279 C   0  0  0  0  0  0  0  0  0  0  0  0
    7.0260   -6.7184   14.8804 C   0  0  0  0  0  0  0  0  0  0  0  0
    8.1042   -5.8120   15.5596 He  0  0  0  0  0  0  0  0  0  0  0  0
    5.5479   -8.0718   15.4029 He  0  0  0  0  0  0  0  0  0  0  0  0
  1  7  1  0
  1 11  4  0
  1 13  4  0
  2 11  4  0
  2 20  3  0
  2 21  4  0
  3  9  1  0
  3 10  4  0
  3 15  1  0
  3 19  1  0
  3 20  4  0
  3 21  4  0
  4 15  1  0
  5 15  1  0
  5 17  4  0
  5 21  4  0
  6 14  1  0
  7  9  4  0
  7 23  4  0
  8 15  1  0
  8 16  2  0
  8 19  1  0
  9 20  4  0
 10 17  4  0
 10 18  3  0
 10 20  3  0
 10 23  4  0
 11 14  2  0
 12 16  4  0
 12 24  1  0
 13 18  4  0
 14 17  1  0
 16 19  2  0
 17 22  4  0
 18 22  4  0
M  END
$$$$

 Created by Python create_sdf_string function

 26 46  0  0  0  0  0  0  0  0999 V2000
   11.0722   -4.0353   21.0383 C   0  0  0  0  0  0  0  0  0  0  0  0
    8.1163   -5.8166   15.5061 N   0  0  0  0  0  0  0  0  0  0  0  0
   10.8519   -3.5479   18.8102 C   0  0  0  0  0  0  0  0  0  0  0  0
   10.2956   -2.8792   25.2399 C   0  0  0  0  0  0  0  0  0  0  0  0
    3.1070   -9.3673   16.2224 O   0  0  0  0  0  0  0  0  0  0  0  0
    9.9347   -3.3015   16.6514 N   0  0  0  0  0  0  0  0  0  0  0  0
    8.3933   -6.8485   17.7344 C   0  0  0  0  0  0  0  0  0  0  0  0
   10.8598   -3.5534   22.4332 C   0  0  0  0  0  0  0  0  0  0  0  0
    5.3511   -9.3121   17.6593 C   0  0  0  0  0  0  0  0  0  0  0  0
   10.4239   -2.3487   22.7734 C   0  0  0  0  0  0  0  0  0  0  0  0
   10.2382   -4.2144   24.8374 N   0  0  0  0  0  0  0  0  0  0  0  0
   11.1816   -2.8918   20.1774 C   0  0  0  0  0  0  0  0  0  0  0  0
    6.8029   -7.4548   16.0243 C   0  0  0  0  0  0  0  0  0  0  0  0
   10.5098   -5.4886   20.9369 C   0  0  0  0  0  0  0  0  0  0  0  0
    8.8415   -6.0752   16.8176 C   0  0  0  0  0  0  0  0  0  0  0  0
    4.4737   -8.8091   16.6229 C   0  0  0  0  0  0  0  0  0  0  0  0
    6.9932   -7.7381   17.6967 C   0  0  0  0  0  0  0  0  0  0  0  0
    9.5149   -4.6193   17.1470 C   0  0  0  0  0  0  0  0  0  0  0  0
   10.2560   -5.6992   19.5850 C   0  0  0  0  0  0  0  0  0  0  0  0
    6.3154   -8.6775   18.1867 C   0  0  0  0  0  0  0  0  0  0  0  0
   10.0941   -1.9208   24.0935 C   0  0  0  0  0  0  0  0  0  0  0  0
    5.6194   -8.1216   15.9723 C   0  0  0  0  0  0  0  0  0  0  0  0
   10.5311   -2.7719   17.5149 N   0  0  0  0  0  0  0  0  0  0  0  0
   10.1693   -4.9342   18.2480 C   0  0  0  0  0  0  0  0  0  0  0  0
   10.7323   -4.7509   23.6726 C   0  0  0  0  0  0  0  0  0  0  0  0
    7.0173   -6.4579   15.1425 C   0  0  0  0  0  0  0  0  0  0  0  0
  1  8  1  0
  1 12  4  0
  1 14  4  0
  1 25  3  0
  2 11  4  0
  2 15  2  0
  2 26  2  0
  3  7  4  0
  3 12  4  0
  3 23  4  0
  3 24  1  0
  4  7  2  0
  4 11  4  0
  4 21  4  0
  5  8  2  0
  5 16  1  0
  5 24  2  0
  6 18  4  0
  6 23  4  0
  7 10  1  0
  7 17  1  0
  7 24  4  0
  8 10  4  0
  8 25  4  0
  9 16  1  0
  9 20  1  0
 10 21  4  0
 11 21  1  0
 11 25  4  0
 11 26  1  0
 13 14  2  0
 13 17  1  0
 13 22  2  0
 14 16  3  0
 14 19  4  0
 16 22  2  0
 17 20  2  0
 17 22  4  0
 18 22  2  0
 18 24  4  0
 19 24  4  0
 19 25  2  0
 21 22  3  0
 21 26  2  0
 22 23  2  0
 25 26  2  0
M  END
$$$$

 Created by Python create_sdf_string function

 26 46  0  0  0  0  0  0  0  0999 V2000
   10.8414   -3.9548   21.0354 C   0  0  0  0  0  0  0  0  0  0  0  0
    8.1519   -5.4946   15.7674 F   0  0  0  0  0  0  0  0  0  0  0  0
   10.5706   -3.6971   18.9061 C   0  0  0  0  0  0  0  0  0  0  0  0
   10.1970   -2.7594   24.9631 C   0  0  0  0  0  0  0  0  0  0  0  0
    3.2429   -9.2795   16.3635 O   0  0  0  0  0  0  0  0  0  0  0  0
   10.1863   -3.3482   16.3869 N   0  0  0  0  0  0  0  0  0  0  0  0
    8.4746   -6.8491   17.9291 C   0  0  0  0  0  0  0  0  0  0  0  0
   10.6050   -3.5277   22.5348 C   0  0  0  0  0  0  0  0  0  0  0  0
    5.0387   -9.2836   17.8099 C   0  0  0  0  0  0  0  0  0  0  0  0
   10.4485   -2.4073   22.7833 C   0  0  0  0  0  0  0  0  0  0  0  0
   10.6493   -4.0946   25.1239 N   0  0  0  0  0  0  0  0  0  0  0  0
   11.0437   -3.1971   20.1836 C   0  0  0  0  0  0  0  0  0  0  0  0
    6.3088   -7.3658   16.1442 O   0  0  0  0  0  0  0  0  0  0  0  0
   10.4378   -5.3335   20.7379 C   0  0  0  0  0  0  0  0  0  0  0  0
    8.6598   -5.8561   16.8027 C   0  0  0  0  0  0  0  0  0  0  0  0
    4.3947   -8.8624   16.5341 C   0  0  0  0  0  0  0  0  0  0  0  0
    7.1374   -7.7878   17.4081 C   0  0  0  0  0  0  0  0  0  0  0  0
    9.7008   -4.7359   17.1053 C   0  0  0  0  0  0  0  0  0  0  0  0
   10.3610   -5.5917   19.5375 C   0  0  0  0  0  0  0  0  0  0  0  0
    6.4880   -8.5080   18.2810 C   0  0  0  0  0  0  0  0  0  0  0  0
   10.1034   -1.8651   24.2876 C   0  0  0  0  0  0  0  0  0  0  0  0
    5.2155   -8.1234   15.7925 C   0  0  0  0  0  0  0  0  0  0  0  0
   10.6549   -2.5956   17.6352 N   0  0  0  0  0  0  0  0  0  0  0  0
   10.2230   -4.7791   18.5175 C   0  0  0  0  0  0  0  0  0  0  0  0
   10.7863   -4.4755   23.3945 F   0  0  0  0  0  0  0  0  0  0  0  0
    7.1913   -6.4252   15.2990 C   0  0  0  0  0  0  0  0  0  0  0  0
  1  8  1  0
  1 12  4  0
  1 14  4  0
  1 23  1  0
  2  5  3  0
  2 15  2  0
  2 23  2  0
  2 26  2  0
  3  6  2  0
  3 11  4  0
  3 12  4  0
  3 23  4  0
  3 24  4  0
  4 11  4  0
  4 16  2  0
  4 21  4  0
  4 22  1  0
  5  7  2  0
  5 14  4  0
  6 14  3  0
  6 18  4  0
  6 23  4  0
  7 15  1  0
  7 17  1  0
  7 25  4  0
  8 10  4  0
  8 23  2  0
  8 25  4  0
  9 10  3  0
  9 15  1  0
  9 16  1  0
  9 20  1  0
 10 21  4  0
 11 25  4  0
 12 25  3  0
 13 17  1  0
 13 22  2  0
 13 24  2  0
 13 26  1  0
 14 19  4  0
 15 18  1  0
 16 19  4  0
 16 22  2  0
 16 24  1  0
 17 20  2  0
 18 24  4  0
M  END
$$$$

 Created by Python create_sdf_string function

 26 29  0  0  0  0  0  0  0  0999 V2000
   10.7739   -4.1478   20.9379 C   0  0  0  0  0  0  0  0  0  0  0  0
    8.4552   -5.6985   15.6594 C   0  0  0  0  0  0  0  0  0  0  0  0
   10.3737   -2.7907   24.9774 C   0  0  0  0  0  0  0  0  0  0  0  0
    8.4014   -7.0802   17.6637 C   0  0  0  0  0  0  0  0  0  0  0  0
   10.6885   -3.6248   22.4529 C   0  0  0  0  0  0  0  0  0  0  0  0
   10.6523   -2.3291   22.6599 C   0  0  0  0  0  0  0  0  0  0  0  0
   10.7615   -4.2753   24.6985 N   0  0  0  0  0  0  0  0  0  0  0  0
   11.0059   -3.1339   20.2443 C   0  0  0  0  0  0  0  0  0  0  0  0
    6.4623   -7.0884   15.9050 C   0  0  0  0  0  0  0  0  0  0  0  0
   10.5567   -5.4083   20.8560 C   0  0  0  0  0  0  0  0  0  0  0  0
    8.5299   -6.0703   16.9497 S   0  0  0  0  0  0  0  0  0  0  0  0
    4.7023   -8.4929   16.5709 C   0  0  0  0  0  0  0  0  0  0  0  0
    6.9867   -7.6604   17.3875 C   0  0  0  0  0  0  0  0  0  0  0  0
    9.9373   -4.7765   17.1711 C   0  0  0  0  0  0  0  0  0  0  0  0
   10.3908   -5.9006   19.2469 C   0  0  0  0  0  0  0  0  0  0  0  0
    9.9301   -1.5327   24.1456 C   0  0  0  0  0  0  0  0  0  0  0  0
    5.2519   -7.8427   15.8623 C   0  0  0  0  0  0  0  0  0  0  0  0
   10.8628   -2.5966   17.6884 N   0  0  0  0  0  0  0  0  0  0  0  0
   10.3481   -4.6498   18.6953 C   0  0  0  0  0  0  0  0  0  0  0  0
   10.9924   -4.4545   23.8493 C   0  0  0  0  0  0  0  0  0  0  0  0
    6.9528   -6.3991   15.2511 C   0  0  0  0  0  0  0  0  0  0  0  0
   10.7799   -3.8097   18.6575 He  0  0  0  0  0  0  0  0  0  0  0  0
    3.2784   -9.1730   16.3916 He  0  0  0  0  0  0  0  0  0  0  0  0
   10.1110   -3.6910   16.7427 He  0  0  0  0  0  0  0  0  0  0  0  0
    5.1862   -9.3553   17.7583 He  0  0  0  0  0  0  0  0  0  0  0  0
    6.2158   -8.5743   18.1317 He  0  0  0  0  0  0  0  0  0  0  0  0
  1  5  1  0
  1  8  4  0
  1 10  4  0
  2 11  2  0
  2 18  1  0
  2 20  4  0
  2 21  2  0
  3  4  3  0
  3  7  4  0
  3 16  4  0
  4 11  1  0
  4 16  2  0
  5  6  4  0
  5 20  4  0
  6  9  1  0
  6 16  4  0
  7 16  2  0
  7 20  4  0
  9 13  1  0
  9 17  2  0
  9 21  1  0
 11 14  1  0
 11 21  3  0
 12 17  2  0
 13 18  2  0
 14 19  4  0
 15 16  1  0
 15 19  4  0
 17 20  3  0
M  END
$$$$

 Created by Python create_sdf_string function

 26 37  0  0  0  0  0  0  0  0999 V2000
   10.7894   -3.9561   21.1892 C   0  0  0  0  0  0  0  0  0  0  0  0
    8.2339   -5.7941   15.6348 C   0  0  0  0  0  0  0  0  0  0  0  0
   10.5828   -3.4591   19.0100 C   0  0  0  0  0  0  0  0  0  0  0  0
   10.2590   -2.7516   25.1355 C   0  0  0  0  0  0  0  0  0  0  0  0
    3.3398   -9.0268   16.2096 N   0  0  0  0  0  0  0  0  0  0  0  0
    9.9950   -3.6600   16.9219 C   0  0  0  0  0  0  0  0  0  0  0  0
    8.3351   -6.9189   17.8771 C   0  0  0  0  0  0  0  0  0  0  0  0
   10.5326   -3.5963   22.4375 C   0  0  0  0  0  0  0  0  0  0  0  0
    5.0571   -8.9849   17.4230 C   0  0  0  0  0  0  0  0  0  0  0  0
   10.2837   -2.2899   22.6085 C   0  0  0  0  0  0  0  0  0  0  0  0
   10.6694   -3.9133   24.6873 N   0  0  0  0  0  0  0  0  0  0  0  0
   11.1420   -3.1633   20.1228 C   0  0  0  0  0  0  0  0  0  0  0  0
   10.5789   -5.3118   20.7710 C   0  0  0  0  0  0  0  0  0  0  0  0
    8.7392   -5.8818   16.6987 C   0  0  0  0  0  0  0  0  0  0  0  0
    4.3952   -8.7471   16.5265 C   0  0  0  0  0  0  0  0  0  0  0  0
    7.0180   -7.6381   17.2902 C   0  0  0  0  0  0  0  0  0  0  0  0
    9.6015   -5.0093   17.2262 C   0  0  0  0  0  0  0  0  0  0  0  0
   10.5564   -5.9777   19.6095 C   0  0  0  0  0  0  0  0  0  0  0  0
    6.2949   -8.7186   18.0718 C   0  0  0  0  0  0  0  0  0  0  0  0
    5.1945   -7.8102   15.9964 C   0  0  0  0  0  0  0  0  0  0  0  0
   10.7428   -2.9078   17.8132 N   0  0  0  0  0  0  0  0  0  0  0  0
   10.2706   -4.8808   18.5250 C   0  0  0  0  0  0  0  0  0  0  0  0
   10.9309   -4.3064   23.5574 C   0  0  0  0  0  0  0  0  0  0  0  0
    7.1702   -6.3668   15.2773 C   0  0  0  0  0  0  0  0  0  0  0  0
    6.4388   -7.1816   16.0911 He  0  0  0  0  0  0  0  0  0  0  0  0
   10.4554   -1.9199   24.2219 He  0  0  0  0  0  0  0  0  0  0  0  0
  1  3  1  0
  1  8  1  0
  1 12  4  0
  1 13  4  0
  1 20  4  0
  2 12  3  0
  2 14  2  0
  2 24  2  0
  3 12  4  0
  3 22  4  0
  4 11  4  0
  4 15  3  0
  5  6  4  0
  5 15  1  0
  6  9  2  0
  6 17  4  0
  6 21  4  0
  7 10  3  0
  7 16  1  0
  7 19  2  0
  7 21  3  0
  8 17  4  0
  8 18  2  0
  8 23  4  0
  9 15  1  0
  9 19  1  0
 10 13  3  0
 10 15  4  0
 11 13  3  0
 11 23  4  0
 12 21  1  0
 13 18  4  0
 14 17  1  0
 15 20  3  0
 16 19  2  0
 17 22  4  0
 18 22  4  0
M  END
$$$$

 Created by Python create_sdf_string function

 26 39  0  0  0  0  0  0  0  0999 V2000
   10.7597   -3.9465   21.2923 C   0  0  0  0  0  0  0  0  0  0  0  0
    8.1933   -5.7949   15.7738 F   0  0  0  0  0  0  0  0  0  0  0  0
   10.7617   -3.5516   19.0264 C   0  0  0  0  0  0  0  0  0  0  0  0
   10.3601   -2.6818   25.1645 C   0  0  0  0  0  0  0  0  0  0  0  0
    3.3217   -8.9331   16.3721 N   0  0  0  0  0  0  0  0  0  0  0  0
    9.9513   -3.9278   16.7683 C   0  0  0  0  0  0  0  0  0  0  0  0
    8.3887   -6.7852   17.7841 C   0  0  0  0  0  0  0  0  0  0  0  0
   10.8446   -3.4608   22.4935 C   0  0  0  0  0  0  0  0  0  0  0  0
    5.1273   -9.0876   17.5716 C   0  0  0  0  0  0  0  0  0  0  0  0
   10.3251   -2.2183   22.9047 C   0  0  0  0  0  0  0  0  0  0  0  0
   10.8740   -4.0617   24.7891 N   0  0  0  0  0  0  0  0  0  0  0  0
   10.8560   -3.2893   19.9785 C   0  0  0  0  0  0  0  0  0  0  0  0
    6.3600   -7.1498   16.0029 C   0  0  0  0  0  0  0  0  0  0  0  0
   10.6172   -5.2941   20.8079 C   0  0  0  0  0  0  0  0  0  0  0  0
    8.8177   -5.8768   16.9766 C   0  0  0  0  0  0  0  0  0  0  0  0
    4.1526   -8.6314   16.5570 C   0  0  0  0  0  0  0  0  0  0  0  0
    7.0422   -7.3155   17.1159 C   0  0  0  0  0  0  0  0  0  0  0  0
    9.6491   -4.9927   17.3877 O   0  0  0  0  0  0  0  0  0  0  0  0
   10.2830   -5.9598   19.7684 C   0  0  0  0  0  0  0  0  0  0  0  0
    6.4349   -8.3498   18.0515 C   0  0  0  0  0  0  0  0  0  0  0  0
   10.1639   -1.7611   24.2802 N   0  0  0  0  0  0  0  0  0  0  0  0
    5.1500   -7.9317   15.8707 C   0  0  0  0  0  0  0  0  0  0  0  0
   10.3414   -2.9695   17.7521 N   0  0  0  0  0  0  0  0  0  0  0  0
   10.1317   -4.9565   18.8454 C   0  0  0  0  0  0  0  0  0  0  0  0
   10.9214   -4.2950   23.6311 C   0  0  0  0  0  0  0  0  0  0  0  0
    6.9770   -6.3894   15.3349 C   0  0  0  0  0  0  0  0  0  0  0  0
  1  8  1  0
  1 12  4  0
  1 14  4  0
  1 17  4  0
  2  6  1  0
  2 15  2  0
  2 26  2  0
  3  9  1  0
  3 12  4  0
  3 23  3  0
  3 24  4  0
  4  6  3  0
  4 11  4  0
  4 21  4  0
  5 16  1  0
  6 18  4  0
  6 23  4  0
  7 15  1  0
  7 17  1  0
  8  9  4  0
  8 10  4  0
  8 24  2  0
  8 25  4  0
  9 16  1  0
  9 20  1  0
 10 21  4  0
 10 25  4  0
 11 25  4  0
 13 22  2  0
 13 26  1  0
 14 19  4  0
 14 21  4  0
 15 18  1  0
 16 22  1  0
 17 20  2  0
 17 24  4  0
 19 24  4  0
 20 21  4  0
 24 26  1  0
M  END
$$$$

 Created by Python create_sdf_string function

 26 38  0  0  0  0  0  0  0  0999 V2000
   10.8351   -4.1169   21.1369 C   0  0  0  0  0  0  0  0  0  0  0  0
    8.0866   -5.8599   15.5922 C   0  0  0  0  0  0  0  0  0  0  0  0
   10.4436   -3.7324   18.8188 C   0  0  0  0  0  0  0  0  0  0  0  0
   10.3300   -2.7112   25.1871 C   0  0  0  0  0  0  0  0  0  0  0  0
    3.3418   -9.0161   16.5047 N   0  0  0  0  0  0  0  0  0  0  0  0
   10.1055   -3.8955   16.7006 C   0  0  0  0  0  0  0  0  0  0  0  0
    8.1898   -6.8319   17.5362 C   0  0  0  0  0  0  0  0  0  0  0  0
   10.5836   -3.5678   22.5582 C   0  0  0  0  0  0  0  0  0  0  0  0
    4.9054   -9.0307   17.5725 C   0  0  0  0  0  0  0  0  0  0  0  0
   10.2676   -2.2144   22.9397 O   0  0  0  0  0  0  0  0  0  0  0  0
   10.7642   -4.0746   25.0625 N   0  0  0  0  0  0  0  0  0  0  0  0
   10.9315   -3.2087   20.4127 P   0  0  0  0  0  0  0  0  0  0  0  0
    6.2831   -7.2584   16.1624 C   0  0  0  0  0  0  0  0  0  0  0  0
   10.5192   -5.3569   21.0756 C   0  0  0  0  0  0  0  0  0  0  0  0
    8.7292   -5.8483   16.8627 C   0  0  0  0  0  0  0  0  0  0  0  0
    4.4692   -8.4358   16.6289 C   0  0  0  0  0  0  0  0  0  0  0  0
    6.9693   -7.6896   17.6005 C   0  0  0  0  0  0  0  0  0  0  0  0
    9.5698   -4.9296   17.5612 C   0  0  0  0  0  0  0  0  0  0  0  0
   10.1607   -5.9691   19.4602 C   0  0  0  0  0  0  0  0  0  0  0  0
    6.2515   -8.5445   18.1705 C   0  0  0  0  0  0  0  0  0  0  0  0
   10.0194   -1.7219   24.5215 N   0  0  0  0  0  0  0  0  0  0  0  0
    5.1619   -7.7851   15.9358 C   0  0  0  0  0  0  0  0  0  0  0  0
   10.5727   -3.0853   17.4763 N   0  0  0  0  0  0  0  0  0  0  0  0
   10.1376   -4.8997   18.7150 C   0  0  0  0  0  0  0  0  0  0  0  0
   11.0153   -4.3028   23.7548 C   0  0  0  0  0  0  0  0  0  0  0  0
    7.1514   -6.3507   15.5043 C   0  0  0  0  0  0  0  0  0  0  0  0
  1  8  1  0
  1 12  4  0
  1 14  4  0
  2 15  2  0
  2 17  3  0
  2 26  2  0
  3 12  4  0
  3 23  4  0
  3 24  4  0
  3 26  4  0
  4 11  4  0
  4 17  2  0
  4 21  4  0
  5  8  2  0
  5 16  1  0
  6 18  4  0
  6 23  4  0
  7 15  1  0
  7 17  1  0
  7 19  4  0
  7 24  4  0
  8 10  4  0
  8 25  4  0
  9 16  1  0
  9 20  1  0
 10 21  4  0
 13 17  1  0
 13 26  1  0
 14 19  4  0
 15 18  1  0
 15 20  4  0
 16 20  4  0
 16 21  2  0
 16 22  1  0
 17 20  2  0
 18 24  4  0
 19 22  4  0
 19 24  4  0
M  END
$$$$

 Created by Python create_sdf_string function

 26 39  0  0  0  0  0  0  0  0999 V2000
   10.7929   -4.0342   21.2295 C   0  0  0  0  0  0  0  0  0  0  0  0
    8.0377   -5.7086   15.6538 C   0  0  0  0  0  0  0  0  0  0  0  0
   10.6652   -3.6262   18.7064 C   0  0  0  0  0  0  0  0  0  0  0  0
   10.4373   -2.7391   25.3114 C   0  0  0  0  0  0  0  0  0  0  0  0
   10.2234   -3.9471   16.5629 C   0  0  0  0  0  0  0  0  0  0  0  0
    8.1338   -6.8277   17.6197 C   0  0  0  0  0  0  0  0  0  0  0  0
   10.6936   -3.5172   22.5796 C   0  0  0  0  0  0  0  0  0  0  0  0
    5.0675   -8.8689   17.7029 C   0  0  0  0  0  0  0  0  0  0  0  0
   10.2426   -2.4260   22.8047 C   0  0  0  0  0  0  0  0  0  0  0  0
   10.6959   -3.7472   25.0896 N   0  0  0  0  0  0  0  0  0  0  0  0
   10.9717   -3.3156   20.3210 C   0  0  0  0  0  0  0  0  0  0  0  0
    6.1972   -7.3049   16.2612 C   0  0  0  0  0  0  0  0  0  0  0  0
   10.5513   -5.4708   20.8587 C   0  0  0  0  0  0  0  0  0  0  0  0
    8.6235   -5.9248   16.9142 C   0  0  0  0  0  0  0  0  0  0  0  0
    4.5125   -8.4377   16.4437 C   0  0  0  0  0  0  0  0  0  0  0  0
    7.1060   -7.6036   17.1463 C   0  0  0  0  0  0  0  0  0  0  0  0
    9.4234   -4.8383   17.4934 C   0  0  0  0  0  0  0  0  0  0  0  0
   10.2465   -6.0136   19.6979 C   0  0  0  0  0  0  0  0  0  0  0  0
    6.1004   -8.3938   18.1294 C   0  0  0  0  0  0  0  0  0  0  0  0
    9.9188   -1.9405   24.1290 N   0  0  0  0  0  0  0  0  0  0  0  0
    5.0596   -7.7058   15.9974 C   0  0  0  0  0  0  0  0  0  0  0  0
   10.7751   -3.0111   17.7373 C   0  0  0  0  0  0  0  0  0  0  0  0
   10.1712   -5.0581   18.7836 C   0  0  0  0  0  0  0  0  0  0  0  0
   10.9705   -4.5323   23.6019 C   0  0  0  0  0  0  0  0  0  0  0  0
    6.9344   -6.2335   15.3767 C   0  0  0  0  0  0  0  0  0  0  0  0
    3.1361   -8.9026   16.3964 He  0  0  0  0  0  0  0  0  0  0  0  0
  1  7  1  0
  1 11  4  0
  1 13  4  0
  1 17  4  0
  1 18  1  0
  2  7  2  0
  2 14  2  0
  2 17  4  0
  2 25  2  0
  3  6  3  0
  3 11  4  0
  3 14  1  0
  3 22  4  0
  3 23  4  0
  4 10  4  0
  4 20  4  0
  5 14  4  0
  5 17  4  0
  5 22  4  0
  6 14  1  0
  6 16  1  0
  7  9  4  0
  7 22  3  0
  7 24  4  0
  8 15  1  0
  8 19  1  0
  9 20  4  0
 10 14  1  0
 10 24  4  0
 12 14  3  0
 12 21  2  0
 12 25  1  0
 13 18  4  0
 14 17  1  0
 15 21  1  0
 16 19  2  0
 17 23  4  0
 19 23  2  0
 22 24  1  0
M  END
$$$$

 Created by Python create_sdf_string function

 26 32  0  0  0  0  0  0  0  0999 V2000
   10.5896   -4.1432   21.3992 C   0  0  0  0  0  0  0  0  0  0  0  0
    8.0574   -5.6199   15.5824 C   0  0  0  0  0  0  0  0  0  0  0  0
   10.8066   -3.8571   18.9322 C   0  0  0  0  0  0  0  0  0  0  0  0
   10.2090   -2.8019   25.3911 C   0  0  0  0  0  0  0  0  0  0  0  0
    3.3171   -8.7627   16.4234 N   0  0  0  0  0  0  0  0  0  0  0  0
   10.1341   -3.9199   16.7050 C   0  0  0  0  0  0  0  0  0  0  0  0
    8.1422   -7.1759   17.5579 C   0  0  0  0  0  0  0  0  0  0  0  0
   10.6568   -3.5919   22.5919 C   0  0  0  0  0  0  0  0  0  0  0  0
    5.0591   -9.1438   17.7499 C   0  0  0  0  0  0  0  0  0  0  0  0
   10.2933   -2.3504   22.9779 C   0  0  0  0  0  0  0  0  0  0  0  0
   10.7803   -4.0333   25.1148 N   0  0  0  0  0  0  0  0  0  0  0  0
   10.8798   -3.3068   20.2295 C   0  0  0  0  0  0  0  0  0  0  0  0
    6.1633   -7.2587   16.2257 C   0  0  0  0  0  0  0  0  0  0  0  0
    8.6459   -5.9668   16.7318 C   0  0  0  0  0  0  0  0  0  0  0  0
    4.2889   -8.5518   16.6928 C   0  0  0  0  0  0  0  0  0  0  0  0
    6.9748   -7.4356   17.2958 C   0  0  0  0  0  0  0  0  0  0  0  0
    9.5903   -4.9062   17.3460 C   0  0  0  0  0  0  0  0  0  0  0  0
   10.2661   -5.8738   19.7404 C   0  0  0  0  0  0  0  0  0  0  0  0
    6.1108   -8.5809   18.0369 C   0  0  0  0  0  0  0  0  0  0  0  0
    9.9107   -2.0241   24.1297 N   0  0  0  0  0  0  0  0  0  0  0  0
    5.1508   -7.6156   15.7342 C   0  0  0  0  0  0  0  0  0  0  0  0
   10.8063   -3.0578   17.7851 C   0  0  0  0  0  0  0  0  0  0  0  0
   10.1138   -4.7994   18.6880 C   0  0  0  0  0  0  0  0  0  0  0  0
   10.7736   -4.4208   23.8639 C   0  0  0  0  0  0  0  0  0  0  0  0
    6.9400   -6.3178   15.3352 C   0  0  0  0  0  0  0  0  0  0  0  0
   10.6665   -5.4940   20.8604 He  0  0  0  0  0  0  0  0  0  0  0  0
  1  8  1  0
  1 12  4  0
  2 14  2  0
  2 25  2  0
  3 12  4  0
  3 22  4  0
  3 23  4  0
  4 11  4  0
  5 15  1  0
  6 10  1  0
  6 17  4  0
  6 22  4  0
  7 10  4  0
  7 14  1  0
  7 16  1  0
  8 10  4  0
  8 24  4  0
  9 15  1  0
  9 19  1  0
  9 21  2  0
 10 14  2  0
 10 20  4  0
 11 24  4  0
 12 18  4  0
 13 16  1  0
 13 21  2  0
 14 17  1  0
 15 21  1  0
 16 19  2  0
 17 23  4  0
 18 23  4  0
 18 24  3  0
M  END
$$$$

 Created by Python create_sdf_string function

 26 28  0  0  0  0  0  0  0  0999 V2000
    7.9365   -5.8148   15.7266 C   0  0  0  0  0  0  0  0  0  0  0  0
   10.7803   -3.6921   18.8778 C   0  0  0  0  0  0  0  0  0  0  0  0
   10.2819   -2.6592   25.2580 F   0  0  0  0  0  0  0  0  0  0  0  0
    3.2462   -8.9232   16.4728 N   0  0  0  0  0  0  0  0  0  0  0  0
   10.0503   -3.9571   16.6474 C   0  0  0  0  0  0  0  0  0  0  0  0
    8.2445   -7.0246   17.7789 C   0  0  0  0  0  0  0  0  0  0  0  0
   10.7152   -3.6107   22.6865 C   0  0  0  0  0  0  0  0  0  0  0  0
    4.9629   -8.9989   17.7912 C   0  0  0  0  0  0  0  0  0  0  0  0
   10.2183   -2.3327   23.0235 C   0  0  0  0  0  0  0  0  0  0  0  0
   10.9056   -3.2542   20.1855 C   0  0  0  0  0  0  0  0  0  0  0  0
    6.2031   -7.0803   16.1538 C   0  0  0  0  0  0  0  0  0  0  0  0
   10.6310   -5.4491   20.9240 C   0  0  0  0  0  0  0  0  0  0  0  0
    8.7671   -5.9888   16.8662 C   0  0  0  0  0  0  0  0  0  0  0  0
    4.3948   -8.6207   16.3789 C   0  0  0  0  0  0  0  0  0  0  0  0
    7.0037   -7.5259   17.3799 C   0  0  0  0  0  0  0  0  0  0  0  0
    9.5972   -5.0440   17.4649 C   0  0  0  0  0  0  0  0  0  0  0  0
   10.1415   -5.8257   19.8390 C   0  0  0  0  0  0  0  0  0  0  0  0
    6.3452   -8.5134   18.0450 C   0  0  0  0  0  0  0  0  0  0  0  0
    9.9731   -1.9805   24.2586 N   0  0  0  0  0  0  0  0  0  0  0  0
    5.1724   -7.6694   15.7373 C   0  0  0  0  0  0  0  0  0  0  0  0
   10.8119   -3.0649   17.7485 C   0  0  0  0  0  0  0  0  0  0  0  0
   10.2394   -5.0071   18.7065 C   0  0  0  0  0  0  0  0  0  0  0  0
    6.8521   -6.3446   15.4423 C   0  0  0  0  0  0  0  0  0  0  0  0
   10.7629   -4.0322   21.4420 He  0  0  0  0  0  0  0  0  0  0  0  0
   10.6352   -4.1227   24.9254 He  0  0  0  0  0  0  0  0  0  0  0  0
   10.9144   -4.5703   23.7009 He  0  0  0  0  0  0  0  0  0  0  0  0
  1  3  3  0
  1 13  2  0
  1 23  2  0
  2 10  4  0
  2 21  1  0
  2 22  4  0
  3 19  4  0
  4 14  1  0
  4 17  2  0
  5 16  4  0
  5 21  4  0
  6 13  1  0
  6 15  1  0
  7  9  4  0
  8 14  1  0
  8 18  1  0
  9 19  4  0
 11 15  1  0
 11 20  2  0
 11 23  1  0
 12 16  1  0
 12 17  4  0
 13 16  1  0
 14 20  1  0
 15 18  2  0
 16 22  4  0
 17 22  4  0
 21 22  1  0
M  END
$$$$

 Created by Python create_sdf_string function

 26 42  0  0  0  0  0  0  0  0999 V2000
   10.7586   -3.9819   21.2768 C   0  0  0  0  0  0  0  0  0  0  0  0
    8.0992   -5.6681   15.5912 C   0  0  0  0  0  0  0  0  0  0  0  0
   10.7121   -3.7481   19.0113 C   0  0  0  0  0  0  0  0  0  0  0  0
   10.3104   -2.8226   25.1956 C   0  0  0  0  0  0  0  0  0  0  0  0
    3.1806   -8.9611   16.3193 N   0  0  0  0  0  0  0  0  0  0  0  0
   10.2246   -4.0137   16.6674 C   0  0  0  0  0  0  0  0  0  0  0  0
    8.0633   -6.9778   17.7016 C   0  0  0  0  0  0  0  0  0  0  0  0
   10.5882   -3.5772   22.6119 C   0  0  0  0  0  0  0  0  0  0  0  0
    5.0841   -8.9455   17.8022 C   0  0  0  0  0  0  0  0  0  0  0  0
   10.2680   -2.4239   23.0285 C   0  0  0  0  0  0  0  0  0  0  0  0
   10.6619   -4.1336   25.0600 C   0  0  0  0  0  0  0  0  0  0  0  0
   10.9533   -3.2297   20.3264 C   0  0  0  0  0  0  0  0  0  0  0  0
    6.2784   -7.1772   16.0821 C   0  0  0  0  0  0  0  0  0  0  0  0
   10.6657   -5.5937   21.0601 C   0  0  0  0  0  0  0  0  0  0  0  0
    8.6990   -5.9987   16.8889 C   0  0  0  0  0  0  0  0  0  0  0  0
    4.3685   -8.7209   16.6929 C   0  0  0  0  0  0  0  0  0  0  0  0
    6.9953   -7.4491   17.4663 C   0  0  0  0  0  0  0  0  0  0  0  0
    9.7318   -5.1135   17.6745 C   0  0  0  0  0  0  0  0  0  0  0  0
   10.2054   -5.9419   19.6856 C   0  0  0  0  0  0  0  0  0  0  0  0
    6.3359   -8.4797   18.0506 C   0  0  0  0  0  0  0  0  0  0  0  0
    9.7975   -2.0433   24.3193 N   0  0  0  0  0  0  0  0  0  0  0  0
    5.1620   -7.6737   15.7080 C   0  0  0  0  0  0  0  0  0  0  0  0
   10.8146   -3.0527   17.6819 C   0  0  0  0  0  0  0  0  0  0  0  0
   10.1079   -5.0227   18.9538 C   0  0  0  0  0  0  0  0  0  0  0  0
   10.9010   -4.5546   23.6019 C   0  0  0  0  0  0  0  0  0  0  0  0
    6.9056   -6.2161   15.3605 C   0  0  0  0  0  0  0  0  0  0  0  0
  1  6  2  0
  1  8  1  0
  1 12  4  0
  1 14  4  0
  2 15  2  0
  2 26  2  0
  3 12  4  0
  3 23  4  0
  3 24  4  0
  4  5  2  0
  4 11  4  0
  4 21  4  0
  5 16  1  0
  5 19  2  0
  5 26  4  0
  6 18  4  0
  6 23  4  0
  7 15  1  0
  7 17  1  0
  8 10  4  0
  8 18  2  0
  8 25  4  0
  9 14  2  0
  9 16  1  0
  9 20  1  0
  9 22  4  0
 10 21  4  0
 10 26  1  0
 11 13  3  0
 11 25  4  0
 13 17  1  0
 13 20  2  0
 13 22  2  0
 13 26  1  0
 14 19  4  0
 14 20  3  0
 15 18  1  0
 16 22  1  0
 17 20  2  0
 17 23  1  0
 18 24  4  0
 19 24  4  0
M  END
$$$$

 Created by Python create_sdf_string function

 26 43  0  0  0  0  0  0  0  0999 V2000
   10.6664   -3.8941   21.3380 C   0  0  0  0  0  0  0  0  0  0  0  0
    8.0988   -5.6212   15.6228 C   0  0  0  0  0  0  0  0  0  0  0  0
   10.6740   -3.7101   19.0314 C   0  0  0  0  0  0  0  0  0  0  0  0
   10.2574   -2.7891   25.2687 C   0  0  0  0  0  0  0  0  0  0  0  0
    3.3387   -8.9894   16.3493 N   0  0  0  0  0  0  0  0  0  0  0  0
   10.1842   -4.0376   16.7054 C   0  0  0  0  0  0  0  0  0  0  0  0
    8.0725   -6.8861   17.7404 C   0  0  0  0  0  0  0  0  0  0  0  0
   10.6707   -3.7161   22.6123 C   0  0  0  0  0  0  0  0  0  0  0  0
    5.1242   -9.0493   17.7400 C   0  0  0  0  0  0  0  0  0  0  0  0
   10.1834   -2.4699   22.8663 C   0  0  0  0  0  0  0  0  0  0  0  0
   10.6764   -4.1022   25.0509 C   0  0  0  0  0  0  0  0  0  0  0  0
   10.8864   -3.2404   20.2646 C   0  0  0  0  0  0  0  0  0  0  0  0
    6.0838   -7.1890   16.1064 C   0  0  0  0  0  0  0  0  0  0  0  0
   10.5973   -5.4325   21.0612 C   0  0  0  0  0  0  0  0  0  0  0  0
    8.6907   -6.0694   16.7583 C   0  0  0  0  0  0  0  0  0  0  0  0
    4.3334   -8.5954   16.6021 C   0  0  0  0  0  0  0  0  0  0  0  0
    6.9492   -7.4422   17.3692 C   0  0  0  0  0  0  0  0  0  0  0  0
    9.7606   -4.9418   17.4739 C   0  0  0  0  0  0  0  0  0  0  0  0
   10.3159   -5.7168   19.6585 C   0  0  0  0  0  0  0  0  0  0  0  0
    6.3137   -8.4951   18.1316 C   0  0  0  0  0  0  0  0  0  0  0  0
   10.0033   -2.0598   24.2134 N   0  0  0  0  0  0  0  0  0  0  0  0
    5.1014   -7.6626   15.7681 F   0  0  0  0  0  0  0  0  0  0  0  0
   10.9185   -3.1184   17.7741 C   0  0  0  0  0  0  0  0  0  0  0  0
   10.1289   -4.9456   18.7168 C   0  0  0  0  0  0  0  0  0  0  0  0
   10.8854   -4.4114   23.7311 C   0  0  0  0  0  0  0  0  0  0  0  0
    6.9583   -6.2739   15.4543 C   0  0  0  0  0  0  0  0  0  0  0  0
  1  8  1  0
  1 12  4  0
  1 14  4  0
  1 19  2  0
  1 20  4  0
  2  6  1  0
  2 15  2  0
  2 26  2  0
  3  6  4  0
  3 10  1  0
  3 12  4  0
  3 23  4  0
  3 24  4  0
  4 11  4  0
  4 21  4  0
  5 16  1  0
  6 10  1  0
  6 13  3  0
  6 14  4  0
  6 18  4  0
  6 23  4  0
  7 13  3  0
  7 15  1  0
  7 17  1  0
  8 10  4  0
  8 25  4  0
  9 10  3  0
  9 16  1  0
  9 20  1  0
 10 21  4  0
 11 25  4  0
 12 25  1  0
 13 17  1  0
 13 22  2  0
 13 26  1  0
 14 19  4  0
 14 21  2  0
 15 18  1  0
 16 22  1  0
 17 20  2  0
 18 24  4  0
 19 24  4  0
 20 21  2  0
M  END
$$$$

 Created by Python create_sdf_string function

 26 36  0  0  0  0  0  0  0  0999 V2000
   10.6471   -4.0955   21.2419 C   0  0  0  0  0  0  0  0  0  0  0  0
    8.1227   -5.7302   15.6358 C   0  0  0  0  0  0  0  0  0  0  0  0
   10.6689   -3.6236   19.0288 C   0  0  0  0  0  0  0  0  0  0  0  0
   10.2775   -2.8135   25.2988 C   0  0  0  0  0  0  0  0  0  0  0  0
    3.2427   -9.0752   16.2937 N   0  0  0  0  0  0  0  0  0  0  0  0
   10.3339   -3.9363   16.6478 C   0  0  0  0  0  0  0  0  0  0  0  0
    8.1449   -6.8043   17.7714 C   0  0  0  0  0  0  0  0  0  0  0  0
    5.0801   -8.9997   17.7305 C   0  0  0  0  0  0  0  0  0  0  0  0
   10.1994   -2.2815   22.9123 C   0  0  0  0  0  0  0  0  0  0  0  0
   10.8070   -4.1047   25.0481 C   0  0  0  0  0  0  0  0  0  0  0  0
   10.9046   -3.1075   20.3118 C   0  0  0  0  0  0  0  0  0  0  0  0
    6.2370   -7.1629   16.1083 F   0  0  0  0  0  0  0  0  0  0  0  0
   10.6871   -5.4102   21.1319 C   0  0  0  0  0  0  0  0  0  0  0  0
    8.7565   -5.9885   16.7585 C   0  0  0  0  0  0  0  0  0  0  0  0
    4.3928   -8.7015   16.5812 C   0  0  0  0  0  0  0  0  0  0  0  0
    7.0198   -7.5665   17.3284 C   0  0  0  0  0  0  0  0  0  0  0  0
    9.7411   -4.8750   17.3415 C   0  0  0  0  0  0  0  0  0  0  0  0
   10.2704   -5.9777   19.7048 C   0  0  0  0  0  0  0  0  0  0  0  0
    6.2446   -8.4571   18.0775 C   0  0  0  0  0  0  0  0  0  0  0  0
   10.0610   -1.9711   24.3134 N   0  0  0  0  0  0  0  0  0  0  0  0
    5.0675   -7.6686   15.7827 C   0  0  0  0  0  0  0  0  0  0  0  0
   10.8874   -3.0357   17.6518 C   0  0  0  0  0  0  0  0  0  0  0  0
   10.2634   -4.9735   18.6673 C   0  0  0  0  0  0  0  0  0  0  0  0
   10.9848   -4.5219   23.7125 C   0  0  0  0  0  0  0  0  0  0  0  0
    6.8193   -6.2396   15.3386 C   0  0  0  0  0  0  0  0  0  0  0  0
   10.6568   -3.6151   22.7498 He  0  0  0  0  0  0  0  0  0  0  0  0
  1  6  3  0
  1 11  4  0
  1 13  4  0
  2  8  4  0
  2 14  2  0
  2 25  2  0
  3 11  4  0
  3 14  1  0
  3 19  3  0
  3 22  4  0
  3 23  4  0
  4 10  4  0
  4 20  4  0
  5 15  1  0
  6 11  4  0
  6 13  4  0
  6 17  4  0
  6 22  4  0
  7 14  1  0
  7 16  1  0
  8 15  1  0
  8 19  1  0
  9 20  4  0
 10 24  4  0
 11 19  2  0
 12 16  1  0
 12 21  2  0
 12 25  1  0
 13 18  4  0
 14 17  1  0
 15 21  2  0
 16 19  2  0
 17 22  3  0
 17 23  4  0
 18 23  4  0
 22 24  1  0
M  END
$$$$

 Created by Python create_sdf_string function

 26 33  0  0  0  0  0  0  0  0999 V2000
   10.7456   -4.0912   21.3720 C   0  0  0  0  0  0  0  0  0  0  0  0
    8.0698   -5.6786   15.6462 C   0  0  0  0  0  0  0  0  0  0  0  0
   10.6361   -3.7270   19.0976 C   0  0  0  0  0  0  0  0  0  0  0  0
   10.1737   -2.8584   25.3763 C   0  0  0  0  0  0  0  0  0  0  0  0
    3.2089   -9.1033   16.3675 N   0  0  0  0  0  0  0  0  0  0  0  0
   10.2870   -3.6742   16.6624 C   0  0  0  0  0  0  0  0  0  0  0  0
    8.0645   -6.7903   17.6717 C   0  0  0  0  0  0  0  0  0  0  0  0
   10.6085   -3.6590   22.5503 C   0  0  0  0  0  0  0  0  0  0  0  0
    5.1213   -8.9434   17.7865 C   0  0  0  0  0  0  0  0  0  0  0  0
   10.1360   -2.3021   22.8752 C   0  0  0  0  0  0  0  0  0  0  0  0
   10.7286   -4.0528   25.1119 C   0  0  0  0  0  0  0  0  0  0  0  0
   10.8703   -3.2373   20.2270 C   0  0  0  0  0  0  0  0  0  0  0  0
    6.3517   -7.1153   16.1366 C   0  0  0  0  0  0  0  0  0  0  0  0
   10.5401   -5.3611   21.0088 C   0  0  0  0  0  0  0  0  0  0  0  0
    8.8129   -5.8577   16.9410 C   0  0  0  0  0  0  0  0  0  0  0  0
    4.4155   -8.5653   16.5191 C   0  0  0  0  0  0  0  0  0  0  0  0
    6.9947   -7.3955   17.3813 C   0  0  0  0  0  0  0  0  0  0  0  0
    9.7893   -5.0616   17.4816 C   0  0  0  0  0  0  0  0  0  0  0  0
   10.1455   -5.7662   19.7650 C   0  0  0  0  0  0  0  0  0  0  0  0
    6.2316   -8.5185   18.0277 C   0  0  0  0  0  0  0  0  0  0  0  0
    4.9875   -7.6946   15.7834 C   0  0  0  0  0  0  0  0  0  0  0  0
   10.8841   -2.9622   17.7782 C   0  0  0  0  0  0  0  0  0  0  0  0
   10.1302   -4.9326   18.7551 C   0  0  0  0  0  0  0  0  0  0  0  0
   10.9606   -4.4751   23.8100 C   0  0  0  0  0  0  0  0  0  0  0  0
    6.8686   -6.2472   15.2727 C   0  0  0  0  0  0  0  0  0  0  0  0
   10.0022   -1.8637   24.2859 He  0  0  0  0  0  0  0  0  0  0  0  0
  1  8  1  0
  1 12  4  0
  1 14  4  0
  2 15  2  0
  2 25  2  0
  3 12  4  0
  3 14  3  0
  3 22  4  0
  3 23  4  0
  3 24  3  0
  4 11  4  0
  5 16  1  0
  6 18  4  0
  6 22  4  0
  7 15  1  0
  7 17  1  0
  8 10  4  0
  8 24  4  0
  9 16  1  0
  9 20  1  0
  9 23  2  0
 10 18  3  0
 11 24  4  0
 13 17  1  0
 13 21  2  0
 13 25  1  0
 14 19  4  0
 15 18  1  0
 16 21  2  0
 16 23  3  0
 17 20  2  0
 18 23  4  0
 19 23  4  0
M  END
$$$$

 Created by Python create_sdf_string function

 26 33  0  0  0  0  0  0  0  0999 V2000
   10.6652   -4.0959   21.3850 C   0  0  0  0  0  0  0  0  0  0  0  0
    8.0159   -5.6652   15.7942 C   0  0  0  0  0  0  0  0  0  0  0  0
   10.7216   -3.6403   19.0349 C   0  0  0  0  0  0  0  0  0  0  0  0
   10.2180   -2.7613   25.3743 C   0  0  0  0  0  0  0  0  0  0  0  0
    3.2346   -9.1152   16.4095 N   0  0  0  0  0  0  0  0  0  0  0  0
    8.1266   -6.8068   17.7356 C   0  0  0  0  0  0  0  0  0  0  0  0
   10.6034   -3.5755   22.7093 C   0  0  0  0  0  0  0  0  0  0  0  0
    4.9853   -8.9303   17.7314 C   0  0  0  0  0  0  0  0  0  0  0  0
   10.2706   -2.2668   22.9152 C   0  0  0  0  0  0  0  0  0  0  0  0
   10.6932   -4.0466   24.9892 C   0  0  0  0  0  0  0  0  0  0  0  0
   10.8781   -3.0657   20.2007 C   0  0  0  0  0  0  0  0  0  0  0  0
    6.3140   -7.1425   16.0999 C   0  0  0  0  0  0  0  0  0  0  0  0
   10.5670   -5.3988   21.0583 C   0  0  0  0  0  0  0  0  0  0  0  0
    8.7524   -5.8681   16.8425 C   0  0  0  0  0  0  0  0  0  0  0  0
    4.4188   -8.4535   16.5837 C   0  0  0  0  0  0  0  0  0  0  0  0
    6.9873   -7.4452   17.2713 C   0  0  0  0  0  0  0  0  0  0  0  0
    9.6410   -5.0702   17.4575 C   0  0  0  0  0  0  0  0  0  0  0  0
   10.0623   -5.7764   19.7782 C   0  0  0  0  0  0  0  0  0  0  0  0
    9.9705   -1.9722   24.2610 C   0  0  0  0  0  0  0  0  0  0  0  0
    5.1090   -7.6202   15.7941 C   0  0  0  0  0  0  0  0  0  0  0  0
   10.9500   -3.0637   17.7925 C   0  0  0  0  0  0  0  0  0  0  0  0
   10.0789   -4.9697   18.7504 C   0  0  0  0  0  0  0  0  0  0  0  0
   10.9377   -4.3618   23.8919 C   0  0  0  0  0  0  0  0  0  0  0  0
    6.9884   -6.3371   15.3923 C   0  0  0  0  0  0  0  0  0  0  0  0
   10.2735   -3.7638   16.8177 He  0  0  0  0  0  0  0  0  0  0  0  0
    6.3235   -8.4377   18.0748 He  0  0  0  0  0  0  0  0  0  0  0  0
  1  7  1  0
  1  8  4  0
  1 11  4  0
  1 13  4  0
  2 14  2  0
  2 24  2  0
  3 11  4  0
  3 19  2  0
  3 21  4  0
  3 22  4  0
  4  8  1  0
  4 10  4  0
  4 19  4  0
  5 15  1  0
  6 14  1  0
  6 16  1  0
  6 22  2  0
  7  9  4  0
  7 11  1  0
  7 23  4  0
  8 15  1  0
 10 18  2  0
 10 23  4  0
 10 24  3  0
 12 16  1  0
 12 20  2  0
 12 24  1  0
 13 18  4  0
 14 17  1  0
 15 20  2  0
 17 22  4  0
 17 24  4  0
 18 22  4  0
M  END
$$$$

 Created by Python create_sdf_string function

 26 30  0  0  0  0  0  0  0  0999 V2000
   10.7254   -4.0380   21.2908 C   0  0  0  0  0  0  0  0  0  0  0  0
    8.0205   -5.6458   15.7783 C   0  0  0  0  0  0  0  0  0  0  0  0
   10.7265   -3.6341   19.0482 C   0  0  0  0  0  0  0  0  0  0  0  0
    3.2529   -9.0464   16.3406 N   0  0  0  0  0  0  0  0  0  0  0  0
    8.1241   -6.8414   17.6904 C   0  0  0  0  0  0  0  0  0  0  0  0
   10.6165   -3.5395   22.6607 C   0  0  0  0  0  0  0  0  0  0  0  0
    5.1299   -8.9914   17.7589 C   0  0  0  0  0  0  0  0  0  0  0  0
   10.1920   -2.3068   22.9357 C   0  0  0  0  0  0  0  0  0  0  0  0
   10.8215   -4.0199   25.1761 C   0  0  0  0  0  0  0  0  0  0  0  0
   10.8538   -3.0997   20.2675 C   0  0  0  0  0  0  0  0  0  0  0  0
    6.3624   -7.1689   16.0656 C   0  0  0  0  0  0  0  0  0  0  0  0
   10.4547   -5.4363   21.1148 C   0  0  0  0  0  0  0  0  0  0  0  0
    8.6296   -5.9158   16.9259 C   0  0  0  0  0  0  0  0  0  0  0  0
    4.4199   -8.5219   16.6890 C   0  0  0  0  0  0  0  0  0  0  0  0
    7.0595   -7.4236   17.3563 C   0  0  0  0  0  0  0  0  0  0  0  0
    9.6161   -4.9850   17.5379 C   0  0  0  0  0  0  0  0  0  0  0  0
   10.1657   -5.7694   19.7192 C   0  0  0  0  0  0  0  0  0  0  0  0
    9.9192   -1.8482   24.3667 C   0  0  0  0  0  0  0  0  0  0  0  0
    5.0790   -7.6043   15.8443 C   0  0  0  0  0  0  0  0  0  0  0  0
   10.8437   -3.0538   17.7471 C   0  0  0  0  0  0  0  0  0  0  0  0
   10.1463   -4.8684   18.7770 C   0  0  0  0  0  0  0  0  0  0  0  0
   10.8860   -4.4579   23.7896 C   0  0  0  0  0  0  0  0  0  0  0  0
    6.9941   -6.2113   15.3147 O   0  0  0  0  0  0  0  0  0  0  0  0
   10.2892   -2.7744   25.3119 He  0  0  0  0  0  0  0  0  0  0  0  0
   10.3436   -3.9364   16.8787 He  0  0  0  0  0  0  0  0  0  0  0  0
    6.2950   -8.4415   18.1051 He  0  0  0  0  0  0  0  0  0  0  0  0
  1  6  1  0
  1 10  4  0
  1 12  4  0
  2 13  2  0
  2 23  2  0
  3 10  4  0
  3 20  4  0
  3 21  4  0
  4 14  1  0
  5 13  1  0
  5 15  1  0
  6  8  4  0
  6 18  4  0
  6 22  4  0
  7 14  1  0
  8 18  4  0
  9 22  4  0
 10 22  4  0
 11 14  1  0
 11 15  1  0
 11 19  2  0
 11 23  1  0
 12 16  1  0
 12 17  4  0
 13 16  1  0
 14 19  2  0
 14 20  2  0
 16 21  4  0
 16 22  3  0
 17 21  4  0
M  END
$$$$

 Created by Python create_sdf_string function

 26 31  0  0  0  0  0  0  0  0999 V2000
   10.6960   -3.9988   21.4475 C   0  0  0  0  0  0  0  0  0  0  0  0
    8.0665   -5.6252   15.7426 C   0  0  0  0  0  0  0  0  0  0  0  0
   10.7346   -3.6834   19.0726 C   0  0  0  0  0  0  0  0  0  0  0  0
   10.2753   -2.7074   25.3448 C   0  0  0  0  0  0  0  0  0  0  0  0
    3.2940   -8.9693   16.3364 N   0  0  0  0  0  0  0  0  0  0  0  0
   10.1977   -3.8546   16.7847 C   0  0  0  0  0  0  0  0  0  0  0  0
    8.1649   -6.8655   17.6799 C   0  0  0  0  0  0  0  0  0  0  0  0
    5.0842   -8.8622   17.7376 C   0  0  0  0  0  0  0  0  0  0  0  0
   10.1055   -2.3420   22.9834 C   0  0  0  0  0  0  0  0  0  0  0  0
   10.7703   -4.0422   25.1541 C   0  0  0  0  0  0  0  0  0  0  0  0
   10.8527   -3.1917   20.2515 C   0  0  0  0  0  0  0  0  0  0  0  0
    6.3436   -7.0879   16.0981 C   0  0  0  0  0  0  0  0  0  0  0  0
   10.6165   -5.3887   21.0846 C   0  0  0  0  0  0  0  0  0  0  0  0
    8.7106   -5.8431   16.9240 C   0  0  0  0  0  0  0  0  0  0  0  0
    4.4570   -8.4156   16.6843 C   0  0  0  0  0  0  0  0  0  0  0  0
    6.9224   -7.5614   17.3734 C   0  0  0  0  0  0  0  0  0  0  0  0
    9.6820   -4.9342   17.4955 C   0  0  0  0  0  0  0  0  0  0  0  0
   10.0628   -5.7388   19.7509 C   0  0  0  0  0  0  0  0  0  0  0  0
    6.3802   -8.4636   18.1507 C   0  0  0  0  0  0  0  0  0  0  0  0
    9.9289   -1.8138   24.3327 C   0  0  0  0  0  0  0  0  0  0  0  0
    5.1860   -7.6521   15.7986 C   0  0  0  0  0  0  0  0  0  0  0  0
   10.9289   -3.1024   17.6983 C   0  0  0  0  0  0  0  0  0  0  0  0
   10.1589   -4.8462   18.7747 C   0  0  0  0  0  0  0  0  0  0  0  0
   10.8783   -4.4784   23.8488 C   0  0  0  0  0  0  0  0  0  0  0  0
    6.9491   -6.1596   15.3352 O   0  0  0  0  0  0  0  0  0  0  0  0
   10.5354   -3.5550   22.6459 He  0  0  0  0  0  0  0  0  0  0  0  0
  1 11  4  0
  1 13  4  0
  2 14  2  0
  2 25  2  0
  3 11  4  0
  3 22  4  0
  3 23  4  0
  4 10  4  0
  4 20  4  0
  5 15  1  0
  5 19  1  0
  6 10  1  0
  6 17  4  0
  6 22  4  0
  7 14  1  0
  7 16  1  0
  8 15  1  0
  8 19  1  0
  9 20  4  0
 10 24  4  0
 12 16  1  0
 12 21  2  0
 12 25  1  0
 13 18  4  0
 14 17  1  0
 15 21  2  0
 15 25  4  0
 16 19  2  0
 17 23  4  0
 18 23  4  0
 21 25  1  0
M  END
$$$$

 Created by Python create_sdf_string function

 26 27  0  0  0  0  0  0  0  0999 V2000
   10.6959   -4.0690   21.3910 C   0  0  0  0  0  0  0  0  0  0  0  0
    8.0982   -5.6028   15.8032 C   0  0  0  0  0  0  0  0  0  0  0  0
   10.6844   -3.6304   19.0086 C   0  0  0  0  0  0  0  0  0  0  0  0
   10.2464   -2.7162   25.3263 C   0  0  0  0  0  0  0  0  0  0  0  0
    3.3568   -8.9118   16.3896 N   0  0  0  0  0  0  0  0  0  0  0  0
   10.2498   -3.8618   16.8358 C   0  0  0  0  0  0  0  0  0  0  0  0
    8.0949   -6.8593   17.6985 C   0  0  0  0  0  0  0  0  0  0  0  0
   10.5801   -3.5269   22.7430 C   0  0  0  0  0  0  0  0  0  0  0  0
    5.0653   -8.8391   17.7207 C   0  0  0  0  0  0  0  0  0  0  0  0
   10.1291   -2.3173   22.9021 C   0  0  0  0  0  0  0  0  0  0  0  0
   10.7534   -4.0971   25.1795 C   0  0  0  0  0  0  0  0  0  0  0  0
   10.8926   -3.1519   20.2640 C   0  0  0  0  0  0  0  0  0  0  0  0
    6.3834   -7.0568   16.1595 C   0  0  0  0  0  0  0  0  0  0  0  0
   10.4746   -5.4582   21.1483 C   0  0  0  0  0  0  0  0  0  0  0  0
    8.6803   -5.8291   16.9182 C   0  0  0  0  0  0  0  0  0  0  0  0
    4.4429   -8.4525   16.5823 C   0  0  0  0  0  0  0  0  0  0  0  0
    6.9719   -7.4473   17.3447 C   0  0  0  0  0  0  0  0  0  0  0  0
    9.6219   -4.8066   17.4953 O   0  0  0  0  0  0  0  0  0  0  0  0
   10.1112   -5.7945   19.7974 C   0  0  0  0  0  0  0  0  0  0  0  0
    6.3606   -8.3733   18.0636 C   0  0  0  0  0  0  0  0  0  0  0  0
    9.9740   -1.8422   24.2552 C   0  0  0  0  0  0  0  0  0  0  0  0
    5.1873   -7.6343   15.7915 C   0  0  0  0  0  0  0  0  0  0  0  0
   10.8169   -2.9830   17.7272 C   0  0  0  0  0  0  0  0  0  0  0  0
   10.8968   -4.4346   23.8242 C   0  0  0  0  0  0  0  0  0  0  0  0
    6.9401   -6.1858   15.4073 O   0  0  0  0  0  0  0  0  0  0  0  0
   10.1574   -4.8700   18.7669 He  0  0  0  0  0  0  0  0  0  0  0  0
  1  8  1  0
  1 12  4  0
  1 13  4  0
  1 14  4  0
  2 15  2  0
  2 25  2  0
  3 12  4  0
  3 23  4  0
  4 11  4  0
  4 21  4  0
  5 16  1  0
  6 18  4  0
  6 23  4  0
  7 17  1  0
  8 10  4  0
  8 24  4  0
  9 16  1  0
  9 20  1  0
 10 21  4  0
 11 24  4  0
 13 17  1  0
 13 22  2  0
 13 25  1  0
 14 19  4  0
 15 18  1  0
 16 22  2  0
 17 20  2  0
M  END
$$$$

 Created by Python create_sdf_string function

 26 33  0  0  0  0  0  0  0  0999 V2000
   10.6909   -4.1112   21.3612 C   0  0  0  0  0  0  0  0  0  0  0  0
    8.0202   -5.5807   15.7335 C   0  0  0  0  0  0  0  0  0  0  0  0
   10.7206   -3.5346   19.0349 C   0  0  0  0  0  0  0  0  0  0  0  0
   10.3184   -2.7364   25.3987 C   0  0  0  0  0  0  0  0  0  0  0  0
    3.3549   -8.9026   16.2934 N   0  0  0  0  0  0  0  0  0  0  0  0
   10.2403   -3.8271   16.8276 C   0  0  0  0  0  0  0  0  0  0  0  0
    8.1647   -6.8633   17.6782 C   0  0  0  0  0  0  0  0  0  0  0  0
   10.5829   -3.6294   22.7131 C   0  0  0  0  0  0  0  0  0  0  0  0
    5.0618   -8.9010   17.7410 C   0  0  0  0  0  0  0  0  0  0  0  0
   10.1318   -2.2317   22.8967 C   0  0  0  0  0  0  0  0  0  0  0  0
   10.7018   -4.0296   25.2002 C   0  0  0  0  0  0  0  0  0  0  0  0
   10.9225   -3.1814   20.3214 C   0  0  0  0  0  0  0  0  0  0  0  0
    6.3845   -7.0484   16.0956 C   0  0  0  0  0  0  0  0  0  0  0  0
   10.4262   -5.4540   21.1465 C   0  0  0  0  0  0  0  0  0  0  0  0
    8.7202   -5.8117   16.9631 C   0  0  0  0  0  0  0  0  0  0  0  0
    4.5588   -8.4419   16.5824 C   0  0  0  0  0  0  0  0  0  0  0  0
    6.9313   -7.3963   17.3133 C   0  0  0  0  0  0  0  0  0  0  0  0
    9.6886   -4.9259   17.4346 N   0  0  0  0  0  0  0  0  0  0  0  0
   10.0976   -5.7954   19.8060 C   0  0  0  0  0  0  0  0  0  0  0  0
    6.3084   -8.3516   18.0784 C   0  0  0  0  0  0  0  0  0  0  0  0
    9.9536   -1.8850   24.2625 C   0  0  0  0  0  0  0  0  0  0  0  0
    5.1546   -7.6181   15.9097 C   0  0  0  0  0  0  0  0  0  0  0  0
   10.8520   -3.0402   17.7295 C   0  0  0  0  0  0  0  0  0  0  0  0
   10.1259   -4.8218   18.8186 C   0  0  0  0  0  0  0  0  0  0  0  0
   10.9065   -4.5093   23.8062 C   0  0  0  0  0  0  0  0  0  0  0  0
    6.9973   -6.1981   15.3764 O   0  0  0  0  0  0  0  0  0  0  0  0
  1  8  1  0
  1 12  4  0
  1 14  4  0
  2 15  2  0
  2 26  2  0
  3 12  4  0
  3 23  4  0
  3 24  4  0
  4 11  4  0
  4 21  4  0
  5 16  1  0
  6 18  4  0
  6 23  4  0
  7 15  1  0
  7 17  1  0
  8 10  4  0
  8 25  4  0
  9 16  1  0
  9 20  1  0
 10 21  4  0
 11 25  4  0
 13 17  1  0
 13 22  2  0
 13 26  1  0
 14 19  4  0
 14 21  1  0
 15 18  1  0
 16 22  2  0
 17 20  2  0
 18 24  4  0
 19 21  4  0
 19 24  4  0
 20 25  2  0
M  END
$$$$

 Created by Python create_sdf_string function

 26 27  0  0  0  0  0  0  0  0999 V2000
   10.6586   -4.0552   21.3820 C   0  0  0  0  0  0  0  0  0  0  0  0
    8.0909   -5.6066   15.7716 C   0  0  0  0  0  0  0  0  0  0  0  0
   10.7320   -3.6074   19.0228 C   0  0  0  0  0  0  0  0  0  0  0  0
   10.2598   -2.7727   25.3883 C   0  0  0  0  0  0  0  0  0  0  0  0
    3.4240   -8.9037   16.2794 N   0  0  0  0  0  0  0  0  0  0  0  0
   10.2186   -3.8239   16.8213 C   0  0  0  0  0  0  0  0  0  0  0  0
    8.1349   -6.8232   17.6803 C   0  0  0  0  0  0  0  0  0  0  0  0
   10.5552   -3.6110   22.7518 C   0  0  0  0  0  0  0  0  0  0  0  0
    5.1813   -8.8711   17.7658 C   0  0  0  0  0  0  0  0  0  0  0  0
   10.1857   -2.3032   22.9336 C   0  0  0  0  0  0  0  0  0  0  0  0
   10.7258   -3.9945   25.1583 C   0  0  0  0  0  0  0  0  0  0  0  0
   10.8905   -3.2036   20.2924 C   0  0  0  0  0  0  0  0  0  0  0  0
    6.3128   -7.0974   16.1395 C   0  0  0  0  0  0  0  0  0  0  0  0
   10.4523   -5.4795   21.1164 C   0  0  0  0  0  0  0  0  0  0  0  0
    8.7262   -5.7752   16.9374 C   0  0  0  0  0  0  0  0  0  0  0  0
    4.5027   -8.4591   16.5797 C   0  0  0  0  0  0  0  0  0  0  0  0
    6.9602   -7.4088   17.2896 C   0  0  0  0  0  0  0  0  0  0  0  0
    9.6653   -4.9054   17.5122 N   0  0  0  0  0  0  0  0  0  0  0  0
   10.0411   -5.8115   19.7939 C   0  0  0  0  0  0  0  0  0  0  0  0
    6.3122   -8.3450   18.0974 C   0  0  0  0  0  0  0  0  0  0  0  0
    9.9962   -1.8739   24.2780 C   0  0  0  0  0  0  0  0  0  0  0  0
    5.2600   -7.5593   15.8177 C   0  0  0  0  0  0  0  0  0  0  0  0
   10.1460   -4.8586   18.8211 C   0  0  0  0  0  0  0  0  0  0  0  0
   10.9352   -4.4878   23.7521 C   0  0  0  0  0  0  0  0  0  0  0  0
    6.9873   -6.2242   15.3744 O   0  0  0  0  0  0  0  0  0  0  0  0
   10.8294   -2.9621   17.7259 He  0  0  0  0  0  0  0  0  0  0  0  0
  1  7  4  0
  1  8  1  0
  1 12  4  0
  1 14  4  0
  2 15  2  0
  2 25  2  0
  3 12  4  0
  3 23  4  0
  4 21  4  0
  5 16  1  0
  6 18  4  0
  7 15  1  0
  8 10  2  0
  8 24  4  0
  9 16  1  0
  9 20  1  0
 10 21  4  0
 11 24  4  0
 13 17  1  0
 13 22  2  0
 13 25  1  0
 14 19  4  0
 15 18  1  0
 16 22  4  0
 17 20  2  0
 18 23  4  0
 19 23  4  0
M  END
$$$$

 Created by Python create_sdf_string function

 26 32  0  0  0  0  0  0  0  0999 V2000
   10.6421   -4.1016   21.3708 C   0  0  0  0  0  0  0  0  0  0  0  0
    8.0957   -5.5848   15.7840 C   0  0  0  0  0  0  0  0  0  0  0  0
   10.6885   -3.6325   19.0148 C   0  0  0  0  0  0  0  0  0  0  0  0
   10.2834   -2.7356   25.3742 C   0  0  0  0  0  0  0  0  0  0  0  0
    3.4086   -8.9573   16.3040 N   0  0  0  0  0  0  0  0  0  0  0  0
   10.1937   -3.8262   16.8251 C   0  0  0  0  0  0  0  0  0  0  0  0
    8.1674   -6.8057   17.6570 C   0  0  0  0  0  0  0  0  0  0  0  0
   10.6286   -3.6226   22.6908 C   0  0  0  0  0  0  0  0  0  0  0  0
    5.1430   -8.8977   17.7633 C   0  0  0  0  0  0  0  0  0  0  0  0
   10.1359   -2.3016   22.9990 C   0  0  0  0  0  0  0  0  0  0  0  0
   10.7525   -4.0482   25.1220 C   0  0  0  0  0  0  0  0  0  0  0  0
   10.9100   -3.2053   20.2619 C   0  0  0  0  0  0  0  0  0  0  0  0
    6.3075   -7.0648   16.0879 C   0  0  0  0  0  0  0  0  0  0  0  0
   10.4438   -5.4315   21.1103 C   0  0  0  0  0  0  0  0  0  0  0  0
    8.7497   -5.7927   16.9311 C   0  0  0  0  0  0  0  0  0  0  0  0
    4.5356   -8.4462   16.5428 C   0  0  0  0  0  0  0  0  0  0  0  0
    9.6613   -4.9035   17.5556 N   0  0  0  0  0  0  0  0  0  0  0  0
   10.0709   -5.8249   19.7649 C   0  0  0  0  0  0  0  0  0  0  0  0
    6.3249   -8.3037   18.0786 C   0  0  0  0  0  0  0  0  0  0  0  0
    9.9829   -1.8362   24.2633 C   0  0  0  0  0  0  0  0  0  0  0  0
    5.1703   -7.5913   15.8090 C   0  0  0  0  0  0  0  0  0  0  0  0
   10.8020   -2.9891   17.7533 C   0  0  0  0  0  0  0  0  0  0  0  0
   10.1072   -4.8723   18.8153 C   0  0  0  0  0  0  0  0  0  0  0  0
   10.9264   -4.4895   23.8716 C   0  0  0  0  0  0  0  0  0  0  0  0
    7.0051   -6.1871   15.3922 O   0  0  0  0  0  0  0  0  0  0  0  0
    6.9489   -7.4307   17.3112 He  0  0  0  0  0  0  0  0  0  0  0  0
  1  8  1  0
  1 12  4  0
  1 14  4  0
  2 15  2  0
  2 25  2  0
  3 12  4  0
  3 22  4  0
  3 23  4  0
  4 11  4  0
  4 15  3  0
  4 20  4  0
  4 23  1  0
  4 24  4  0
  5  7  4  0
  5 16  1  0
  6 17  4  0
  6 22  4  0
  7 15  1  0
  8 10  4  0
  8 19  4  0
  8 24  4  0
  9 16  1  0
  9 19  1  0
 10 20  4  0
 11 24  4  0
 13 21  2  0
 13 25  1  0
 14 18  4  0
 15 17  1  0
 16 21  2  0
 16 25  2  0
 17 23  4  0
M  END
$$$$

 Created by Python create_sdf_string function

 26 28  0  0  0  0  0  0  0  0999 V2000
   10.6879   -4.0559   21.3796 C   0  0  0  0  0  0  0  0  0  0  0  0
    8.0756   -5.5989   15.7736 C   0  0  0  0  0  0  0  0  0  0  0  0
   10.6706   -3.5781   19.0484 C   0  0  0  0  0  0  0  0  0  0  0  0
   10.3030   -2.7203   25.3473 C   0  0  0  0  0  0  0  0  0  0  0  0
    3.4374   -8.9403   16.3089 N   0  0  0  0  0  0  0  0  0  0  0  0
   10.1486   -3.8019   16.8385 C   0  0  0  0  0  0  0  0  0  0  0  0
    8.1309   -6.8148   17.7203 C   0  0  0  0  0  0  0  0  0  0  0  0
   10.5690   -3.6233   22.7437 C   0  0  0  0  0  0  0  0  0  0  0  0
    5.1804   -8.8384   17.7187 C   0  0  0  0  0  0  0  0  0  0  0  0
   10.1522   -2.3280   22.9532 C   0  0  0  0  0  0  0  0  0  0  0  0
   10.7612   -4.0509   25.1285 C   0  0  0  0  0  0  0  0  0  0  0  0
   10.9078   -3.2200   20.2713 C   0  0  0  0  0  0  0  0  0  0  0  0
    6.3555   -7.0302   16.1503 C   0  0  0  0  0  0  0  0  0  0  0  0
   10.4564   -5.4478   21.1333 C   0  0  0  0  0  0  0  0  0  0  0  0
    8.7400   -5.8097   16.9651 C   0  0  0  0  0  0  0  0  0  0  0  0
    4.5267   -8.4625   16.5645 C   0  0  0  0  0  0  0  0  0  0  0  0
    7.0113   -7.4296   17.3428 C   0  0  0  0  0  0  0  0  0  0  0  0
    9.6799   -4.9313   17.4627 N   0  0  0  0  0  0  0  0  0  0  0  0
   10.0938   -5.7772   19.7542 C   0  0  0  0  0  0  0  0  0  0  0  0
    6.3470   -8.3366   18.1425 C   0  0  0  0  0  0  0  0  0  0  0  0
    9.9876   -1.8713   24.2896 C   0  0  0  0  0  0  0  0  0  0  0  0
    5.2013   -7.6185   15.8222 C   0  0  0  0  0  0  0  0  0  0  0  0
   10.8120   -3.0183   17.7850 C   0  0  0  0  0  0  0  0  0  0  0  0
   10.9088   -4.4657   23.8214 C   0  0  0  0  0  0  0  0  0  0  0  0
    7.0378   -6.1892   15.3622 O   0  0  0  0  0  0  0  0  0  0  0  0
   10.1059   -4.8692   18.8218 He  0  0  0  0  0  0  0  0  0  0  0  0
  1  8  1  0
  1 12  4  0
  1 14  4  0
  2 15  2  0
  2 25  2  0
  3 12  4  0
  3 23  4  0
  4 11  4  0
  4 21  4  0
  5 16  1  0
  6 18  4  0
  6 23  4  0
  7 15  1  0
  7 17  1  0
  8 10  4  0
  8 24  4  0
  9 16  1  0
  9 20  2  0
 10 21  4  0
 11 24  4  0
 13 17  1  0
 13 22  2  0
 13 25  1  0
 14 19  4  0
 15 18  1  0
 16 22  2  0
 17 20  2  0
 20 24  1  0
M  END
$$$$

 Created by Python create_sdf_string function

 26 30  0  0  0  0  0  0  0  0999 V2000
   10.6708   -4.0442   21.3689 C   0  0  0  0  0  0  0  0  0  0  0  0
    8.1394   -5.5806   15.8101 C   0  0  0  0  0  0  0  0  0  0  0  0
   10.6814   -3.6212   19.0469 C   0  0  0  0  0  0  0  0  0  0  0  0
   10.2911   -2.7108   25.3620 C   0  0  0  0  0  0  0  0  0  0  0  0
    3.4687   -8.9346   16.3131 N   0  0  0  0  0  0  0  0  0  0  0  0
   10.1349   -3.7759   16.8558 C   0  0  0  0  0  0  0  0  0  0  0  0
    8.1503   -6.8464   17.7128 C   0  0  0  0  0  0  0  0  0  0  0  0
   10.6055   -3.5871   22.7581 C   0  0  0  0  0  0  0  0  0  0  0  0
    5.1800   -8.8748   17.7200 B   0  0  0  0  0  0  0  0  0  0  0  0
   10.1575   -2.3099   22.9645 C   0  0  0  0  0  0  0  0  0  0  0  0
   10.7432   -4.0311   25.1224 C   0  0  0  0  0  0  0  0  0  0  0  0
   10.9050   -3.1736   20.3413 C   0  0  0  0  0  0  0  0  0  0  0  0
    6.3554   -7.0487   16.1209 C   0  0  0  0  0  0  0  0  0  0  0  0
   10.4589   -5.4304   21.1011 C   0  0  0  0  0  0  0  0  0  0  0  0
    8.7179   -5.7645   16.9249 C   0  0  0  0  0  0  0  0  0  0  0  0
    7.0087   -7.3985   17.3765 C   0  0  0  0  0  0  0  0  0  0  0  0
    9.6616   -4.8924   17.4761 N   0  0  0  0  0  0  0  0  0  0  0  0
   10.0798   -5.8214   19.7707 C   0  0  0  0  0  0  0  0  0  0  0  0
    6.3553   -8.3088   18.1112 C   0  0  0  0  0  0  0  0  0  0  0  0
    9.9943   -1.8671   24.2906 C   0  0  0  0  0  0  0  0  0  0  0  0
    5.2248   -7.5684   15.8350 C   0  0  0  0  0  0  0  0  0  0  0  0
   10.8092   -2.9876   17.7866 C   0  0  0  0  0  0  0  0  0  0  0  0
   10.1340   -4.8675   18.8524 C   0  0  0  0  0  0  0  0  0  0  0  0
   10.9330   -4.4289   23.7970 C   0  0  0  0  0  0  0  0  0  0  0  0
    6.9981   -6.2167   15.3795 O   0  0  0  0  0  0  0  0  0  0  0  0
    4.5707   -8.4268   16.5751 He  0  0  0  0  0  0  0  0  0  0  0  0
  1  8  1  0
  1 12  4  0
  1 14  4  0
  2 15  2  0
  2 25  2  0
  3 12  4  0
  3 22  4  0
  3 23  4  0
  4 11  4  0
  4 20  4  0
  4 23  3  0
  5  9  1  0
  6 17  4  0
  6 22  4  0
  7 15  1  0
  7 16  1  0
  8 10  4  0
  8 24  4  0
  9 19  2  0
 10 20  4  0
 11 24  4  0
 13 16  1  0
 13 21  2  0
 13 25  1  0
 14 18  4  0
 15 17  1  0
 16 19  2  0
 17 23  4  0
 18 23  4  0
 19 25  2  0
M  END
$$$$

 Created by Python create_sdf_string function

 26 28  0  0  0  0  0  0  0  0999 V2000
   10.6588   -4.0754   21.4009 C   0  0  0  0  0  0  0  0  0  0  0  0
    8.1048   -5.5828   15.7856 C   0  0  0  0  0  0  0  0  0  0  0  0
   10.6953   -3.6202   19.0616 C   0  0  0  0  0  0  0  0  0  0  0  0
   10.3103   -2.7121   25.3470 C   0  0  0  0  0  0  0  0  0  0  0  0
    3.4999   -8.9227   16.3358 N   0  0  0  0  0  0  0  0  0  0  0  0
   10.1401   -3.7697   16.8768 C   0  0  0  0  0  0  0  0  0  0  0  0
    8.1745   -6.8427   17.6900 C   0  0  0  0  0  0  0  0  0  0  0  0
   10.5808   -3.5981   22.7341 C   0  0  0  0  0  0  0  0  0  0  0  0
   10.1909   -2.2788   22.9488 C   0  0  0  0  0  0  0  0  0  0  0  0
   10.7430   -4.0168   25.1359 C   0  0  0  0  0  0  0  0  0  0  0  0
   10.9029   -3.2150   20.3522 C   0  0  0  0  0  0  0  0  0  0  0  0
    6.3756   -7.0714   16.1492 C   0  0  0  0  0  0  0  0  0  0  0  0
   10.4529   -5.3936   21.1233 C   0  0  0  0  0  0  0  0  0  0  0  0
    8.7286   -5.7643   16.9612 C   0  0  0  0  0  0  0  0  0  0  0  0
    4.5866   -8.4492   16.5994 C   0  0  0  0  0  0  0  0  0  0  0  0
    7.0040   -7.4083   17.3730 C   0  0  0  0  0  0  0  0  0  0  0  0
    9.6522   -4.8905   17.5247 N   0  0  0  0  0  0  0  0  0  0  0  0
   10.1078   -5.8001   19.8147 C   0  0  0  0  0  0  0  0  0  0  0  0
    6.3328   -8.3200   18.0801 C   0  0  0  0  0  0  0  0  0  0  0  0
    9.9607   -1.8404   24.2535 C   0  0  0  0  0  0  0  0  0  0  0  0
    5.2372   -7.5404   15.8435 C   0  0  0  0  0  0  0  0  0  0  0  0
   10.7961   -2.9478   17.8037 C   0  0  0  0  0  0  0  0  0  0  0  0
   10.1239   -4.8255   18.8597 C   0  0  0  0  0  0  0  0  0  0  0  0
   10.9323   -4.4278   23.8124 C   0  0  0  0  0  0  0  0  0  0  0  0
    7.0377   -6.1752   15.3776 O   0  0  0  0  0  0  0  0  0  0  0  0
    5.1969   -8.8495   17.7312 He  0  0  0  0  0  0  0  0  0  0  0  0
  1  8  1  0
  1 11  4  0
  1 13  4  0
  2 14  2  0
  2 25  1  0
  3 11  4  0
  3 22  4  0
  3 23  4  0
  4 10  4  0
  4 20  4  0
  5 15  1  0
  5 22  3  0
  6 17  4  0
  6 22  4  0
  7 14  1  0
  7 16  1  0
  8  9  4  0
  8 24  4  0
  9 20  4  0
 10 24  4  0
 12 16  1  0
 12 21  2  0
 13 18  4  0
 14 17  1  0
 15 21  2  0
 16 19  2  0
 17 23  4  0
 18 23  4  0
M  END
$$$$

 Created by Python create_sdf_string function

 26 31  0  0  0  0  0  0  0  0999 V2000
   10.6856   -4.0577   21.4016 C   0  0  0  0  0  0  0  0  0  0  0  0
    8.1465   -5.5696   15.7963 C   0  0  0  0  0  0  0  0  0  0  0  0
   10.6747   -3.5983   19.0764 C   0  0  0  0  0  0  0  0  0  0  0  0
   10.2932   -2.7081   25.3401 C   0  0  0  0  0  0  0  0  0  0  0  0
    3.4781   -8.9238   16.3428 N   0  0  0  0  0  0  0  0  0  0  0  0
   10.1314   -3.7584   16.8931 C   0  0  0  0  0  0  0  0  0  0  0  0
    8.1926   -6.8361   17.7243 C   0  0  0  0  0  0  0  0  0  0  0  0
   10.6035   -3.5751   22.7279 C   0  0  0  0  0  0  0  0  0  0  0  0
    5.1990   -8.8430   17.7573 C   0  0  0  0  0  0  0  0  0  0  0  0
   10.2101   -2.2867   22.9314 C   0  0  0  0  0  0  0  0  0  0  0  0
   10.7478   -3.9902   25.1128 C   0  0  0  0  0  0  0  0  0  0  0  0
   10.8809   -3.1932   20.3358 C   0  0  0  0  0  0  0  0  0  0  0  0
    6.3814   -7.0253   16.1322 C   0  0  0  0  0  0  0  0  0  0  0  0
   10.4515   -5.4191   21.1334 C   0  0  0  0  0  0  0  0  0  0  0  0
    8.6927   -5.7733   16.9789 C   0  0  0  0  0  0  0  0  0  0  0  0
    4.5999   -8.4442   16.5938 C   0  0  0  0  0  0  0  0  0  0  0  0
    7.0171   -7.4115   17.3695 C   0  0  0  0  0  0  0  0  0  0  0  0
    9.6568   -4.8582   17.5680 F   0  0  0  0  0  0  0  0  0  0  0  0
   10.1222   -5.7794   19.8429 C   0  0  0  0  0  0  0  0  0  0  0  0
    6.3593   -8.2866   18.0823 C   0  0  0  0  0  0  0  0  0  0  0  0
    9.9736   -1.8565   24.2654 C   0  0  0  0  0  0  0  0  0  0  0  0
    5.2367   -7.5396   15.8206 C   0  0  0  0  0  0  0  0  0  0  0  0
   10.7980   -2.9408   17.7992 C   0  0  0  0  0  0  0  0  0  0  0  0
   10.1274   -4.8335   18.8465 C   0  0  0  0  0  0  0  0  0  0  0  0
   10.9159   -4.4412   23.8043 C   0  0  0  0  0  0  0  0  0  0  0  0
    7.0352   -6.1717   15.4003 O   0  0  0  0  0  0  0  0  0  0  0  0
  1  8  1  0
  1 12  4  0
  1 14  4  0
  2 10  4  0
  2 15  2  0
  2 26  1  0
  3 12  4  0
  3 23  4  0
  3 24  4  0
  4 11  4  0
  4 21  4  0
  5 16  1  0
  6 18  4  0
  6 23  4  0
  7 10  3  0
  7 15  1  0
  7 17  1  0
  8 10  4  0
  8 25  4  0
  9 16  1  0
  9 20  2  0
 11 25  4  0
 13 17  1  0
 13 22  2  0
 13 26  1  0
 14 19  4  0
 15 18  1  0
 16 22  2  0
 17 20  2  0
 18 24  4  0
 19 24  4  0
M  END
$$$$

 Created by Python create_sdf_string function

 26 30  0  0  0  0  0  0  0  0999 V2000
   10.6733   -4.0358   21.4066 C   0  0  0  0  0  0  0  0  0  0  0  0
    8.1536   -5.5597   15.7928 C   0  0  0  0  0  0  0  0  0  0  0  0
   10.6708   -3.5793   19.0839 C   0  0  0  0  0  0  0  0  0  0  0  0
   10.2921   -2.7135   25.3350 C   0  0  0  0  0  0  0  0  0  0  0  0
    3.5241   -8.9086   16.3413 N   0  0  0  0  0  0  0  0  0  0  0  0
   10.1382   -3.7444   16.9057 C   0  0  0  0  0  0  0  0  0  0  0  0
    8.1730   -6.8338   17.7306 C   0  0  0  0  0  0  0  0  0  0  0  0
   10.6035   -3.5796   22.7277 C   0  0  0  0  0  0  0  0  0  0  0  0
    5.2355   -8.8254   17.7757 C   0  0  0  0  0  0  0  0  0  0  0  0
   10.2217   -2.2769   22.9458 C   0  0  0  0  0  0  0  0  0  0  0  0
   10.7467   -4.0126   25.1001 C   0  0  0  0  0  0  0  0  0  0  0  0
   10.8974   -3.1738   20.3387 C   0  0  0  0  0  0  0  0  0  0  0  0
    6.3877   -7.0279   16.1437 C   0  0  0  0  0  0  0  0  0  0  0  0
   10.4631   -5.4264   21.1391 C   0  0  0  0  0  0  0  0  0  0  0  0
    8.6925   -5.7841   16.9910 C   0  0  0  0  0  0  0  0  0  0  0  0
    4.6023   -8.4379   16.5887 C   0  0  0  0  0  0  0  0  0  0  0  0
    7.0140   -7.3980   17.3654 C   0  0  0  0  0  0  0  0  0  0  0  0
    9.6563   -4.8588   17.5583 N   0  0  0  0  0  0  0  0  0  0  0  0
   10.1234   -5.7792   19.8294 C   0  0  0  0  0  0  0  0  0  0  0  0
    6.3881   -8.2815   18.0871 C   0  0  0  0  0  0  0  0  0  0  0  0
    9.9937   -1.8312   24.2454 C   0  0  0  0  0  0  0  0  0  0  0  0
    5.2400   -7.5288   15.8196 C   0  0  0  0  0  0  0  0  0  0  0  0
   10.7961   -2.9358   17.7979 C   0  0  0  0  0  0  0  0  0  0  0  0
   10.1300   -4.8298   18.8592 C   0  0  0  0  0  0  0  0  0  0  0  0
   10.9097   -4.4267   23.7991 C   0  0  0  0  0  0  0  0  0  0  0  0
    7.0451   -6.1792   15.4228 O   0  0  0  0  0  0  0  0  0  0  0  0
  1  8  1  0
  1 12  4  0
  1 14  4  0
  2 15  2  0
  2 26  1  0
  3 12  4  0
  3 23  4  0
  3 24  4  0
  4 11  4  0
  4 21  4  0
  5 16  1  0
  6 18  4  0
  6 23  4  0
  7 15  1  0
  7 17  1  0
  8 10  4  0
  8 25  4  0
  9 16  1  0
  9 20  2  0
 10 21  4  0
 11 25  4  0
 13 17  1  0
 13 22  2  0
 13 26  1  0
 14 19  4  0
 15 18  1  0
 16 22  2  0
 17 20  2  0
 18 24  4  0
 19 24  4  0
M  END
$$$$

 Created by Python create_sdf_string function

 26 30  0  0  0  0  0  0  0  0999 V2000
   10.6738   -4.0363   21.3974 C   0  0  0  0  0  0  0  0  0  0  0  0
    8.1570   -5.5670   15.7989 C   0  0  0  0  0  0  0  0  0  0  0  0
   10.6745   -3.5765   19.0898 C   0  0  0  0  0  0  0  0  0  0  0  0
   10.2926   -2.7106   25.3285 C   0  0  0  0  0  0  0  0  0  0  0  0
    3.5561   -8.9017   16.3524 N   0  0  0  0  0  0  0  0  0  0  0  0
   10.1384   -3.7422   16.9079 C   0  0  0  0  0  0  0  0  0  0  0  0
    8.1857   -6.8313   17.7331 C   0  0  0  0  0  0  0  0  0  0  0  0
   10.6139   -3.5834   22.7235 C   0  0  0  0  0  0  0  0  0  0  0  0
    5.2549   -8.8107   17.7806 C   0  0  0  0  0  0  0  0  0  0  0  0
   10.2375   -2.2686   22.9391 C   0  0  0  0  0  0  0  0  0  0  0  0
   10.7448   -4.0020   25.0903 C   0  0  0  0  0  0  0  0  0  0  0  0
   10.8978   -3.1705   20.3335 C   0  0  0  0  0  0  0  0  0  0  0  0
    6.3924   -7.0341   16.1442 C   0  0  0  0  0  0  0  0  0  0  0  0
   10.4637   -5.4178   21.1375 C   0  0  0  0  0  0  0  0  0  0  0  0
    8.6867   -5.7743   16.9952 C   0  0  0  0  0  0  0  0  0  0  0  0
    4.6202   -8.4250   16.5977 C   0  0  0  0  0  0  0  0  0  0  0  0
    7.0259   -7.3846   17.3681 C   0  0  0  0  0  0  0  0  0  0  0  0
    9.6514   -4.8569   17.5527 N   0  0  0  0  0  0  0  0  0  0  0  0
   10.1213   -5.7740   19.8203 C   0  0  0  0  0  0  0  0  0  0  0  0
    6.3916   -8.2857   18.0857 C   0  0  0  0  0  0  0  0  0  0  0  0
   10.0061   -1.8255   24.2510 C   0  0  0  0  0  0  0  0  0  0  0  0
    5.2503   -7.5312   15.8166 C   0  0  0  0  0  0  0  0  0  0  0  0
   10.7940   -2.9188   17.8079 C   0  0  0  0  0  0  0  0  0  0  0  0
   10.1332   -4.8301   18.8693 C   0  0  0  0  0  0  0  0  0  0  0  0
   10.8896   -4.4239   23.7920 C   0  0  0  0  0  0  0  0  0  0  0  0
    7.0474   -6.1844   15.4249 O   0  0  0  0  0  0  0  0  0  0  0  0
  1  8  1  0
  1 12  4  0
  1 14  4  0
  2 15  2  0
  2 26  1  0
  3 12  4  0
  3 23  4  0
  3 24  4  0
  4 11  4  0
  4 21  4  0
  5 16  1  0
  6 18  4  0
  6 23  4  0
  7 15  1  0
  7 17  1  0
  8 10  4  0
  8 25  4  0
  9 16  1  0
  9 20  2  0
 10 21  4  0
 11 25  4  0
 13 17  1  0
 13 22  2  0
 13 26  1  0
 14 19  4  0
 15 18  1  0
 16 22  2  0
 17 20  2  0
 18 24  4  0
 19 24  4  0
M  END
$$$$

 Created by Python create_sdf_string function

 26 53  0  0  0  0  0  0  0  0999 V2000
   10.6546   -3.3544   19.4626 C   0  0  0  0  0  0  0  0  0  0  0  0
   10.6643   -2.4956   25.3035 C   0  0  0  0  0  0  0  0  0  0  0  0
    7.2366   -8.5674   17.3291 S   0  0  0  0  0  0  0  0  0  0  0  0
   10.2832   -3.2247   22.5841 C   0  0  0  0  0  0  0  0  0  0  0  0
    7.8476   -8.3345   17.1079 N   0  0  0  0  0  0  0  0  0  0  0  0
   10.4664   -2.3163   22.5856 C   0  0  0  0  0  0  0  0  0  0  0  0
   10.8833   -4.4437   24.4298 C   0  0  0  0  0  0  0  0  0  0  0  0
   10.6271   -3.2483   20.3835 O   0  0  0  0  0  0  0  0  0  0  0  0
    7.5834   -9.1357   17.9477 N   0  0  0  0  0  0  0  0  0  0  0  0
    8.7125   -8.6220   17.3711 N   0  0  0  0  0  0  0  0  0  0  0  0
    6.9388   -7.6718   14.8910 Cl  0  0  0  0  0  0  0  0  0  0  0  0
    9.7682   -5.6533   20.1163 C   0  0  0  0  0  0  0  0  0  0  0  0
    9.2230   -1.5522   23.5430 C   0  0  0  0  0  0  0  0  0  0  0  0
   10.8265   -3.1319   17.6816 C   0  0  0  0  0  0  0  0  0  0  0  0
    9.8687   -5.0195   18.8365 C   0  0  0  0  0  0  0  0  0  0  0  0
   10.3456   -5.1294   24.0660 C   0  0  0  0  0  0  0  0  0  0  0  0
    8.4917   -6.9627   17.1793 Cl  0  0  0  0  0  0  0  0  0  0  0  0
   10.8159   -3.7229   20.9412 He  0  0  0  0  0  0  0  0  0  0  0  0
    9.4772   -7.9669   17.9782 He  0  0  0  0  0  0  0  0  0  0  0  0
    7.3481   -7.1163   18.0181 He  0  0  0  0  0  0  0  0  0  0  0  0
    6.6002   -7.7432   16.8437 He  0  0  0  0  0  0  0  0  0  0  0  0
    9.9860   -5.3002   21.0400 He  0  0  0  0  0  0  0  0  0  0  0  0
    8.8577   -8.9921   15.9127 He  0  0  0  0  0  0  0  0  0  0  0  0
    8.0116   -9.5324   16.0278 He  0  0  0  0  0  0  0  0  0  0  0  0
    9.0800   -7.6216   15.5958 He  0  0  0  0  0  0  0  0  0  0  0  0
    7.3242   -6.3440   17.3110 He  0  0  0  0  0  0  0  0  0  0  0  0
  1  2  3  0
  1  3  1  0
  1  4  4  0
  1  6  1  0
  1  8  4  0
  1 14  4  0
  1 16  2  0
  2  3  2  0
  2  7  4  0
  2  9  2  0
  2 13  4  0
  3  7  2  0
  3  9  2  0
  3 10  1  0
  3 13  2  0
  3 14  1  0
  3 17  1  0
  4  6  4  0
  4  7  2  0
  4  9  1  0
  4 10  4  0
  4 16  4  0
  5  6  1  0
  5  9  2  0
  5 11  1  0
  5 14  2  0
  5 16  3  0
  6 10  2  0
  6 13  2  0
  6 14  3  0
  7  8  2  0
  7  9  2  0
  7 11  4  0
  7 12  4  0
  7 16  4  0
  8  9  4  0
  8 11  1  0
  9 10  1  0
  9 12  4  0
  9 14  2  0
  9 15  4  0
 10 12  1  0
 10 13  1  0
 10 14  4  0
 10 15  4  0
 10 16  2  0
 11 13  4  0
 11 16  3  0
 12 13  1  0
 12 15  4  0
 12 17  3  0
 13 14  3  0
 15 16  4  0
M  END
$$$$

 Created by Python create_sdf_string function

 26 43  0  0  0  0  0  0  0  0999 V2000
   10.3334   -3.2980   20.5701 C   0  0  0  0  0  0  0  0  0  0  0  0
    7.6129   -7.5401   16.2631 N   0  0  0  0  0  0  0  0  0  0  0  0
   11.1393   -3.2191   19.1110 Br  0  0  0  0  0  0  0  0  0  0  0  0
    9.8125   -2.9234   25.3988 C   0  0  0  0  0  0  0  0  0  0  0  0
    7.1520   -8.0321   16.5477 F   0  0  0  0  0  0  0  0  0  0  0  0
   10.7360   -3.6214   21.8987 C   0  0  0  0  0  0  0  0  0  0  0  0
    5.7680   -6.8277   17.4449 N   0  0  0  0  0  0  0  0  0  0  0  0
   10.6437   -1.6573   22.4828 C   0  0  0  0  0  0  0  0  0  0  0  0
   11.0314   -3.6189   24.2466 C   0  0  0  0  0  0  0  0  0  0  0  0
   10.9612   -2.8607   20.3774 N   0  0  0  0  0  0  0  0  0  0  0  0
   10.3365   -5.6347   21.4596 C   0  0  0  0  0  0  0  0  0  0  0  0
    9.6484   -5.5760   18.9347 C   0  0  0  0  0  0  0  0  0  0  0  0
   10.2020   -1.9808   23.2262 C   0  0  0  0  0  0  0  0  0  0  0  0
    8.9186   -4.0164   17.8300 C   0  0  0  0  0  0  0  0  0  0  0  0
   10.4913   -3.4546   17.7706 N   0  0  0  0  0  0  0  0  0  0  0  0
   10.2717   -5.4671   18.2934 C   0  0  0  0  0  0  0  0  0  0  0  0
   11.1584   -4.0052   23.2102 C   0  0  0  0  0  0  0  0  0  0  0  0
    8.6784   -8.1310   16.4962 C   0  0  0  0  0  0  0  0  0  0  0  0
    6.1259   -6.2811   16.2481 He  0  0  0  0  0  0  0  0  0  0  0  0
    5.2937   -7.9773   16.8536 He  0  0  0  0  0  0  0  0  0  0  0  0
    6.7271   -9.0185   16.7067 He  0  0  0  0  0  0  0  0  0  0  0  0
    7.8950  -10.3326   17.8644 He  0  0  0  0  0  0  0  0  0  0  0  0
    8.4369   -7.3126   17.2502 He  0  0  0  0  0  0  0  0  0  0  0  0
    8.4451   -8.6718   16.7796 He  0  0  0  0  0  0  0  0  0  0  0  0
    6.1009   -8.2694   14.6281 He  0  0  0  0  0  0  0  0  0  0  0  0
    8.6582   -8.0223   16.7568 He  0  0  0  0  0  0  0  0  0  0  0  0
  1  2  1  0
  1  4  4  0
  1  7  1  0
  1 10  1  0
  1 11  4  0
  1 14  4  0
  1 16  4  0
  2  6  1  0
  2 12  1  0
  2 13  4  0
  2 16  2  0
  2 17  3  0
  3  7  3  0
  3 10  4  0
  3 15  4  0
  4  6  4  0
  4  7  2  0
  4  9  4  0
  5  6  2  0
  5  9  2  0
  5 10  2  0
  5 11  3  0
  5 14  2  0
  5 18  2  0
  6  7  1  0
  6  8  3  0
  6 11  2  0
  6 15  4  0
  6 16  4  0
  6 17  2  0
  7 16  3  0
  7 17  2  0
  8 13  4  0
  8 18  2  0
  9 17  4  0
 11 12  4  0
 12 14  4  0
 12 15  4  0
 12 16  1  0
 13 14  4  0
 13 17  3  0
 13 18  4  0
 14 16  1  0
M  END
$$$$

 Created by Python create_sdf_string function

 26 77  0  0  0  0  0  0  0  0999 V2000
   10.8861   -4.5728   20.9497 O   0  0  0  0  0  0  0  0  0  0  0  0
    7.4889   -6.7041   16.5436 C   0  0  0  0  0  0  0  0  0  0  0  0
   10.8091   -3.3198   18.7190 C   0  0  0  0  0  0  0  0  0  0  0  0
    9.8522   -3.0538   24.6965 O   0  0  0  0  0  0  0  0  0  0  0  0
    8.4194   -7.5398   15.8267 F   0  0  0  0  0  0  0  0  0  0  0  0
    7.1895   -5.5713   16.4961 N   0  0  0  0  0  0  0  0  0  0  0  0
    5.5599  -10.1164   17.6203 P   0  0  0  0  0  0  0  0  0  0  0  0
   10.2369   -2.9292   21.7399 C   0  0  0  0  0  0  0  0  0  0  0  0
    7.6030   -6.1671   19.0815 F   0  0  0  0  0  0  0  0  0  0  0  0
   10.8699   -2.5956   23.0733 Cl  0  0  0  0  0  0  0  0  0  0  0  0
   10.3138   -3.9631   23.9839 C   0  0  0  0  0  0  0  0  0  0  0  0
   10.8150   -2.4776   19.7388 N   0  0  0  0  0  0  0  0  0  0  0  0
   10.6375   -5.6833   20.4795 C   0  0  0  0  0  0  0  0  0  0  0  0
    6.2119   -7.9139   17.2037 P   0  0  0  0  0  0  0  0  0  0  0  0
    8.5896   -7.9108   17.9669 N   0  0  0  0  0  0  0  0  0  0  0  0
    4.9305   -9.6531   16.0062 O   0  0  0  0  0  0  0  0  0  0  0  0
   10.2889   -6.0849   18.9594 C   0  0  0  0  0  0  0  0  0  0  0  0
    9.5703   -7.9378   17.5922 N   0  0  0  0  0  0  0  0  0  0  0  0
   10.2832   -1.3867   23.7217 C   0  0  0  0  0  0  0  0  0  0  0  0
    9.6353   -6.0643   18.5563 C   0  0  0  0  0  0  0  0  0  0  0  0
   10.6863   -3.6269   22.2281 C   0  0  0  0  0  0  0  0  0  0  0  0
    7.2314   -6.5386   16.8963 He  0  0  0  0  0  0  0  0  0  0  0  0
    8.5018   -8.3340   16.3806 He  0  0  0  0  0  0  0  0  0  0  0  0
    9.7589   -4.6519   15.4209 He  0  0  0  0  0  0  0  0  0  0  0  0
   11.0193   -4.4144   18.3873 He  0  0  0  0  0  0  0  0  0  0  0  0
    8.2282   -5.8589   17.4192 He  0  0  0  0  0  0  0  0  0  0  0  0
  1  2  3  0
  1  4  2  0
  1  6  1  0
  1  9  1  0
  1 12  1  0
  1 13  4  0
  2  4  3  0
  2  8  3  0
  2 11  1  0
  2 17  1  0
  2 18  2  0
  2 19  1  0
  3  6  2  0
  3 12  4  0
  3 14  1  0
  3 16  2  0
  4  6  2  0
  4 11  4  0
  4 16  1  0
  4 19  4  0
  4 21  4  0
  5  9  4  0
  5 10  4  0
  5 12  4  0
  5 13  1  0
  5 16  4  0
  5 21  2  0
  6  7  4  0
  6 17  1  0
  6 19  1  0
  7 11  3  0
  7 12  1  0
  7 14  4  0
  7 15  1  0
  7 16  1  0
  7 18  4  0
  7 21  2  0
  8  9  3  0
  8 10  4  0
  8 13  2  0
  8 14  1  0
  8 16  1  0
  8 18  3  0
  8 20  2  0
  8 21  4  0
  9 10  1  0
  9 11  3  0
  9 13  1  0
  9 15  3  0
  9 16  4  0
  9 19  4  0
  9 20  4  0
  9 21  4  0
 10 14  2  0
 10 15  2  0
 10 19  4  0
 11 12  3  0
 11 13  3  0
 11 14  4  0
 11 16  2  0
 11 17  1  0
 11 21  4  0
 12 15  1  0
 12 18  2  0
 13 17  3  0
 14 16  2  0
 14 17  2  0
 14 21  1  0
 15 16  2  0
 15 17  2  0
 15 18  1  0
 15 21  3  0
 16 17  3  0
 16 19  2  0
 16 20  2  0
 18 20  3  0
 20 21  2  0
M  END
$$$$

 Created by Python create_sdf_string function

 26 59  0  0  0  0  0  0  0  0999 V2000
   10.3597   -3.6013   20.9970 C   0  0  0  0  0  0  0  0  0  0  0  0
    7.7980   -6.2926   15.9599 N   0  0  0  0  0  0  0  0  0  0  0  0
   10.3870   -3.5625   18.0066 C   0  0  0  0  0  0  0  0  0  0  0  0
   10.3830   -2.9908   24.1783 O   0  0  0  0  0  0  0  0  0  0  0  0
    6.5370   -9.1394   17.4388 F   0  0  0  0  0  0  0  0  0  0  0  0
   10.5064   -2.9028   21.9097 C   0  0  0  0  0  0  0  0  0  0  0  0
    8.4413   -5.9520   17.8208 P   0  0  0  0  0  0  0  0  0  0  0  0
   10.5915   -2.2488   21.8918 N   0  0  0  0  0  0  0  0  0  0  0  0
   10.8602   -3.4371   20.0103 N   0  0  0  0  0  0  0  0  0  0  0  0
    5.6088   -5.5181   16.7036 C   0  0  0  0  0  0  0  0  0  0  0  0
   11.1594   -5.4760   20.2366 C   0  0  0  0  0  0  0  0  0  0  0  0
    7.9687   -8.0239   15.2733 C   0  0  0  0  0  0  0  0  0  0  0  0
    8.6579   -8.0478   17.4596 C   0  0  0  0  0  0  0  0  0  0  0  0
    9.7873   -6.1482   19.1090 C   0  0  0  0  0  0  0  0  0  0  0  0
    9.4987   -8.0594   18.6014 C   0  0  0  0  0  0  0  0  0  0  0  0
   10.4225   -1.9248   23.7175 N   0  0  0  0  0  0  0  0  0  0  0  0
    9.4983   -4.7674   17.2350 Cl  0  0  0  0  0  0  0  0  0  0  0  0
   10.2652   -4.5337   18.0825 C   0  0  0  0  0  0  0  0  0  0  0  0
    9.8413   -6.1562   18.9978 C   0  0  0  0  0  0  0  0  0  0  0  0
   11.1990   -4.2157   22.6059 C   0  0  0  0  0  0  0  0  0  0  0  0
    9.1033   -8.2969   14.6580 He  0  0  0  0  0  0  0  0  0  0  0  0
    5.5946   -3.5956   15.8386 He  0  0  0  0  0  0  0  0  0  0  0  0
   10.1737   -3.9695   24.4664 He  0  0  0  0  0  0  0  0  0  0  0  0
    6.3777   -7.0774   18.8999 He  0  0  0  0  0  0  0  0  0  0  0  0
    4.3896   -9.9639   15.8380 He  0  0  0  0  0  0  0  0  0  0  0  0
    8.2232   -4.9004   16.0584 He  0  0  0  0  0  0  0  0  0  0  0  0
  1  2  1  0
  1  4  1  0
  1  6  1  0
  1  9  4  0
  1 11  4  0
  1 12  2  0
  1 16  3  0
  1 17  4  0
  2  9  2  0
  2 15  1  0
  2 17  1  0
  3  5  3  0
  3  8  3  0
  3 12  4  0
  3 17  3  0
  3 18  4  0
  3 20  2  0
  4  5  4  0
  4 13  1  0
  4 16  4  0
  4 20  2  0
  5  7  2  0
  5  8  2  0
  5 11  2  0
  5 12  3  0
  5 13  2  0
  5 16  1  0
  5 17  2  0
  6  7  4  0
  6  8  4  0
  6 20  4  0
  7  9  2  0
  7 10  4  0
  7 11  2  0
  7 12  2  0
  7 20  1  0
  8 13  2  0
  8 15  3  0
  8 16  4  0
  9 10  4  0
  9 14  4  0
 10 12  1  0
 10 15  2  0
 10 18  4  0
 11 12  1  0
 11 14  4  0
 11 15  1  0
 11 18  4  0
 11 20  1  0
 12 19  3  0
 13 17  4  0
 13 19  3  0
 14 15  2  0
 14 19  4  0
 15 16  2  0
 15 18  3  0
 16 17  3  0
 17 19  1  0
 18 19  3  0
M  END
$$$$

 Created by Python create_sdf_string function

 26 37  0  0  0  0  0  0  0  0999 V2000
   10.6301   -3.3968   20.9135 C   0  0  0  0  0  0  0  0  0  0  0  0
   10.6047   -3.6652   18.2096 C   0  0  0  0  0  0  0  0  0  0  0  0
   10.4338   -3.9649   22.4285 N   0  0  0  0  0  0  0  0  0  0  0  0
   10.2248   -2.1895   22.7361 N   0  0  0  0  0  0  0  0  0  0  0  0
   11.0337   -3.8979   24.7635 N   0  0  0  0  0  0  0  0  0  0  0  0
    6.9569   -8.2214   15.9183 F   0  0  0  0  0  0  0  0  0  0  0  0
    6.8699  -10.9964   15.3353 Br  0  0  0  0  0  0  0  0  0  0  0  0
    7.9149   -7.5328   16.7790 O   0  0  0  0  0  0  0  0  0  0  0  0
    4.6697   -7.8792   16.3036 O   0  0  0  0  0  0  0  0  0  0  0  0
   10.2344   -5.7034   19.3387 C   0  0  0  0  0  0  0  0  0  0  0  0
   10.1918   -0.7591   23.6664 N   0  0  0  0  0  0  0  0  0  0  0  0
   10.7420   -3.7706   19.0122 Cl  0  0  0  0  0  0  0  0  0  0  0  0
   10.4389   -4.5760   18.3537 C   0  0  0  0  0  0  0  0  0  0  0  0
    9.1502   -5.5625   18.4737 Cl  0  0  0  0  0  0  0  0  0  0  0  0
   11.2198   -4.7522   23.4230 C   0  0  0  0  0  0  0  0  0  0  0  0
    8.5512   -7.1698   17.5961 He  0  0  0  0  0  0  0  0  0  0  0  0
   10.0090   -2.6602   24.6879 He  0  0  0  0  0  0  0  0  0  0  0  0
    8.2958   -7.6676   15.2990 He  0  0  0  0  0  0  0  0  0  0  0  0
    6.5640   -5.7493   15.4108 He  0  0  0  0  0  0  0  0  0  0  0  0
    6.0061   -9.3125   17.7446 He  0  0  0  0  0  0  0  0  0  0  0  0
    7.3980   -4.9666   17.2292 He  0  0  0  0  0  0  0  0  0  0  0  0
   11.0473   -3.2235   19.2854 He  0  0  0  0  0  0  0  0  0  0  0  0
    6.4817   -5.7145   15.3062 He  0  0  0  0  0  0  0  0  0  0  0  0
   10.6101   -4.6932   20.7876 He  0  0  0  0  0  0  0  0  0  0  0  0
    8.9783   -9.1807   17.2782 He  0  0  0  0  0  0  0  0  0  0  0  0
    8.5608   -5.7517   15.9998 He  0  0  0  0  0  0  0  0  0  0  0  0
  1  3  1  0
  1  6  2  0
  1  9  3  0
  1 15  2  0
  2  6  2  0
  2  9  2  0
  2 11  4  0
  2 13  2  0
  2 15  1  0
  3  4  4  0
  3 12  1  0
  3 15  4  0
  4  7  4  0
  4  8  1  0
  4  9  1  0
  4 11  4  0
  4 12  4  0
  5 12  1  0
  5 15  2  0
  6  9  4  0
  6 10  3  0
  6 13  1  0
  7  8  4  0
  7 14  3  0
  8 11  3  0
  8 15  1  0
  9 13  2  0
  9 15  2  0
 10 12  2  0
 10 14  4  0
 10 15  4  0
 11 14  2  0
 11 15  2  0
 12 14  3  0
 12 15  2  0
 13 14  2  0
 13 15  2  0
M  END
$$$$

 Created by Python create_sdf_string function

 26 88  0  0  0  0  0  0  0  0999 V2000
   10.5295   -3.9688   20.9958 C   0  0  0  0  0  0  0  0  0  0  0  0
    9.3868   -8.1653   18.0289 P   0  0  0  0  0  0  0  0  0  0  0  0
   10.0226   -3.3820   17.0704 C   0  0  0  0  0  0  0  0  0  0  0  0
   10.6234   -2.3748   25.2224 C   0  0  0  0  0  0  0  0  0  0  0  0
    7.6495   -8.2387   13.9816 P   0  0  0  0  0  0  0  0  0  0  0  0
    8.1777   -6.3142   16.3965 S   0  0  0  0  0  0  0  0  0  0  0  0
   10.1343   -3.7887   22.0558 C   0  0  0  0  0  0  0  0  0  0  0  0
    7.8739   -5.1663   16.7608 O   0  0  0  0  0  0  0  0  0  0  0  0
   10.1900   -2.7611   22.1079 O   0  0  0  0  0  0  0  0  0  0  0  0
   10.8778   -3.1055   24.6223 N   0  0  0  0  0  0  0  0  0  0  0  0
   11.4437   -2.8400   19.8342 N   0  0  0  0  0  0  0  0  0  0  0  0
    4.0637   -7.2578   16.4953 P   0  0  0  0  0  0  0  0  0  0  0  0
   10.7496   -5.1848   21.2213 Se  0  0  0  0  0  0  0  0  0  0  0  0
    7.4072   -7.7750   15.9121 N   0  0  0  0  0  0  0  0  0  0  0  0
    9.3365   -6.8754   16.2250 Cl  0  0  0  0  0  0  0  0  0  0  0  0
   10.7285   -5.8445   19.6048 C   0  0  0  0  0  0  0  0  0  0  0  0
    7.8764   -9.2719   18.3577 C   0  0  0  0  0  0  0  0  0  0  0  0
   10.0798   -1.1677   23.7193 N   0  0  0  0  0  0  0  0  0  0  0  0
    9.8206   -2.5778   16.8869 Cl  0  0  0  0  0  0  0  0  0  0  0  0
   10.4825   -3.9594   17.3733 C   0  0  0  0  0  0  0  0  0  0  0  0
    8.5570   -5.6760   18.3296 N   0  0  0  0  0  0  0  0  0  0  0  0
   10.9075   -4.5380   23.4317 C   0  0  0  0  0  0  0  0  0  0  0  0
    9.0354   -5.0225   17.0367 P   0  0  0  0  0  0  0  0  0  0  0  0
    7.7711   -7.9063   17.3022 He  0  0  0  0  0  0  0  0  0  0  0  0
    6.3108   -9.1105   14.4302 He  0  0  0  0  0  0  0  0  0  0  0  0
    5.0225  -10.1280   16.7715 He  0  0  0  0  0  0  0  0  0  0  0  0
  1  2  4  0
  1  3  2  0
  1  7  1  0
  1 11  4  0
  1 12  2  0
  1 17  1  0
  1 23  1  0
  2  5  2  0
  2  8  3  0
  2 14  1  0
  2 15  2  0
  2 20  4  0
  2 22  3  0
  3  5  3  0
  3  9  4  0
  3 20  4  0
  4  6  2  0
  4  8  1  0
  4 10  3  0
  4 12  1  0
  4 18  4  0
  4 19  2  0
  5  8  4  0
  5  9  4  0
  5 11  4  0
  5 13  3  0
  5 14  2  0
  5 15  4  0
  5 17  4  0
  5 22  1  0
  6  8  2  0
  6  9  1  0
  6 10  1  0
  6 13  4  0
  6 15  1  0
  6 18  1  0
  6 19  4  0
  6 20  2  0
  6 23  1  0
  7  8  1  0
  7  9  4  0
  7 10  4  0
  7 23  1  0
  8 10  4  0
  8 11  2  0
  8 12  1  0
  8 14  3  0
  8 16  3  0
  9 15  4  0
  9 18  4  0
  9 19  1  0
 10 12  2  0
 10 14  1  0
 10 15  2  0
 10 17  1  0
 10 19  3  0
 10 23  4  0
 11 23  4  0
 12 15  2  0
 12 16  2  0
 12 18  1  0
 12 19  1  0
 12 20  3  0
 12 23  2  0
 13 14  2  0
 13 17  2  0
 14 15  1  0
 14 16  1  0
 14 17  1  0
 14 21  1  0
 14 22  1  0
 15 17  2  0
 15 19  1  0
 15 22  2  0
 15 23  2  0
 16 19  3  0
 16 21  4  0
 16 23  1  0
 17 18  1  0
 17 19  3  0
 17 21  4  0
 18 19  3  0
 18 23  2  0
 19 20  4  0
 19 23  2  0
 20 21  4  0
 21 23  1  0
 22 23  4  0
M  END
$$$$

 Created by Python create_sdf_string function

 26 49  0  0  0  0  0  0  0  0999 V2000
   10.8394   -3.7042   21.0281 O   0  0  0  0  0  0  0  0  0  0  0  0
   10.0268   -2.2721   24.6682 C   0  0  0  0  0  0  0  0  0  0  0  0
    7.6898   -9.9581   15.3060 O   0  0  0  0  0  0  0  0  0  0  0  0
    9.3803   -8.4624   17.2711 S   0  0  0  0  0  0  0  0  0  0  0  0
   10.7458   -3.1656   21.5597 C   0  0  0  0  0  0  0  0  0  0  0  0
    9.4202   -1.6353   22.9548 N   0  0  0  0  0  0  0  0  0  0  0  0
   10.8676   -3.2599   20.6712 N   0  0  0  0  0  0  0  0  0  0  0  0
    5.5456   -9.1751   18.1555 C   0  0  0  0  0  0  0  0  0  0  0  0
    8.5048   -8.0086   15.3164 C   0  0  0  0  0  0  0  0  0  0  0  0
    4.6066  -11.1888   15.8155 B   0  0  0  0  0  0  0  0  0  0  0  0
    9.9814   -6.1459   19.0426 C   0  0  0  0  0  0  0  0  0  0  0  0
    8.8657   -6.7374   17.4798 N   0  0  0  0  0  0  0  0  0  0  0  0
   10.4065   -1.9680   23.8541 N   0  0  0  0  0  0  0  0  0  0  0  0
    8.9856   -5.5803   18.6681 N   0  0  0  0  0  0  0  0  0  0  0  0
   11.1763   -4.1032   23.4322 C   0  0  0  0  0  0  0  0  0  0  0  0
    8.7808   -5.5073   18.4064 Se  0  0  0  0  0  0  0  0  0  0  0  0
    7.9349   -8.3293   18.4736 He  0  0  0  0  0  0  0  0  0  0  0  0
   11.1536   -3.9012   17.9333 He  0  0  0  0  0  0  0  0  0  0  0  0
    8.6918   -6.6907   16.0777 He  0  0  0  0  0  0  0  0  0  0  0  0
    7.5786   -6.0393   16.2104 He  0  0  0  0  0  0  0  0  0  0  0  0
   11.3603   -3.6142   25.3651 He  0  0  0  0  0  0  0  0  0  0  0  0
   10.0119   -5.4037   20.1464 He  0  0  0  0  0  0  0  0  0  0  0  0
    5.3573   -8.4901   14.8152 He  0  0  0  0  0  0  0  0  0  0  0  0
    7.5885   -4.5590   18.3309 He  0  0  0  0  0  0  0  0  0  0  0  0
    9.5493   -3.0774   16.8122 He  0  0  0  0  0  0  0  0  0  0  0  0
   10.2778   -4.1750   18.1228 He  0  0  0  0  0  0  0  0  0  0  0  0
  1  5  1  0
  1  7  4  0
  1 12  1  0
  1 13  1  0
  1 16  2  0
  2  3  4  0
  2  6  4  0
  2 13  4  0
  3  4  4  0
  3  5  1  0
  3 13  4  0
  3 14  4  0
  3 15  1  0
  4  5  4  0
  4  8  4  0
  4  9  3  0
  4 13  2  0
  4 14  4  0
  5  6  1  0
  5  8  1  0
  5  9  1  0
  5 12  3  0
  5 13  4  0
  5 14  3  0
  5 15  4  0
  6  7  3  0
  6  8  4  0
  6  9  1  0
  6 10  3  0
  6 11  3  0
  6 13  3  0
  7  8  1  0
  7 10  1  0
  7 12  1  0
  7 16  2  0
  8  9  1  0
  8 10  3  0
  8 12  2  0
  8 13  3  0
  8 14  4  0
  8 15  4  0
  9 10  4  0
  9 11  3  0
  9 12  3  0
  9 13  3  0
  9 15  4  0
 10 15  1  0
 12 13  1  0
 12 16  2  0
M  END
$$$$

 Created by Python create_sdf_string function

 26 30  0  0  0  0  0  0  0  0999 V2000
   10.8197   -3.6377   20.2886 C   0  0  0  0  0  0  0  0  0  0  0  0
    6.2517   -7.6959   18.6099 C   0  0  0  0  0  0  0  0  0  0  0  0
   11.1089   -3.4453   22.0985 C   0  0  0  0  0  0  0  0  0  0  0  0
   11.0807   -1.9797   22.7653 C   0  0  0  0  0  0  0  0  0  0  0  0
   11.0013   -3.6266   24.2717 C   0  0  0  0  0  0  0  0  0  0  0  0
   11.6929   -3.3378   20.0565 N   0  0  0  0  0  0  0  0  0  0  0  0
    9.9534   -4.4564   20.4408 F   0  0  0  0  0  0  0  0  0  0  0  0
    7.0311   -9.5533   16.3764 O   0  0  0  0  0  0  0  0  0  0  0  0
    9.2232   -5.8679   17.4385 B   0  0  0  0  0  0  0  0  0  0  0  0
    5.3280   -9.5659   15.1306 S   0  0  0  0  0  0  0  0  0  0  0  0
    7.9421   -8.3630   17.3365 F   0  0  0  0  0  0  0  0  0  0  0  0
   10.0004   -1.7276   24.0848 N   0  0  0  0  0  0  0  0  0  0  0  0
    9.8496   -5.9829   18.5468 Se  0  0  0  0  0  0  0  0  0  0  0  0
   11.1822   -3.7495   23.6722 C   0  0  0  0  0  0  0  0  0  0  0  0
    9.9436   -5.5254   17.3309 N   0  0  0  0  0  0  0  0  0  0  0  0
   10.2248   -3.0969   18.2587 He  0  0  0  0  0  0  0  0  0  0  0  0
   10.0684   -2.6518   25.0341 He  0  0  0  0  0  0  0  0  0  0  0  0
    5.6450   -8.1073   15.8347 He  0  0  0  0  0  0  0  0  0  0  0  0
    8.8183   -7.4116   16.2906 He  0  0  0  0  0  0  0  0  0  0  0  0
    7.4682   -8.1630   17.5221 He  0  0  0  0  0  0  0  0  0  0  0  0
    8.1996   -5.9378   15.2101 He  0  0  0  0  0  0  0  0  0  0  0  0
    4.6223  -10.2545   14.9530 He  0  0  0  0  0  0  0  0  0  0  0  0
    6.6426   -9.1005   16.6468 He  0  0  0  0  0  0  0  0  0  0  0  0
    9.8892   -5.8891   18.8265 He  0  0  0  0  0  0  0  0  0  0  0  0
    9.9779   -4.3298   14.8675 He  0  0  0  0  0  0  0  0  0  0  0  0
   11.0151   -3.6468   17.5244 He  0  0  0  0  0  0  0  0  0  0  0  0
  1  2  2  0
  1  3  1  0
  1  6  4  0
  1  8  4  0
  2  8  2  0
  2 14  1  0
  3  4  4  0
  3  9  2  0
  3 14  4  0
  3 15  3  0
  4 10  4  0
  4 11  4  0
  5  6  2  0
  5 14  4  0
  5 15  1  0
  6  9  3  0
  6 10  4  0
  6 11  2  0
  6 15  2  0
  7  8  4  0
  7 10  1  0
  8 14  2  0
  8 15  2  0
  9 12  2  0
  9 13  1  0
  9 15  3  0
 10 13  3  0
 11 12  3  0
 12 14  4  0
 12 15  3  0
M  END
$$$$

 Created by Python create_sdf_string function

 26 38  0  0  0  0  0  0  0  0999 V2000
   10.6879   -3.7425   21.0508 C   0  0  0  0  0  0  0  0  0  0  0  0
    8.5809   -7.5717   17.5486 C   0  0  0  0  0  0  0  0  0  0  0  0
   11.1755   -3.4802   17.3682 F   0  0  0  0  0  0  0  0  0  0  0  0
    6.3119   -7.5512   15.1969 C   0  0  0  0  0  0  0  0  0  0  0  0
    9.5743   -6.0750   15.3396 C   0  0  0  0  0  0  0  0  0  0  0  0
   10.5291   -2.3370   22.4431 C   0  0  0  0  0  0  0  0  0  0  0  0
   11.9092   -3.0558   20.0842 N   0  0  0  0  0  0  0  0  0  0  0  0
    5.2500   -8.8814   16.4039 O   0  0  0  0  0  0  0  0  0  0  0  0
   10.4222   -4.6002   20.4040 C   0  0  0  0  0  0  0  0  0  0  0  0
    7.0298   -9.7515   16.2091 N   0  0  0  0  0  0  0  0  0  0  0  0
    8.9171   -6.0285   17.6294 C   0  0  0  0  0  0  0  0  0  0  0  0
   10.4529   -5.2968   19.4448 C   0  0  0  0  0  0  0  0  0  0  0  0
   10.3547   -3.5060   17.3989 C   0  0  0  0  0  0  0  0  0  0  0  0
    9.7671   -6.0398   18.1096 C   0  0  0  0  0  0  0  0  0  0  0  0
   10.8843   -4.4820   23.0624 C   0  0  0  0  0  0  0  0  0  0  0  0
   10.3817   -2.6333   24.3944 He  0  0  0  0  0  0  0  0  0  0  0  0
    8.9990   -6.4388   17.6347 He  0  0  0  0  0  0  0  0  0  0  0  0
    8.1384   -7.6840   15.6310 He  0  0  0  0  0  0  0  0  0  0  0  0
   10.3952   -4.0003   22.3014 He  0  0  0  0  0  0  0  0  0  0  0  0
   10.4224   -3.5122   24.4996 He  0  0  0  0  0  0  0  0  0  0  0  0
    7.8369   -8.3209   18.3424 He  0  0  0  0  0  0  0  0  0  0  0  0
    6.4268   -9.1432   15.3629 He  0  0  0  0  0  0  0  0  0  0  0  0
    7.4718   -8.3244   16.6601 He  0  0  0  0  0  0  0  0  0  0  0  0
    9.6745   -1.3490   24.0343 He  0  0  0  0  0  0  0  0  0  0  0  0
   10.9129   -3.3467   17.4034 He  0  0  0  0  0  0  0  0  0  0  0  0
   11.1249   -5.5416   16.4137 He  0  0  0  0  0  0  0  0  0  0  0  0
  1  4  2  0
  1  6  2  0
  1  7  4  0
  1 10  2  0
  2  3  3  0
  2  4  1  0
  2  5  4  0
  2 10  2  0
  2 11  1  0
  2 14  2  0
  3  5  3  0
  3 12  2  0
  3 13  4  0
  4  5  1  0
  4  6  2  0
  4  9  4  0
  4 11  4  0
  4 12  3  0
  4 13  4  0
  4 15  4  0
  5  7  1  0
  5  9  1  0
  5 15  4  0
  6  9  4  0
  6 11  3  0
  6 12  1  0
  7 11  3  0
  8 10  2  0
  8 11  2  0
  8 13  3  0
  8 14  2  0
  8 15  3  0
 10 13  4  0
 10 14  1  0
 10 15  3  0
 11 14  2  0
 12 14  2  0
 13 14  3  0
M  END
$$$$

 Created by Python create_sdf_string function

 26 47  0  0  0  0  0  0  0  0999 V2000
   11.2580   -3.5736   20.9313 C   0  0  0  0  0  0  0  0  0  0  0  0
   10.5003   -2.6167   24.7697 I   0  0  0  0  0  0  0  0  0  0  0  0
    5.2759   -7.3069   15.4564 Cl  0  0  0  0  0  0  0  0  0  0  0  0
    8.5893   -5.5310   16.2004 F   0  0  0  0  0  0  0  0  0  0  0  0
   10.7255   -2.9171   22.5294 C   0  0  0  0  0  0  0  0  0  0  0  0
    9.2917   -7.1377   15.4759 Cl  0  0  0  0  0  0  0  0  0  0  0  0
   10.1178   -1.8534   22.1925 C   0  0  0  0  0  0  0  0  0  0  0  0
   10.3413   -4.2149   25.1028 C   0  0  0  0  0  0  0  0  0  0  0  0
   10.5491   -5.2452   20.6826 F   0  0  0  0  0  0  0  0  0  0  0  0
    5.7977   -8.4788   16.3029 N   0  0  0  0  0  0  0  0  0  0  0  0
    8.1416   -9.0285   16.0408 F   0  0  0  0  0  0  0  0  0  0  0  0
    9.9028   -5.5663   19.0783 C   0  0  0  0  0  0  0  0  0  0  0  0
    8.0786   -5.9501   16.4307 C   0  0  0  0  0  0  0  0  0  0  0  0
    9.9601   -1.8306   23.4668 C   0  0  0  0  0  0  0  0  0  0  0  0
   10.7607   -4.0038   17.5180 C   0  0  0  0  0  0  0  0  0  0  0  0
   10.6153   -4.0339   23.2425 C   0  0  0  0  0  0  0  0  0  0  0  0
    9.0295   -4.6214   15.7817 C   0  0  0  0  0  0  0  0  0  0  0  0
    9.5490   -7.7043   18.1784 He  0  0  0  0  0  0  0  0  0  0  0  0
   10.8448   -2.4900   17.4609 He  0  0  0  0  0  0  0  0  0  0  0  0
    8.7403   -6.4913   17.7911 He  0  0  0  0  0  0  0  0  0  0  0  0
   11.1103   -2.7167   19.6534 He  0  0  0  0  0  0  0  0  0  0  0  0
    6.1080   -8.6038   16.2596 He  0  0  0  0  0  0  0  0  0  0  0  0
    9.0169   -5.5414   17.7574 He  0  0  0  0  0  0  0  0  0  0  0  0
    5.5614  -10.3160   17.3492 He  0  0  0  0  0  0  0  0  0  0  0  0
   11.2323   -3.7462   17.2804 He  0  0  0  0  0  0  0  0  0  0  0  0
    9.4511   -5.8091   17.5275 He  0  0  0  0  0  0  0  0  0  0  0  0
  1  3  1  0
  1  5  1  0
  1  6  1  0
  1  9  4  0
  1 11  3  0
  2  4  3  0
  2  6  1  0
  2 10  1  0
  2 13  3  0
  2 14  3  0
  2 16  3  0
  2 17  3  0
  3  5  3  0
  3  6  2  0
  3 10  4  0
  3 14  4  0
  4  6  4  0
  4  7  2  0
  4  9  2  0
  4 10  1  0
  4 11  3  0
  4 12  1  0
  4 13  3  0
  4 14  4  0
  5  7  4  0
  5 10  3  0
  5 12  3  0
  6  9  4  0
  6 10  3  0
  6 11  2  0
  6 13  1  0
  6 15  4  0
  6 16  1  0
  7 10  4  0
  7 14  4  0
  8 13  3  0
  8 14  4  0
  8 16  2  0
  8 17  4  0
  9 11  2  0
  9 17  1  0
 10 11  3  0
 10 13  4  0
 10 14  2  0
 10 17  2  0
 11 17  3  0
 16 17  4  0
M  END
$$$$

 Created by Python create_sdf_string function

 26 74  0  0  0  0  0  0  0  0999 V2000
   10.9994   -3.6885   21.0361 S   0  0  0  0  0  0  0  0  0  0  0  0
    8.0754   -6.9918   17.0235 N   0  0  0  0  0  0  0  0  0  0  0  0
   11.2817   -2.8064   18.0828 O   0  0  0  0  0  0  0  0  0  0  0  0
    9.6059   -2.5531   24.7560 C   0  0  0  0  0  0  0  0  0  0  0  0
    7.0378   -8.4684   16.8792 P   0  0  0  0  0  0  0  0  0  0  0  0
    9.5675   -4.2886   16.6655 F   0  0  0  0  0  0  0  0  0  0  0  0
   10.7417   -2.8821   22.1633 C   0  0  0  0  0  0  0  0  0  0  0  0
    6.8001   -6.9348   14.6835 N   0  0  0  0  0  0  0  0  0  0  0  0
   10.0758   -1.6963   22.7801 C   0  0  0  0  0  0  0  0  0  0  0  0
   10.8053   -3.6439   24.5916 C   0  0  0  0  0  0  0  0  0  0  0  0
   10.8014   -2.8246   19.4329 N   0  0  0  0  0  0  0  0  0  0  0  0
   10.3325   -5.1897   21.0935 O   0  0  0  0  0  0  0  0  0  0  0  0
    8.1971   -5.4723   16.2184 O   0  0  0  0  0  0  0  0  0  0  0  0
    6.1383   -9.1933   17.4897 C   0  0  0  0  0  0  0  0  0  0  0  0
   10.1166   -5.0415   19.5378 C   0  0  0  0  0  0  0  0  0  0  0  0
    8.4733   -5.5497   16.7508 C   0  0  0  0  0  0  0  0  0  0  0  0
   10.4298   -4.3555   17.7181 C   0  0  0  0  0  0  0  0  0  0  0  0
   11.3589   -3.9422   18.0401 C   0  0  0  0  0  0  0  0  0  0  0  0
    9.5944   -5.4620   17.6118 N   0  0  0  0  0  0  0  0  0  0  0  0
    9.5607   -3.4177   16.5911 Cl  0  0  0  0  0  0  0  0  0  0  0  0
   10.4459   -4.9349   16.8862 He  0  0  0  0  0  0  0  0  0  0  0  0
    5.5308   -7.3238   16.0444 He  0  0  0  0  0  0  0  0  0  0  0  0
    6.6327   -7.9767   17.0998 He  0  0  0  0  0  0  0  0  0  0  0  0
    6.0111   -8.1631   15.5855 He  0  0  0  0  0  0  0  0  0  0  0  0
   10.0707   -1.7519   24.1495 He  0  0  0  0  0  0  0  0  0  0  0  0
   10.9481   -3.8276   23.9271 He  0  0  0  0  0  0  0  0  0  0  0  0
  1  3  4  0
  1  7  1  0
  1 10  4  0
  1 11  4  0
  1 12  4  0
  1 13  3  0
  1 15  3  0
  1 18  4  0
  2  5  4  0
  2 11  4  0
  2 14  4  0
  2 19  2  0
  3  5  1  0
  3  6  2  0
  3  8  1  0
  3  9  2  0
  3 13  3  0
  3 14  3  0
  3 18  4  0
  3 19  3  0
  4  5  3  0
  4 10  4  0
  4 12  3  0
  4 18  3  0
  5 10  3  0
  5 11  3  0
  5 15  3  0
  5 18  1  0
  5 20  4  0
  6  9  2  0
  6 10  1  0
  6 13  4  0
  6 14  4  0
  6 17  3  0
  6 18  2  0
  6 19  2  0
  7  8  1  0
  7  9  4  0
  7 17  2  0
  8 10  4  0
  8 12  2  0
  8 14  2  0
  8 17  3  0
  8 20  3  0
  9 13  4  0
  9 16  1  0
  9 20  2  0
 10 11  2  0
 10 12  4  0
 10 15  1  0
 10 16  2  0
 10 20  1  0
 11 12  3  0
 11 13  3  0
 11 14  3  0
 11 17  2  0
 11 20  2  0
 12 16  1  0
 13 14  3  0
 13 15  1  0
 13 17  1  0
 13 18  4  0
 13 20  1  0
 14 17  3  0
 14 18  4  0
 14 19  2  0
 15 17  1  0
 15 19  4  0
 15 20  3  0
 16 17  1  0
 16 18  2  0
 17 20  3  0
 18 19  4  0
 19 20  1  0
M  END
$$$$

 Created by Python create_sdf_string function

 26102  0  0  0  0  0  0  0  0999 V2000
   11.4060   -3.9405   21.1299 C   0  0  0  0  0  0  0  0  0  0  0  0
    7.4687   -7.8496   16.8922 C   0  0  0  0  0  0  0  0  0  0  0  0
   11.5830   -2.3596   18.0404 N   0  0  0  0  0  0  0  0  0  0  0  0
    9.9767   -2.2758   25.4705 C   0  0  0  0  0  0  0  0  0  0  0  0
    7.8552   -4.9563   16.9598 O   0  0  0  0  0  0  0  0  0  0  0  0
   10.8657   -3.9585   15.8236 O   0  0  0  0  0  0  0  0  0  0  0  0
   10.4700   -2.7524   21.9528 Se  0  0  0  0  0  0  0  0  0  0  0  0
    7.3093   -8.5106   16.5986 Se  0  0  0  0  0  0  0  0  0  0  0  0
   10.3406   -1.7905   23.0368 S   0  0  0  0  0  0  0  0  0  0  0  0
   10.0681   -3.2123   24.4951 C   0  0  0  0  0  0  0  0  0  0  0  0
   10.8111   -3.4082   20.5246 O   0  0  0  0  0  0  0  0  0  0  0  0
    3.8194   -9.2620   16.3242 C   0  0  0  0  0  0  0  0  0  0  0  0
   10.6023   -4.9950   21.1102 Cl  0  0  0  0  0  0  0  0  0  0  0  0
    6.6852   -8.7717   16.7446 O   0  0  0  0  0  0  0  0  0  0  0  0
    7.4526   -5.7636   14.2764 Cl  0  0  0  0  0  0  0  0  0  0  0  0
    3.7287   -8.5441   17.2540 C   0  0  0  0  0  0  0  0  0  0  0  0
    9.6584   -4.9327   19.5124 C   0  0  0  0  0  0  0  0  0  0  0  0
    8.2788   -5.9965   17.4271 S   0  0  0  0  0  0  0  0  0  0  0  0
    9.7403   -1.4357   23.7916 C   0  0  0  0  0  0  0  0  0  0  0  0
    9.8113   -4.1056   18.3003 N   0  0  0  0  0  0  0  0  0  0  0  0
   10.5710   -3.2169   17.9938 C   0  0  0  0  0  0  0  0  0  0  0  0
    9.8506   -5.5275   18.3129 N   0  0  0  0  0  0  0  0  0  0  0  0
   10.7922   -3.8372   23.7430 O   0  0  0  0  0  0  0  0  0  0  0  0
    8.8848   -3.7588   15.8270 Br  0  0  0  0  0  0  0  0  0  0  0  0
    8.2025   -7.5580   15.9772 He  0  0  0  0  0  0  0  0  0  0  0  0
    5.7387   -9.8774   17.5989 He  0  0  0  0  0  0  0  0  0  0  0  0
  1  2  4  0
  1  6  3  0
  1  7  1  0
  1  8  3  0
  1 12  4  0
  1 13  4  0
  1 15  4  0
  1 20  3  0
  1 22  2  0
  2  4  1  0
  2  7  4  0
  2  8  3  0
  2 10  1  0
  2 14  4  0
  2 15  3  0
  2 16  4  0
  2 17  4  0
  2 19  1  0
  2 22  1  0
  2 23  4  0
  2 24  3  0
  3  4  3  0
  3 13  3  0
  3 15  2  0
  3 16  1  0
  3 17  2  0
  3 20  3  0
  4  6  4  0
  4  8  3  0
  4 10  4  0
  4 11  4  0
  4 17  4  0
  4 19  4  0
  4 24  4  0
  5  6  4  0
  5  9  4  0
  5 10  1  0
  5 12  2  0
  5 13  1  0
  5 14  1  0
  5 19  1  0
  5 23  2  0
  6  7  1  0
  6 14  2  0
  6 15  1  0
  6 16  2  0
  6 18  3  0
  6 22  3  0
  7  9  4  0
  7 15  3  0
  7 16  2  0
  7 20  3  0
  7 23  4  0
  8 11  2  0
  8 12  1  0
  8 17  4  0
  8 20  1  0
  8 23  4  0
  9 15  1  0
  9 16  1  0
  9 18  1  0
  9 19  4  0
  9 20  2  0
  9 22  1  0
 10 12  1  0
 10 13  2  0
 10 14  2  0
 10 23  4  0
 11 13  3  0
 11 14  1  0
 11 15  4  0
 11 20  3  0
 11 24  4  0
 12 14  3  0
 12 19  4  0
 12 22  1  0
 13 14  4  0
 13 15  4  0
 13 16  1  0
 13 17  4  0
 13 20  3  0
 13 21  1  0
 13 22  4  0
 14 16  4  0
 14 17  2  0
 14 18  1  0
 14 21  2  0
 14 23  1  0
 15 18  3  0
 15 19  2  0
 15 21  1  0
 15 23  4  0
 16 17  1  0
 16 22  2  0
 16 23  3  0
 17 22  4  0
 17 24  3  0
 18 20  1  0
 20 21  1  0
 20 23  3  0
 21 24  1  0
 23 24  4  0
M  END
$$$$

 Created by Python create_sdf_string function

 26 28  0  0  0  0  0  0  0  0999 V2000
   10.9666   -3.5614   21.6515 C   0  0  0  0  0  0  0  0  0  0  0  0
    7.9746   -8.6361   15.2848 F   0  0  0  0  0  0  0  0  0  0  0  0
   10.7252   -2.8049   17.7238 N   0  0  0  0  0  0  0  0  0  0  0  0
    9.5325   -2.3519   24.7252 Se  0  0  0  0  0  0  0  0  0  0  0  0
    6.6727   -7.6520   17.1160 P   0  0  0  0  0  0  0  0  0  0  0  0
    7.1204   -8.1389   16.3828 O   0  0  0  0  0  0  0  0  0  0  0  0
   10.9905   -2.5243   19.8343 N   0  0  0  0  0  0  0  0  0  0  0  0
   11.2727   -5.1725   20.9171 F   0  0  0  0  0  0  0  0  0  0  0  0
    5.3253   -9.4107   16.7993 C   0  0  0  0  0  0  0  0  0  0  0  0
    5.0924   -8.4030   17.0785 C   0  0  0  0  0  0  0  0  0  0  0  0
    9.5504   -4.9239   19.1597 C   0  0  0  0  0  0  0  0  0  0  0  0
   10.8298   -3.6441   17.4892 Cl  0  0  0  0  0  0  0  0  0  0  0  0
    8.9394   -4.8539   18.3937 N   0  0  0  0  0  0  0  0  0  0  0  0
   10.8783   -2.9388   23.3155 N   0  0  0  0  0  0  0  0  0  0  0  0
    8.1425   -6.0584   14.2678 He  0  0  0  0  0  0  0  0  0  0  0  0
   10.3652   -4.1241   15.3448 He  0  0  0  0  0  0  0  0  0  0  0  0
   10.8509   -2.4607   22.3792 He  0  0  0  0  0  0  0  0  0  0  0  0
   10.4095   -1.7846   22.9148 He  0  0  0  0  0  0  0  0  0  0  0  0
   11.4204   -3.6030   24.8962 He  0  0  0  0  0  0  0  0  0  0  0  0
    6.5856   -7.6874   17.7455 He  0  0  0  0  0  0  0  0  0  0  0  0
    6.4743   -7.1200   16.6614 He  0  0  0  0  0  0  0  0  0  0  0  0
    8.2309   -5.6622   16.1216 He  0  0  0  0  0  0  0  0  0  0  0  0
    7.5485   -5.8219   16.9173 He  0  0  0  0  0  0  0  0  0  0  0  0
    9.6963   -1.2665   24.1080 He  0  0  0  0  0  0  0  0  0  0  0  0
   10.1239   -2.8834   17.5941 He  0  0  0  0  0  0  0  0  0  0  0  0
    9.0493   -4.6123   14.8400 He  0  0  0  0  0  0  0  0  0  0  0  0
  1  3  1  0
  1  4  3  0
  1  5  3  0
  1  6  4  0
  1  7  4  0
  1 10  4  0
  2  3  1  0
  2  7  2  0
  2  9  1  0
  2 12  4  0
  2 14  2  0
  3  8  3  0
  3 12  2  0
  5  7  3  0
  5  8  2  0
  5 10  2  0
  6  7  1  0
  6 10  2  0
  6 11  1  0
  6 12  2  0
  7  9  3  0
  8 10  1  0
  8 11  4  0
  8 13  4  0
 10 12  1  0
 10 14  2  0
 11 13  2  0
 13 14  3  0
M  END
$$$$

 Created by Python create_sdf_string function

 26 76  0  0  0  0  0  0  0  0999 V2000
   10.8493   -3.6326   21.1561 C   0  0  0  0  0  0  0  0  0  0  0  0
    8.2000   -9.7176   15.6477 O   0  0  0  0  0  0  0  0  0  0  0  0
   10.9976   -3.5442   16.9725 O   0  0  0  0  0  0  0  0  0  0  0  0
   10.0154   -1.9720   25.2150 C   0  0  0  0  0  0  0  0  0  0  0  0
   10.4380   -2.4173   15.1168 O   0  0  0  0  0  0  0  0  0  0  0  0
   10.6771   -3.1763   22.6075 C   0  0  0  0  0  0  0  0  0  0  0  0
    7.6438   -8.9013   17.6586 Cl  0  0  0  0  0  0  0  0  0  0  0  0
   10.6378   -2.2544   22.4081 C   0  0  0  0  0  0  0  0  0  0  0  0
    9.9465   -3.9053   24.2681 C   0  0  0  0  0  0  0  0  0  0  0  0
   10.8002   -2.4118   19.7385 N   0  0  0  0  0  0  0  0  0  0  0  0
    6.1868   -7.0671   18.2182 N   0  0  0  0  0  0  0  0  0  0  0  0
   10.5917   -4.7877   21.1434 C   0  0  0  0  0  0  0  0  0  0  0  0
    9.5531   -6.0702   16.3612 O   0  0  0  0  0  0  0  0  0  0  0  0
    5.6200   -8.4598   17.9056 C   0  0  0  0  0  0  0  0  0  0  0  0
   10.2033   -4.9188   19.2447 N   0  0  0  0  0  0  0  0  0  0  0  0
    9.4538   -1.6863   24.1032 C   0  0  0  0  0  0  0  0  0  0  0  0
   10.7632   -3.0212   17.7020 S   0  0  0  0  0  0  0  0  0  0  0  0
   10.9120   -4.0302   17.6393 C   0  0  0  0  0  0  0  0  0  0  0  0
    9.1215   -5.4923   18.5723 N   0  0  0  0  0  0  0  0  0  0  0  0
   11.7085   -3.5439   23.2660 N   0  0  0  0  0  0  0  0  0  0  0  0
   10.4475   -3.5715   15.0641 C   0  0  0  0  0  0  0  0  0  0  0  0
    5.4173   -8.5944   15.5106 He  0  0  0  0  0  0  0  0  0  0  0  0
    8.7258   -5.1417   14.3117 He  0  0  0  0  0  0  0  0  0  0  0  0
    5.8676   -9.8174   18.3069 He  0  0  0  0  0  0  0  0  0  0  0  0
    7.5722   -7.9547   15.9818 He  0  0  0  0  0  0  0  0  0  0  0  0
    9.4781   -4.6068   14.5080 He  0  0  0  0  0  0  0  0  0  0  0  0
  1  2  1  0
  1  3  3  0
  1  6  1  0
  1 10  4  0
  1 12  4  0
  1 19  4  0
  1 20  4  0
  2  3  2  0
  2  4  1  0
  2  7  4  0
  2  8  3  0
  2 13  2  0
  2 14  1  0
  2 15  3  0
  2 19  1  0
  2 21  3  0
  3  5  2  0
  3 12  1  0
  3 14  1  0
  3 18  4  0
  3 21  1  0
  4  5  3  0
  4  7  3  0
  4  9  4  0
  4 16  4  0
  4 17  3  0
  4 20  1  0
  4 21  2  0
  5  7  2  0
  5  9  3  0
  5 11  2  0
  5 13  4  0
  5 21  3  0
  6  8  4  0
  6 11  4  0
  6 13  2  0
  6 20  4  0
  6 21  3  0
  7  8  1  0
  7 12  2  0
  7 17  3  0
  7 19  4  0
  7 21  4  0
  8 10  1  0
  8 11  1  0
  8 16  4  0
  8 18  2  0
  9 11  4  0
  9 13  1  0
  9 17  2  0
  9 18  1  0
  9 20  4  0
 10 11  1  0
 10 15  3  0
 10 21  3  0
 11 12  3  0
 11 13  3  0
 11 15  2  0
 11 19  1  0
 11 21  1  0
 12 14  1  0
 12 15  4  0
 12 16  4  0
 12 17  1  0
 12 21  1  0
 13 16  3  0
 13 18  1  0
 13 19  4  0
 13 21  1  0
 14 15  4  0
 14 16  1  0
 15 16  1  0
 15 19  4  0
 16 19  3  0
 17 20  2  0
 19 21  2  0
M  END
$$$$

 Created by Python create_sdf_string function

 26 38  0  0  0  0  0  0  0  0999 V2000
   10.8304   -3.7649   21.6339 C   0  0  0  0  0  0  0  0  0  0  0  0
   10.6815   -4.3042   17.3300 C   0  0  0  0  0  0  0  0  0  0  0  0
    9.3949   -2.5145   25.5624 C   0  0  0  0  0  0  0  0  0  0  0  0
    8.1957   -5.2473   14.2542 C   0  0  0  0  0  0  0  0  0  0  0  0
   10.0839   -3.1339   24.8346 C   0  0  0  0  0  0  0  0  0  0  0  0
    8.2449   -7.5186   16.9356 O   0  0  0  0  0  0  0  0  0  0  0  0
   10.7904   -4.7007   20.5246 C   0  0  0  0  0  0  0  0  0  0  0  0
    5.2912   -7.7670   15.4147 C   0  0  0  0  0  0  0  0  0  0  0  0
    8.5921   -8.2671   17.9107 C   0  0  0  0  0  0  0  0  0  0  0  0
    7.0673   -7.5604   18.0069 S   0  0  0  0  0  0  0  0  0  0  0  0
   10.4607   -5.1342   18.9527 N   0  0  0  0  0  0  0  0  0  0  0  0
    7.6477   -4.8532   16.4615 N   0  0  0  0  0  0  0  0  0  0  0  0
   10.2013   -1.8593   23.6920 C   0  0  0  0  0  0  0  0  0  0  0  0
   10.1271   -4.3588   18.3459 C   0  0  0  0  0  0  0  0  0  0  0  0
   10.8223   -3.9201   23.2913 F   0  0  0  0  0  0  0  0  0  0  0  0
   10.1581   -6.0034   16.3591 O   0  0  0  0  0  0  0  0  0  0  0  0
    5.8141   -8.7262   16.2077 He  0  0  0  0  0  0  0  0  0  0  0  0
    5.7953   -8.2386   16.1823 He  0  0  0  0  0  0  0  0  0  0  0  0
   10.6960   -3.3778   16.4212 He  0  0  0  0  0  0  0  0  0  0  0  0
   10.0679   -3.2863   22.1328 He  0  0  0  0  0  0  0  0  0  0  0  0
    7.8943   -8.1993   17.6035 He  0  0  0  0  0  0  0  0  0  0  0  0
   10.3132   -1.9362   22.5510 He  0  0  0  0  0  0  0  0  0  0  0  0
   11.1116   -2.2190   19.9441 He  0  0  0  0  0  0  0  0  0  0  0  0
    9.7488   -5.1951   18.2664 He  0  0  0  0  0  0  0  0  0  0  0  0
   10.6591   -2.4156   17.3481 He  0  0  0  0  0  0  0  0  0  0  0  0
    9.3417   -6.4409   18.6175 He  0  0  0  0  0  0  0  0  0  0  0  0
  1  4  2  0
  1  6  1  0
  1  7  4  0
  2  6  2  0
  2 14  4  0
  3  5  4  0
  3  6  2  0
  3 10  2  0
  3 16  2  0
  4  5  2  0
  4  6  4  0
  4  7  1  0
  4 12  2  0
  4 14  1  0
  5  8  1  0
  5 10  4  0
  5 14  1  0
  5 15  4  0
  6  8  3  0
  6 11  2  0
  7 10  1  0
  7 11  2  0
  7 16  2  0
  8  9  2  0
  8 10  1  0
  8 12  1  0
  8 13  3  0
  8 14  1  0
  8 16  1  0
  9 12  4  0
  9 13  4  0
  9 14  4  0
 10 15  3  0
 10 16  1  0
 11 14  4  0
 12 13  4  0
 12 16  4  0
 14 16  3  0
M  END
$$$$

 Created by Python create_sdf_string function

 26 51  0  0  0  0  0  0  0  0999 V2000
   10.6503   -4.0836   21.5162 N   0  0  0  0  0  0  0  0  0  0  0  0
    6.7871   -8.2087   15.5018 O   0  0  0  0  0  0  0  0  0  0  0  0
   10.7848   -3.5337   17.3194 C   0  0  0  0  0  0  0  0  0  0  0  0
    9.9500   -3.6807   24.7939 C   0  0  0  0  0  0  0  0  0  0  0  0
    6.7496   -5.9058   14.5335 C   0  0  0  0  0  0  0  0  0  0  0  0
    8.9520   -3.2512   14.9267 C   0  0  0  0  0  0  0  0  0  0  0  0
   10.6099   -3.5934   22.7230 F   0  0  0  0  0  0  0  0  0  0  0  0
    6.3768   -6.9125   18.7509 B   0  0  0  0  0  0  0  0  0  0  0  0
   10.2510   -1.6616   23.2222 N   0  0  0  0  0  0  0  0  0  0  0  0
   10.2554   -4.1290   25.2269 P   0  0  0  0  0  0  0  0  0  0  0  0
   11.3610   -2.5138   19.5142 N   0  0  0  0  0  0  0  0  0  0  0  0
   11.1912   -4.7451   20.7974 C   0  0  0  0  0  0  0  0  0  0  0  0
    7.9735   -8.2867   16.1086 Cl  0  0  0  0  0  0  0  0  0  0  0  0
   10.2643   -5.4063   18.5977 Br  0  0  0  0  0  0  0  0  0  0  0  0
    8.9005   -5.0320   16.2791 F   0  0  0  0  0  0  0  0  0  0  0  0
   10.1263   -1.5687   23.8256 C   0  0  0  0  0  0  0  0  0  0  0  0
   13.0372   -2.5063   18.1119 F   0  0  0  0  0  0  0  0  0  0  0  0
   10.8801   -4.0749   18.6146 C   0  0  0  0  0  0  0  0  0  0  0  0
    5.0989   -8.4230   16.5550 He  0  0  0  0  0  0  0  0  0  0  0  0
    7.1054   -6.6815   15.4774 He  0  0  0  0  0  0  0  0  0  0  0  0
    6.8859   -8.3468   15.1317 He  0  0  0  0  0  0  0  0  0  0  0  0
    7.9656   -8.6055   16.4280 He  0  0  0  0  0  0  0  0  0  0  0  0
    9.5804   -6.9148   18.3753 He  0  0  0  0  0  0  0  0  0  0  0  0
    9.0948   -7.1334   18.2463 He  0  0  0  0  0  0  0  0  0  0  0  0
   10.3959   -4.4548   23.1882 He  0  0  0  0  0  0  0  0  0  0  0  0
    9.5053   -5.6311   17.1605 He  0  0  0  0  0  0  0  0  0  0  0  0
  1  2  4  0
  1  3  3  0
  1  5  2  0
  1  7  1  0
  1 11  4  0
  1 12  4  0
  1 17  1  0
  2  3  1  0
  2  4  2  0
  2  5  2  0
  2  9  2  0
  2 16  2  0
  2 17  4  0
  2 18  4  0
  3  5  2  0
  3  9  1  0
  3 14  4  0
  3 17  4  0
  3 18  2  0
  4  5  1  0
  4  6  2  0
  4 10  4  0
  4 13  4  0
  4 16  1  0
  5  6  3  0
  5 16  4  0
  5 18  2  0
  6  7  1  0
  6 10  3  0
  6 12  3  0
  6 13  2  0
  6 15  2  0
  6 16  3  0
  6 17  1  0
  7 15  3  0
  8  9  2  0
  8 15  2  0
  9 16  4  0
 10 12  2  0
 11 12  3  0
 11 18  4  0
 12 14  3  0
 12 15  3  0
 13 16  3  0
 13 17  2  0
 14 18  4  0
 15 16  1  0
 15 17  3  0
 15 18  1  0
 16 17  2  0
 17 18  4  0
M  END
$$$$

 Created by Python create_sdf_string function

 26 62  0  0  0  0  0  0  0  0999 V2000
   10.9648   -3.6976   21.3299 I   0  0  0  0  0  0  0  0  0  0  0  0
    6.2953   -8.2401   14.6523 C   0  0  0  0  0  0  0  0  0  0  0  0
   11.1122   -3.0888   17.2284 C   0  0  0  0  0  0  0  0  0  0  0  0
    9.5389   -2.7340   24.8630 C   0  0  0  0  0  0  0  0  0  0  0  0
    5.4358   -8.8434   14.8249 C   0  0  0  0  0  0  0  0  0  0  0  0
    6.5863   -5.7144   15.4760 C   0  0  0  0  0  0  0  0  0  0  0  0
   10.7825   -3.1128   22.2320 C   0  0  0  0  0  0  0  0  0  0  0  0
   10.9221   -1.9634   23.4229 N   0  0  0  0  0  0  0  0  0  0  0  0
    9.8721   -4.2790   25.0618 C   0  0  0  0  0  0  0  0  0  0  0  0
   10.9649   -3.3032   19.9298 N   0  0  0  0  0  0  0  0  0  0  0  0
   10.9393   -5.1756   21.1261 C   0  0  0  0  0  0  0  0  0  0  0  0
    7.9263   -9.3273   14.9235 F   0  0  0  0  0  0  0  0  0  0  0  0
    7.9696   -6.7115   15.7863 C   0  0  0  0  0  0  0  0  0  0  0  0
   10.7249   -7.3092   18.5745 C   0  0  0  0  0  0  0  0  0  0  0  0
    8.1081   -8.5274   16.1017 O   0  0  0  0  0  0  0  0  0  0  0  0
    8.6935   -5.3426   17.2479 C   0  0  0  0  0  0  0  0  0  0  0  0
    9.8715   -1.5540   24.0270 C   0  0  0  0  0  0  0  0  0  0  0  0
   10.6612   -3.9113   19.1023 C   0  0  0  0  0  0  0  0  0  0  0  0
   10.5222   -4.7263   23.1874 C   0  0  0  0  0  0  0  0  0  0  0  0
    9.2557   -5.3826   16.9842 He  0  0  0  0  0  0  0  0  0  0  0  0
    5.4607   -8.2329   17.2602 He  0  0  0  0  0  0  0  0  0  0  0  0
    6.4457   -7.5543   16.1392 He  0  0  0  0  0  0  0  0  0  0  0  0
   10.6093   -4.5586   18.9982 He  0  0  0  0  0  0  0  0  0  0  0  0
   11.4246   -3.5315   17.8355 He  0  0  0  0  0  0  0  0  0  0  0  0
    9.4462   -6.5855   17.5378 He  0  0  0  0  0  0  0  0  0  0  0  0
   11.6352   -5.7317   16.8169 He  0  0  0  0  0  0  0  0  0  0  0  0
  1  2  3  0
  1  7  1  0
  1 10  4  0
  1 11  4  0
  1 12  4  0
  1 13  2  0
  1 19  2  0
  2  3  1  0
  2  5  1  0
  2  7  1  0
  2  8  1  0
  2 10  1  0
  2 12  4  0
  2 13  3  0
  2 16  3  0
  2 19  1  0
  3  5  3  0
  3 18  1  0
  4 12  4  0
  4 14  4  0
  4 17  4  0
  5  6  2  0
  5  8  1  0
  5  9  3  0
  5 12  2  0
  5 13  4  0
  5 14  1  0
  5 19  3  0
  6  7  1  0
  6 13  4  0
  6 18  4  0
  7  8  4  0
  7 14  2  0
  7 19  4  0
  8 10  1  0
  8 11  4  0
  8 13  4  0
  8 14  1  0
  8 15  3  0
  8 16  1  0
  8 17  4  0
  9 13  3  0
  9 15  2  0
  9 16  1  0
  9 17  1  0
  9 19  4  0
 10 12  3  0
 10 14  1  0
 10 15  2  0
 11 13  4  0
 11 16  2  0
 12 13  2  0
 12 16  3  0
 12 18  1  0
 12 19  1  0
 13 15  1  0
 13 19  3  0
 14 17  4  0
 14 19  2  0
 15 17  2  0
 16 18  1  0
 16 19  2  0
M  END
$$$$

 Created by Python create_sdf_string function

 26 43  0  0  0  0  0  0  0  0999 V2000
   11.0489   -3.3657   20.7700 C   0  0  0  0  0  0  0  0  0  0  0  0
    7.0130   -8.3693   17.0997 C   0  0  0  0  0  0  0  0  0  0  0  0
   11.3443   -2.6519   17.7577 C   0  0  0  0  0  0  0  0  0  0  0  0
    9.7714   -2.0147   24.5416 C   0  0  0  0  0  0  0  0  0  0  0  0
    5.1064   -8.7936   14.9171 P   0  0  0  0  0  0  0  0  0  0  0  0
    7.7391   -4.3313   16.9488 S   0  0  0  0  0  0  0  0  0  0  0  0
   10.3787   -2.7330   22.2692 N   0  0  0  0  0  0  0  0  0  0  0  0
   10.2330   -2.0809   22.6997 N   0  0  0  0  0  0  0  0  0  0  0  0
   10.0224   -4.1815   25.2443 C   0  0  0  0  0  0  0  0  0  0  0  0
   10.9230   -3.2033   20.3957 Cl  0  0  0  0  0  0  0  0  0  0  0  0
    4.9761   -7.5826   17.0100 P   0  0  0  0  0  0  0  0  0  0  0  0
   10.6187   -5.0996   20.8234 C   0  0  0  0  0  0  0  0  0  0  0  0
    7.9830   -7.8524   16.1100 C   0  0  0  0  0  0  0  0  0  0  0  0
    8.1938   -5.5135   16.8439 O   0  0  0  0  0  0  0  0  0  0  0  0
   10.0422   -2.1200   23.9559 C   0  0  0  0  0  0  0  0  0  0  0  0
    8.9960   -2.5083   17.7142 F   0  0  0  0  0  0  0  0  0  0  0  0
    9.1232   -6.8991   17.8382 C   0  0  0  0  0  0  0  0  0  0  0  0
   10.6628   -6.2709   17.3025 P   0  0  0  0  0  0  0  0  0  0  0  0
    7.4446   -5.3359   17.8105 He  0  0  0  0  0  0  0  0  0  0  0  0
    5.3341   -8.3940   18.4488 He  0  0  0  0  0  0  0  0  0  0  0  0
    9.2050   -9.2530   16.3540 He  0  0  0  0  0  0  0  0  0  0  0  0
    9.0852   -7.1098   17.3265 He  0  0  0  0  0  0  0  0  0  0  0  0
    6.9737   -8.6818   16.9636 He  0  0  0  0  0  0  0  0  0  0  0  0
   11.0560   -5.1968   19.8517 He  0  0  0  0  0  0  0  0  0  0  0  0
   10.4983   -3.7420   19.2922 He  0  0  0  0  0  0  0  0  0  0  0  0
   10.3392   -4.2140   23.2953 He  0  0  0  0  0  0  0  0  0  0  0  0
  1  2  4  0
  1  4  3  0
  1  5  3  0
  1  7  1  0
  1 12  4  0
  1 14  3  0
  1 16  1  0
  2  6  2  0
  2  7  1  0
  2  8  2  0
  2  9  4  0
  2 10  4  0
  2 14  3  0
  2 15  1  0
  3  7  4  0
  3 16  1  0
  3 17  3  0
  3 18  2  0
  4  6  2  0
  4  9  2  0
  4 11  3  0
  4 12  2  0
  5  7  4  0
  5 12  2  0
  5 14  2  0
  5 18  3  0
  6 10  3  0
  6 11  2  0
  6 16  4  0
  7  8  4  0
  7 13  1  0
  7 18  2  0
  8 11  3  0
  8 12  1  0
 10 14  1  0
 11 14  4  0
 11 16  3  0
 12 14  1  0
 12 16  4  0
 12 18  1  0
 13 18  1  0
 14 18  3  0
 15 17  3  0
M  END
$$$$

 Created by Python create_sdf_string function

 26 39  0  0  0  0  0  0  0  0999 V2000
    6.6304   -6.6246   17.8948 N   0  0  0  0  0  0  0  0  0  0  0  0
   10.5439   -2.6166   17.4864 F   0  0  0  0  0  0  0  0  0  0  0  0
    5.7118   -9.6194   16.1340 C   0  0  0  0  0  0  0  0  0  0  0  0
    9.4702   -4.2841   14.8373 Br  0  0  0  0  0  0  0  0  0  0  0  0
   10.7529   -3.2163   22.0018 C   0  0  0  0  0  0  0  0  0  0  0  0
   10.7342   -1.8719   22.6343 N   0  0  0  0  0  0  0  0  0  0  0  0
   10.3156   -3.8767   25.5710 C   0  0  0  0  0  0  0  0  0  0  0  0
   10.8097   -3.4253   19.7116 N   0  0  0  0  0  0  0  0  0  0  0  0
   10.4514   -5.3542   20.5954 C   0  0  0  0  0  0  0  0  0  0  0  0
    8.3173   -7.2302   17.4468 O   0  0  0  0  0  0  0  0  0  0  0  0
   10.8473   -5.1606   19.5572 C   0  0  0  0  0  0  0  0  0  0  0  0
    8.7191   -6.1767   16.4004 Br  0  0  0  0  0  0  0  0  0  0  0  0
    9.9091   -1.7630   24.0021 C   0  0  0  0  0  0  0  0  0  0  0  0
   10.6767   -3.3423   18.9426 Br  0  0  0  0  0  0  0  0  0  0  0  0
    9.6745   -7.1436   17.7577 C   0  0  0  0  0  0  0  0  0  0  0  0
   10.8231   -3.9055   23.7295 C   0  0  0  0  0  0  0  0  0  0  0  0
    9.1272   -6.1636   17.3612 C   0  0  0  0  0  0  0  0  0  0  0  0
   10.2346   -4.0118   21.3168 He  0  0  0  0  0  0  0  0  0  0  0  0
   10.0026   -2.1136   24.8504 He  0  0  0  0  0  0  0  0  0  0  0  0
    8.6596   -5.0865   17.2171 He  0  0  0  0  0  0  0  0  0  0  0  0
    6.3278   -8.3706   19.0944 He  0  0  0  0  0  0  0  0  0  0  0  0
    3.9341   -7.4807   17.7787 He  0  0  0  0  0  0  0  0  0  0  0  0
    8.5854   -7.6225   15.7538 He  0  0  0  0  0  0  0  0  0  0  0  0
    9.6511   -8.4449   17.1831 He  0  0  0  0  0  0  0  0  0  0  0  0
    5.8047   -9.7363   16.4415 He  0  0  0  0  0  0  0  0  0  0  0  0
   11.7124   -2.2521   17.4021 He  0  0  0  0  0  0  0  0  0  0  0  0
  1  3  1  0
  1  5  2  0
  1  7  3  0
  1 11  1  0
  1 12  2  0
  1 13  4  0
  2 10  4  0
  2 12  2  0
  3  5  3  0
  3 15  3  0
  4  5  1  0
  4  6  2  0
  4  8  2  0
  4  9  3  0
  4 10  2  0
  4 11  4  0
  4 14  3  0
  4 15  3  0
  5  6  2  0
  5 17  2  0
  6 10  2  0
  6 13  4  0
  6 15  4  0
  7 10  4  0
  7 15  3  0
  8  9  2  0
  8 10  1  0
  8 14  1  0
  8 15  1  0
  9 10  1  0
  9 11  4  0
 10 11  1  0
 10 12  2  0
 11 12  1  0
 12 14  3  0
 12 16  1  0
 12 17  1  0
 14 15  3  0
 16 17  1  0
M  END
$$$$

 Created by Python create_sdf_string function

 26 51  0  0  0  0  0  0  0  0999 V2000
   10.5614   -3.9793   21.1579 C   0  0  0  0  0  0  0  0  0  0  0  0
    4.1961   -7.4785   17.6552 P   0  0  0  0  0  0  0  0  0  0  0  0
    9.9899   -3.1330   17.2383 C   0  0  0  0  0  0  0  0  0  0  0  0
   10.0433   -2.3902   24.9757 C   0  0  0  0  0  0  0  0  0  0  0  0
    4.2193   -8.9253   15.7137 N   0  0  0  0  0  0  0  0  0  0  0  0
   10.2342   -2.7741   15.6608 C   0  0  0  0  0  0  0  0  0  0  0  0
    8.6134   -5.0656   16.8906 S   0  0  0  0  0  0  0  0  0  0  0  0
   10.3766   -3.2360   22.7192 C   0  0  0  0  0  0  0  0  0  0  0  0
    5.2863   -7.4404   17.4106 F   0  0  0  0  0  0  0  0  0  0  0  0
   10.2060   -2.2605   22.8616 N   0  0  0  0  0  0  0  0  0  0  0  0
   10.6733   -3.8268   25.1374 C   0  0  0  0  0  0  0  0  0  0  0  0
   10.3457   -2.8038   20.4678 S   0  0  0  0  0  0  0  0  0  0  0  0
   10.9265   -5.1443   21.1664 C   0  0  0  0  0  0  0  0  0  0  0  0
    5.1918   -8.3131   16.3896 F   0  0  0  0  0  0  0  0  0  0  0  0
    9.2096   -6.1169   16.7392 C   0  0  0  0  0  0  0  0  0  0  0  0
   10.0221   -1.0613   23.9325 O   0  0  0  0  0  0  0  0  0  0  0  0
    9.3407   -2.6872   17.6297 O   0  0  0  0  0  0  0  0  0  0  0  0
   10.1875   -4.8162   18.8328 C   0  0  0  0  0  0  0  0  0  0  0  0
    9.5434   -7.6241   18.1619 C   0  0  0  0  0  0  0  0  0  0  0  0
    9.2493   -5.9329   17.1286 C   0  0  0  0  0  0  0  0  0  0  0  0
    4.3033   -8.2995   16.3712 He  0  0  0  0  0  0  0  0  0  0  0  0
    7.7050   -7.8715   15.9716 He  0  0  0  0  0  0  0  0  0  0  0  0
    8.1247   -8.0286   17.4973 He  0  0  0  0  0  0  0  0  0  0  0  0
    8.3478   -7.6224   17.0833 He  0  0  0  0  0  0  0  0  0  0  0  0
   10.4480   -5.8238   19.3297 He  0  0  0  0  0  0  0  0  0  0  0  0
   10.8200   -3.9093   23.5881 He  0  0  0  0  0  0  0  0  0  0  0  0
  1 12  4  0
  1 13  4  0
  1 14  2  0
  2  4  4  0
  2  8  3  0
  2  9  3  0
  2 14  1  0
  2 15  2  0
  2 20  1  0
  3 10  1  0
  3 11  4  0
  4 11  4  0
  4 16  4  0
  4 17  4  0
  4 18  3  0
  5  7  4  0
  5 14  1  0
  5 15  2  0
  5 16  3  0
  5 17  1  0
  6 11  2  0
  6 13  1  0
  6 14  1  0
  6 16  3  0
  6 19  1  0
  7  9  1  0
  7 20  3  0
  8 10  4  0
  8 17  1  0
  8 19  4  0
  9 11  4  0
  9 13  2  0
  9 17  2  0
 10 16  4  0
 10 18  4  0
 10 19  3  0
 10 20  2  0
 11 14  1  0
 11 15  2  0
 11 16  3  0
 11 17  4  0
 11 20  1  0
 12 15  2  0
 12 18  4  0
 12 20  4  0
 13 14  3  0
 13 17  3  0
 13 20  4  0
 15 18  3  0
 16 17  3  0
 17 18  4  0
M  END
$$$$

 Created by Python create_sdf_string function

 26 54  0  0  0  0  0  0  0  0999 V2000
   10.5282   -3.0937   16.9609 C   0  0  0  0  0  0  0  0  0  0  0  0
   10.2026   -2.2409   24.9871 C   0  0  0  0  0  0  0  0  0  0  0  0
    3.8265   -6.9703   16.5850 P   0  0  0  0  0  0  0  0  0  0  0  0
   10.2916   -2.6769   22.1747 C   0  0  0  0  0  0  0  0  0  0  0  0
    4.1387   -6.7864   17.9223 C   0  0  0  0  0  0  0  0  0  0  0  0
   10.0369   -2.1178   22.6349 N   0  0  0  0  0  0  0  0  0  0  0  0
    5.1619   -9.3704   16.1572 C   0  0  0  0  0  0  0  0  0  0  0  0
   10.6490   -5.1263   20.2951 C   0  0  0  0  0  0  0  0  0  0  0  0
    8.4716   -8.6993   15.6623 C   0  0  0  0  0  0  0  0  0  0  0  0
    8.3806   -6.5529   16.5353 C   0  0  0  0  0  0  0  0  0  0  0  0
    5.0720  -10.9884   16.5839 C   0  0  0  0  0  0  0  0  0  0  0  0
   10.9885   -5.4152   19.8958 C   0  0  0  0  0  0  0  0  0  0  0  0
   10.8333   -5.9205   17.7836 F   0  0  0  0  0  0  0  0  0  0  0  0
   10.0412   -1.2429   24.2642 C   0  0  0  0  0  0  0  0  0  0  0  0
    7.5069   -3.8891   18.6894 F   0  0  0  0  0  0  0  0  0  0  0  0
   10.2981   -4.3980   19.2391 B   0  0  0  0  0  0  0  0  0  0  0  0
    9.0393   -7.4480   18.6807 C   0  0  0  0  0  0  0  0  0  0  0  0
   10.3747   -4.0445   23.1793 C   0  0  0  0  0  0  0  0  0  0  0  0
   10.6220   -4.3857   21.3688 He  0  0  0  0  0  0  0  0  0  0  0  0
    6.4436   -8.7750   17.8762 He  0  0  0  0  0  0  0  0  0  0  0  0
   11.0646   -4.8500   14.8185 He  0  0  0  0  0  0  0  0  0  0  0  0
    8.8421   -5.1340   17.6413 He  0  0  0  0  0  0  0  0  0  0  0  0
   10.1610   -3.4756   25.7483 He  0  0  0  0  0  0  0  0  0  0  0  0
    9.9767   -3.9951   20.5361 He  0  0  0  0  0  0  0  0  0  0  0  0
    8.1956   -7.8507   16.6050 He  0  0  0  0  0  0  0  0  0  0  0  0
   10.0671   -6.8525   17.9207 He  0  0  0  0  0  0  0  0  0  0  0  0
  2  7  4  0
  2  9  2  0
  2 11  3  0
  2 13  3  0
  2 14  4  0
  2 15  2  0
  2 18  1  0
  3  6  3  0
  3  9  4  0
  3 10  3  0
  3 11  2  0
  3 14  1  0
  4  6  4  0
  4  8  4  0
  4  9  4  0
  4 10  1  0
  4 14  1  0
  4 18  4  0
  5  8  4  0
  5 11  3  0
  5 14  3  0
  5 17  2  0
  6 13  4  0
  6 14  4  0
  6 17  4  0
  7  8  2  0
  7  9  4  0
  7 11  1  0
  7 14  4  0
  7 18  2  0
  8  9  2  0
  8 13  3  0
  8 14  3  0
  8 16  2  0
  8 17  3  0
  9 14  1  0
  9 16  4  0
  9 17  1  0
  9 18  3  0
 10 11  2  0
 10 12  4  0
 10 13  3  0
 10 15  4  0
 10 18  4  0
 11 12  1  0
 11 14  2  0
 11 16  3  0
 11 18  4  0
 12 16  4  0
 13 14  1  0
 13 15  1  0
 13 17  1  0
 14 15  4  0
 15 16  3  0
M  END
$$$$

 Created by Python create_sdf_string function

 26 81  0  0  0  0  0  0  0  0999 V2000
   10.1047   -3.9679   21.5389 C   0  0  0  0  0  0  0  0  0  0  0  0
   10.5186   -3.4824   17.3319 C   0  0  0  0  0  0  0  0  0  0  0  0
    9.8463   -2.1856   25.4548 C   0  0  0  0  0  0  0  0  0  0  0  0
   10.3338   -3.3419   15.3831 O   0  0  0  0  0  0  0  0  0  0  0  0
    9.8330   -4.5554   18.4888 F   0  0  0  0  0  0  0  0  0  0  0  0
   11.2251   -3.0394   22.7082 C   0  0  0  0  0  0  0  0  0  0  0  0
    7.9835   -7.9195   15.7498 Cl  0  0  0  0  0  0  0  0  0  0  0  0
   10.4178   -1.5985   23.0587 N   0  0  0  0  0  0  0  0  0  0  0  0
    9.9178   -3.3750   25.2055 N   0  0  0  0  0  0  0  0  0  0  0  0
    9.8755   -3.5053   21.1605 C   0  0  0  0  0  0  0  0  0  0  0  0
    5.7992  -10.2197   15.5568 F   0  0  0  0  0  0  0  0  0  0  0  0
   10.7336   -5.1444   21.2368 C   0  0  0  0  0  0  0  0  0  0  0  0
    8.0955   -7.7844   16.1166 C   0  0  0  0  0  0  0  0  0  0  0  0
    7.1517   -6.5079   15.4381 Se  0  0  0  0  0  0  0  0  0  0  0  0
    4.6296   -8.7408   16.7605 F   0  0  0  0  0  0  0  0  0  0  0  0
   10.3935   -5.4792   19.1475 C   0  0  0  0  0  0  0  0  0  0  0  0
   10.1208   -5.3210   18.4825 S   0  0  0  0  0  0  0  0  0  0  0  0
    9.4757   -0.9130   24.0466 C   0  0  0  0  0  0  0  0  0  0  0  0
    9.2472   -4.5534   18.1712 P   0  0  0  0  0  0  0  0  0  0  0  0
   10.6680   -4.1109   19.2277 C   0  0  0  0  0  0  0  0  0  0  0  0
    8.8541   -7.4064   18.9098 C   0  0  0  0  0  0  0  0  0  0  0  0
    9.5301   -7.1762   17.1817 P   0  0  0  0  0  0  0  0  0  0  0  0
    7.6341   -8.0932   16.9338 He  0  0  0  0  0  0  0  0  0  0  0  0
    4.5298   -8.6155   17.9844 He  0  0  0  0  0  0  0  0  0  0  0  0
    7.2304   -7.9391   17.1003 He  0  0  0  0  0  0  0  0  0  0  0  0
   10.8993   -3.8493   23.6080 He  0  0  0  0  0  0  0  0  0  0  0  0
  1  6  1  0
  1 10  4  0
  1 11  4  0
  1 12  4  0
  1 19  3  0
  2  3  3  0
  2  4  1  0
  2  7  2  0
  2 13  3  0
  2 15  1  0
  2 17  1  0
  2 19  2  0
  2 21  4  0
  2 22  1  0
  3  4  3  0
  3  5  3  0
  3  7  4  0
  3  9  4  0
  3 11  4  0
  3 13  1  0
  3 16  2  0
  3 18  4  0
  3 22  3  0
  4  6  4  0
  4 11  1  0
  4 12  1  0
  4 13  4  0
  4 18  2  0
  4 19  4  0
  4 20  3  0
  4 21  4  0
  5  9  3  0
  5 10  4  0
  5 11  2  0
  5 13  3  0
  5 15  3  0
  5 22  1  0
  6  8  4  0
  6 10  2  0
  6 11  3  0
  6 13  4  0
  6 16  4  0
  6 19  1  0
  7 15  3  0
  7 16  2  0
  7 18  1  0
  7 20  3  0
  8 14  3  0
  8 15  1  0
  8 16  4  0
  8 18  4  0
  8 19  3  0
  9 16  2  0
  9 22  2  0
 10 13  1  0
 10 14  3  0
 10 15  2  0
 10 19  3  0
 11 14  1  0
 11 15  1  0
 11 16  4  0
 11 18  3  0
 11 19  2  0
 12 16  4  0
 12 17  4  0
 12 18  3  0
 13 15  2  0
 13 17  1  0
 13 20  4  0
 14 21  4  0
 14 22  4  0
 15 20  3  0
 15 21  3  0
 15 22  4  0
 16 18  2  0
 16 20  4  0
 17 20  4  0
 18 19  4  0
 19 22  2  0
 20 21  4  0
 21 22  4  0
M  END
$$$$

 Created by Python create_sdf_string function

 26 35  0  0  0  0  0  0  0  0999 V2000
   10.6309   -3.7211   21.8439 F   0  0  0  0  0  0  0  0  0  0  0  0
    7.6612   -9.7420   17.8758 Cl  0  0  0  0  0  0  0  0  0  0  0  0
   10.2911   -3.8846   16.9524 C   0  0  0  0  0  0  0  0  0  0  0  0
    9.7877   -2.0599   25.6332 C   0  0  0  0  0  0  0  0  0  0  0  0
   10.1758   -3.3938   23.1495 C   0  0  0  0  0  0  0  0  0  0  0  0
   10.1808   -1.8005   23.0331 N   0  0  0  0  0  0  0  0  0  0  0  0
   10.5075   -2.8114   24.8571 N   0  0  0  0  0  0  0  0  0  0  0  0
   10.3206   -4.0562   20.4975 C   0  0  0  0  0  0  0  0  0  0  0  0
   10.7556   -4.9711   21.5410 N   0  0  0  0  0  0  0  0  0  0  0  0
    6.9572   -8.0367   15.7406 F   0  0  0  0  0  0  0  0  0  0  0  0
    7.0930   -8.2917   18.0622 Cl  0  0  0  0  0  0  0  0  0  0  0  0
   10.3092   -5.2573   20.3720 F   0  0  0  0  0  0  0  0  0  0  0  0
    9.3601   -7.6627   17.6916 C   0  0  0  0  0  0  0  0  0  0  0  0
    9.6904   -1.0121   24.7070 C   0  0  0  0  0  0  0  0  0  0  0  0
    9.8240   -6.6682   16.7646 O   0  0  0  0  0  0  0  0  0  0  0  0
   10.3749   -3.9083   19.2757 C   0  0  0  0  0  0  0  0  0  0  0  0
    9.2579   -7.9209   18.2633 C   0  0  0  0  0  0  0  0  0  0  0  0
    4.2950   -7.6426   18.6805 He  0  0  0  0  0  0  0  0  0  0  0  0
   10.0108   -2.8919   15.4781 He  0  0  0  0  0  0  0  0  0  0  0  0
    9.2741   -4.6822   18.9265 He  0  0  0  0  0  0  0  0  0  0  0  0
    7.6324   -8.6828   17.6351 He  0  0  0  0  0  0  0  0  0  0  0  0
    4.7316   -9.7740   15.1824 He  0  0  0  0  0  0  0  0  0  0  0  0
    9.6186   -8.9244   17.2438 He  0  0  0  0  0  0  0  0  0  0  0  0
    6.3480   -9.7967   17.2149 He  0  0  0  0  0  0  0  0  0  0  0  0
   10.6783   -4.0390   24.0433 He  0  0  0  0  0  0  0  0  0  0  0  0
   10.5115   -5.5073   18.2972 He  0  0  0  0  0  0  0  0  0  0  0  0
  1  2  3  0
  1  3  3  0
  1  4  3  0
  1  8  4  0
  1  9  4  0
  1 11  4  0
  1 13  2  0
  2 10  1  0
  2 11  1  0
  2 14  1  0
  2 16  3  0
  4  7  4  0
  4 14  4  0
  4 15  1  0
  5  6  4  0
  5 11  2  0
  5 13  3  0
  7 11  2  0
  7 12  2  0
  8 11  1  0
  8 13  3  0
  8 14  1  0
  8 15  1  0
  8 16  4  0
  9 10  4  0
  9 12  1  0
  9 15  3  0
 10 12  4  0
 10 16  1  0
 10 17  4  0
 11 14  2  0
 11 15  3  0
 12 13  3  0
 12 15  3  0
 12 16  4  0
M  END
$$$$

 Created by Python create_sdf_string function

 26 73  0  0  0  0  0  0  0  0999 V2000
   10.2686   -4.3404   21.8497 Br  0  0  0  0  0  0  0  0  0  0  0  0
    7.5137   -8.6688   17.7767 C   0  0  0  0  0  0  0  0  0  0  0  0
   10.1277   -4.0894   17.5856 C   0  0  0  0  0  0  0  0  0  0  0  0
    9.6718   -1.6411   25.2700 C   0  0  0  0  0  0  0  0  0  0  0  0
    4.2273   -8.7122   18.3670 Cl  0  0  0  0  0  0  0  0  0  0  0  0
    8.8060   -4.9898   15.3657 O   0  0  0  0  0  0  0  0  0  0  0  0
   10.2168   -3.8166   23.0718 P   0  0  0  0  0  0  0  0  0  0  0  0
    7.9813   -8.6276   17.3112 N   0  0  0  0  0  0  0  0  0  0  0  0
   10.2935   -2.0256   23.1046 N   0  0  0  0  0  0  0  0  0  0  0  0
   10.7192   -2.9301   24.9771 N   0  0  0  0  0  0  0  0  0  0  0  0
   10.1373   -2.8720   20.5131 C   0  0  0  0  0  0  0  0  0  0  0  0
    6.1153   -9.1457   16.6728 F   0  0  0  0  0  0  0  0  0  0  0  0
   10.6938   -5.1874   22.0398 Cl  0  0  0  0  0  0  0  0  0  0  0  0
    9.0878   -7.4716   18.0008 C   0  0  0  0  0  0  0  0  0  0  0  0
    5.0837   -8.7960   19.7465 Se  0  0  0  0  0  0  0  0  0  0  0  0
    6.5207   -9.9197   17.5778 C   0  0  0  0  0  0  0  0  0  0  0  0
   10.9856   -5.6399   20.1771 O   0  0  0  0  0  0  0  0  0  0  0  0
    9.6387   -1.0291   24.2086 C   0  0  0  0  0  0  0  0  0  0  0  0
    8.4382   -5.3446   17.3495 N   0  0  0  0  0  0  0  0  0  0  0  0
    9.6662   -7.5022   18.2548 C   0  0  0  0  0  0  0  0  0  0  0  0
   10.4762   -4.0441   18.2940 N   0  0  0  0  0  0  0  0  0  0  0  0
   10.4782   -5.1579   18.8281 He  0  0  0  0  0  0  0  0  0  0  0  0
    5.5203   -7.8402   15.6772 He  0  0  0  0  0  0  0  0  0  0  0  0
    9.0959   -6.1266   17.4420 He  0  0  0  0  0  0  0  0  0  0  0  0
    9.8255   -4.3570   19.6581 He  0  0  0  0  0  0  0  0  0  0  0  0
   10.4536   -3.3804   24.1145 He  0  0  0  0  0  0  0  0  0  0  0  0
  1  5  1  0
  1  7  1  0
  1 11  4  0
  1 13  2  0
  1 14  3  0
  1 19  1  0
  1 21  4  0
  2  4  2  0
  2  6  1  0
  2  8  4  0
  2  9  2  0
  2 19  3  0
  2 20  1  0
  3 13  2  0
  3 16  3  0
  3 17  2  0
  3 21  3  0
  4  5  1  0
  4  6  1  0
  4 10  4  0
  4 12  1  0
  4 14  3  0
  4 16  2  0
  4 18  4  0
  4 20  3  0
  4 21  2  0
  5  7  4  0
  5  8  1  0
  5  9  4  0
  5 10  3  0
  5 12  2  0
  5 15  1  0
  5 20  2  0
  5 21  1  0
  6  9  1  0
  6 10  4  0
  6 11  3  0
  6 14  3  0
  6 17  4  0
  6 19  4  0
  6 20  3  0
  7  9  4  0
  7 19  1  0
  8 16  1  0
  8 17  1  0
  8 20  1  0
  9 14  4  0
  9 15  3  0
 10 12  3  0
 10 19  4  0
 11 14  4  0
 11 21  1  0
 12 16  4  0
 12 18  2  0
 12 19  4  0
 12 20  3  0
 12 21  4  0
 13 15  3  0
 13 16  3  0
 13 17  4  0
 13 21  4  0
 14 15  2  0
 14 17  1  0
 14 19  1  0
 14 20  3  0
 14 21  4  0
 15 20  3  0
 16 21  1  0
 17 18  1  0
 17 19  4  0
 18 19  3  0
 18 21  2  0
 20 21  2  0
M  END
$$$$

 Created by Python create_sdf_string function

 26 54  0  0  0  0  0  0  0  0999 V2000
   10.7394   -4.0525   22.1610 C   0  0  0  0  0  0  0  0  0  0  0  0
   10.2376   -3.9500   16.5776 C   0  0  0  0  0  0  0  0  0  0  0  0
    9.6797   -1.1151   25.7486 C   0  0  0  0  0  0  0  0  0  0  0  0
    8.5414   -5.3436   14.7215 C   0  0  0  0  0  0  0  0  0  0  0  0
    9.3196   -5.5316   19.4045 F   0  0  0  0  0  0  0  0  0  0  0  0
    9.7735   -3.0845   23.3909 C   0  0  0  0  0  0  0  0  0  0  0  0
   10.0740   -3.8558   25.3437 N   0  0  0  0  0  0  0  0  0  0  0  0
   10.3045   -3.4191   20.7443 C   0  0  0  0  0  0  0  0  0  0  0  0
    7.2098   -8.8800   17.6278 C   0  0  0  0  0  0  0  0  0  0  0  0
   11.1902   -5.8898   21.3162 C   0  0  0  0  0  0  0  0  0  0  0  0
    7.8737   -7.7936   19.1746 O   0  0  0  0  0  0  0  0  0  0  0  0
    5.9803   -6.9892   16.7348 O   0  0  0  0  0  0  0  0  0  0  0  0
    7.0705   -8.2526   17.6726 C   0  0  0  0  0  0  0  0  0  0  0  0
   10.7136   -5.5438   20.7277 C   0  0  0  0  0  0  0  0  0  0  0  0
    8.0310   -3.6093   15.6426 F   0  0  0  0  0  0  0  0  0  0  0  0
   10.2517   -3.6530   18.9005 C   0  0  0  0  0  0  0  0  0  0  0  0
   10.9146   -3.5858   24.4055 N   0  0  0  0  0  0  0  0  0  0  0  0
    9.3888   -3.8896   17.4768 N   0  0  0  0  0  0  0  0  0  0  0  0
    7.7239   -7.4619   16.3331 He  0  0  0  0  0  0  0  0  0  0  0  0
    4.2227  -10.6687   18.0681 He  0  0  0  0  0  0  0  0  0  0  0  0
    8.5740   -7.7691   16.0272 He  0  0  0  0  0  0  0  0  0  0  0  0
   10.0049   -1.9287   22.7995 He  0  0  0  0  0  0  0  0  0  0  0  0
    6.3968   -9.0560   18.0490 He  0  0  0  0  0  0  0  0  0  0  0  0
    9.4870   -4.2957   17.0060 He  0  0  0  0  0  0  0  0  0  0  0  0
    9.8689   -1.2289   24.4506 He  0  0  0  0  0  0  0  0  0  0  0  0
    8.6692   -7.3105   18.0699 He  0  0  0  0  0  0  0  0  0  0  0  0
  1  6  1  0
  1  8  4  0
  1  9  2  0
  1 10  4  0
  2  4  1  0
  2  5  1  0
  2  9  4  0
  2 15  2  0
  3 11  1  0
  3 12  2  0
  3 15  2  0
  3 18  1  0
  4  8  4  0
  4  9  4  0
  4 10  3  0
  4 13  2  0
  4 14  4  0
  5  6  1  0
  5 13  1  0
  5 14  3  0
  6  9  1  0
  6 12  2  0
  6 18  1  0
  7  9  2  0
  7 15  3  0
  7 17  1  0
  8 13  2  0
  8 15  4  0
  8 16  4  0
  8 18  4  0
  9 10  3  0
  9 12  4  0
  9 13  3  0
  9 17  3  0
 10 13  4  0
 10 14  4  0
 10 15  1  0
 10 16  4  0
 10 18  2  0
 11 13  4  0
 11 15  2  0
 11 16  4  0
 12 13  3  0
 12 14  2  0
 12 15  3  0
 12 18  4  0
 13 14  3  0
 13 16  1  0
 13 17  4  0
 14 15  2  0
 15 16  4  0
 15 18  3  0
 16 18  4  0
 17 18  3  0
M  END
$$$$

 Created by Python create_sdf_string function

 26 38  0  0  0  0  0  0  0  0999 V2000
   10.9970   -4.4195   21.7413 C   0  0  0  0  0  0  0  0  0  0  0  0
    7.4476   -7.1857   14.2441 C   0  0  0  0  0  0  0  0  0  0  0  0
   10.1303   -3.8052   16.5907 C   0  0  0  0  0  0  0  0  0  0  0  0
   10.3051   -1.6026   25.9229 C   0  0  0  0  0  0  0  0  0  0  0  0
   10.0373   -5.1925   18.4240 C   0  0  0  0  0  0  0  0  0  0  0  0
   10.3647   -3.2183   22.8972 C   0  0  0  0  0  0  0  0  0  0  0  0
    7.3741   -7.1958   15.5352 N   0  0  0  0  0  0  0  0  0  0  0  0
   10.6947   -1.4335   23.4036 C   0  0  0  0  0  0  0  0  0  0  0  0
   10.6823   -3.6928   20.4129 C   0  0  0  0  0  0  0  0  0  0  0  0
   10.6458   -5.4684   21.8337 C   0  0  0  0  0  0  0  0  0  0  0  0
    7.7961   -8.1104   18.7686 O   0  0  0  0  0  0  0  0  0  0  0  0
   10.2543   -6.3737   20.2334 C   0  0  0  0  0  0  0  0  0  0  0  0
    9.4919   -5.2051   17.8619 Se  0  0  0  0  0  0  0  0  0  0  0  0
    9.8446   -1.4479   24.3033 C   0  0  0  0  0  0  0  0  0  0  0  0
    8.8710   -2.4679   17.3647 F   0  0  0  0  0  0  0  0  0  0  0  0
    9.8678   -3.2331   20.0029 N   0  0  0  0  0  0  0  0  0  0  0  0
    8.8448   -6.6809   17.9856 C   0  0  0  0  0  0  0  0  0  0  0  0
    4.2200   -9.1947   18.2472 He  0  0  0  0  0  0  0  0  0  0  0  0
    6.9710   -5.8879   16.2987 He  0  0  0  0  0  0  0  0  0  0  0  0
    9.8357   -3.1920   25.1842 He  0  0  0  0  0  0  0  0  0  0  0  0
    8.0458   -9.4901   18.2729 He  0  0  0  0  0  0  0  0  0  0  0  0
    8.5244   -6.7976   18.1456 He  0  0  0  0  0  0  0  0  0  0  0  0
    6.7147   -7.2441   16.7683 He  0  0  0  0  0  0  0  0  0  0  0  0
    6.3315   -9.4610   18.1041 He  0  0  0  0  0  0  0  0  0  0  0  0
   10.3580   -3.6024   23.9562 He  0  0  0  0  0  0  0  0  0  0  0  0
   10.2012   -4.7804   17.8586 He  0  0  0  0  0  0  0  0  0  0  0  0
  1  2  4  0
  1  6  1  0
  1  9  4  0
  1 13  3  0
  1 15  2  0
  1 16  3  0
  2  7  4  0
  2 11  3  0
  2 15  1  0
  2 16  2  0
  2 17  1  0
  3  5  3  0
  3 13  2  0
  4  5  1  0
  5  7  2  0
  5  8  1  0
  5 13  3  0
  5 16  1  0
  6  8  4  0
  6  9  4  0
  7  8  2  0
  7  9  3  0
  7 10  4  0
  7 12  2  0
  7 16  1  0
  7 17  4  0
  8 14  4  0
  8 15  2  0
  9 12  2  0
  9 13  2  0
  9 14  3  0
  9 16  4  0
 10 12  4  0
 10 13  3  0
 10 14  1  0
 11 12  1  0
 12 13  2  0
 13 14  3  0
M  END
$$$$

 Created by Python create_sdf_string function

 26 36  0  0  0  0  0  0  0  0999 V2000
   10.6182   -3.8296   21.5282 C   0  0  0  0  0  0  0  0  0  0  0  0
    9.8218   -3.7970   16.9321 C   0  0  0  0  0  0  0  0  0  0  0  0
    9.8567   -1.4207   26.0852 C   0  0  0  0  0  0  0  0  0  0  0  0
    6.9881   -5.9126   16.8113 C   0  0  0  0  0  0  0  0  0  0  0  0
    9.6448   -4.9478   17.5364 Cl  0  0  0  0  0  0  0  0  0  0  0  0
   10.9569   -2.9661   22.8757 O   0  0  0  0  0  0  0  0  0  0  0  0
    6.8195   -5.7113   15.8401 C   0  0  0  0  0  0  0  0  0  0  0  0
   10.4408   -2.0185   23.2768 C   0  0  0  0  0  0  0  0  0  0  0  0
   10.6652   -3.0695   21.4901 C   0  0  0  0  0  0  0  0  0  0  0  0
   11.2003   -5.2897   21.1850 C   0  0  0  0  0  0  0  0  0  0  0  0
    7.2629   -5.9302   16.3038 C   0  0  0  0  0  0  0  0  0  0  0  0
    8.6560   -8.7002   18.6403 B   0  0  0  0  0  0  0  0  0  0  0  0
    9.7848   -1.3353   24.5484 C   0  0  0  0  0  0  0  0  0  0  0  0
   10.6227   -3.1404   19.6964 F   0  0  0  0  0  0  0  0  0  0  0  0
    9.4266   -6.8750   17.2975 C   0  0  0  0  0  0  0  0  0  0  0  0
   10.7070   -4.1019   24.1832 C   0  0  0  0  0  0  0  0  0  0  0  0
    7.2520   -7.9729   15.2801 He  0  0  0  0  0  0  0  0  0  0  0  0
    4.8054   -8.9363   18.0395 He  0  0  0  0  0  0  0  0  0  0  0  0
    9.7886   -2.7764   25.5157 He  0  0  0  0  0  0  0  0  0  0  0  0
    7.8087   -9.4418   17.0691 He  0  0  0  0  0  0  0  0  0  0  0  0
    5.9662   -7.8673   16.8192 He  0  0  0  0  0  0  0  0  0  0  0  0
    4.7161   -8.7010   18.3878 He  0  0  0  0  0  0  0  0  0  0  0  0
   10.4529   -6.0747   20.3480 He  0  0  0  0  0  0  0  0  0  0  0  0
    7.9922   -3.8956   16.9280 He  0  0  0  0  0  0  0  0  0  0  0  0
   10.0965   -3.2797   17.6518 He  0  0  0  0  0  0  0  0  0  0  0  0
   10.9119   -4.9158   16.3327 He  0  0  0  0  0  0  0  0  0  0  0  0
  1  5  1  0
  1  6  3  0
  1  9  4  0
  1 10  4  0
  1 13  2  0
  1 16  1  0
  2 12  4  0
  3  4  1  0
  3  7  4  0
  3  9  4  0
  3 11  3  0
  3 12  3  0
  4  5  4  0
  4  6  3  0
  4  8  4  0
  4 11  2  0
  4 14  4  0
  4 15  2  0
  5  9  1  0
  5 10  4  0
  5 14  4  0
  6  8  4  0
  6 10  1  0
  6 11  2  0
  6 15  4  0
  6 16  4  0
  7 12  3  0
  7 14  2  0
  8 13  4  0
  9 11  2  0
  9 14  4  0
 10 12  4  0
 12 13  2  0
 12 15  1  0
 12 16  2  0
 15 16  3  0
M  END
$$$$

 Created by Python create_sdf_string function

 26 34  0  0  0  0  0  0  0  0999 V2000
   10.4557   -3.6797   21.8786 C   0  0  0  0  0  0  0  0  0  0  0  0
    6.0931   -8.4413   16.2507 C   0  0  0  0  0  0  0  0  0  0  0  0
    9.6575   -1.9313   25.4900 C   0  0  0  0  0  0  0  0  0  0  0  0
   10.1862   -3.9226   19.1043 S   0  0  0  0  0  0  0  0  0  0  0  0
   10.0446   -1.7834   22.8458 C   0  0  0  0  0  0  0  0  0  0  0  0
   10.0863   -2.9380   25.5910 C   0  0  0  0  0  0  0  0  0  0  0  0
   10.9143   -2.9160   20.5897 P   0  0  0  0  0  0  0  0  0  0  0  0
   10.5382   -5.6428   21.5326 C   0  0  0  0  0  0  0  0  0  0  0  0
    7.2301   -7.4250   17.2495 C   0  0  0  0  0  0  0  0  0  0  0  0
    5.3139   -9.0512   18.1932 C   0  0  0  0  0  0  0  0  0  0  0  0
   10.4822   -5.5865   20.7482 C   0  0  0  0  0  0  0  0  0  0  0  0
    8.1780   -4.4312   15.8961 N   0  0  0  0  0  0  0  0  0  0  0  0
   10.7161   -1.5854   23.8009 C   0  0  0  0  0  0  0  0  0  0  0  0
   10.7320   -4.0528   19.5008 C   0  0  0  0  0  0  0  0  0  0  0  0
   10.7592   -3.6719   24.0117 C   0  0  0  0  0  0  0  0  0  0  0  0
   10.6404   -3.2018   17.0508 He  0  0  0  0  0  0  0  0  0  0  0  0
    6.2188   -9.0268   18.0727 He  0  0  0  0  0  0  0  0  0  0  0  0
    7.2083   -7.2870   14.5401 He  0  0  0  0  0  0  0  0  0  0  0  0
   10.6427   -3.4527   22.8677 He  0  0  0  0  0  0  0  0  0  0  0  0
    6.8077   -6.3948   15.1262 He  0  0  0  0  0  0  0  0  0  0  0  0
    7.6092   -9.0000   17.7894 He  0  0  0  0  0  0  0  0  0  0  0  0
    8.3611   -7.7558   18.6596 He  0  0  0  0  0  0  0  0  0  0  0  0
    5.9473   -8.9072   18.3592 He  0  0  0  0  0  0  0  0  0  0  0  0
   10.1768   -2.3243   17.9108 He  0  0  0  0  0  0  0  0  0  0  0  0
    8.8049   -6.3535   17.5689 He  0  0  0  0  0  0  0  0  0  0  0  0
   11.2979   -4.3433   15.8975 He  0  0  0  0  0  0  0  0  0  0  0  0
  1  2  4  0
  1  4  4  0
  1  7  4  0
  1  8  1  0
  1  9  1  0
  1 11  1  0
  2  3  2  0
  2  4  3  0
  2  8  3  0
  2  9  4  0
  2 10  1  0
  2 11  4  0
  2 12  1  0
  2 13  4  0
  2 14  2  0
  3  6  1  0
  3  8  1  0
  3 13  4  0
  4  6  4  0
  4  7  2  0
  4  9  2  0
  4 14  2  0
  5  8  2  0
  5 13  4  0
  6 10  3  0
  6 13  4  0
  6 15  4  0
  7  9  4  0
  8  9  1  0
  8 10  4  0
  8 13  3  0
 11 12  1  0
 12 13  4  0
 12 14  3  0
M  END
$$$$

 Created by Python create_sdf_string function

 26 46  0  0  0  0  0  0  0  0999 V2000
    5.4917   -6.6982   16.9422 C   0  0  0  0  0  0  0  0  0  0  0  0
   10.4795   -3.7807   16.6787 C   0  0  0  0  0  0  0  0  0  0  0  0
   10.0462   -2.0635   25.6631 C   0  0  0  0  0  0  0  0  0  0  0  0
   10.7434   -3.2444   23.1489 C   0  0  0  0  0  0  0  0  0  0  0  0
    6.6915   -6.9121   15.8373 O   0  0  0  0  0  0  0  0  0  0  0  0
   10.2197   -1.6881   22.6967 C   0  0  0  0  0  0  0  0  0  0  0  0
   10.2681   -3.1221   25.4379 C   0  0  0  0  0  0  0  0  0  0  0  0
   11.1601   -3.2277   21.0247 N   0  0  0  0  0  0  0  0  0  0  0  0
    7.7852   -6.8730   17.1394 C   0  0  0  0  0  0  0  0  0  0  0  0
   10.9349   -4.9304   21.4586 C   0  0  0  0  0  0  0  0  0  0  0  0
    8.0467   -7.6659   17.9228 C   0  0  0  0  0  0  0  0  0  0  0  0
   10.1561   -5.9530   20.4902 C   0  0  0  0  0  0  0  0  0  0  0  0
    9.1288   -5.9021   17.0921 N   0  0  0  0  0  0  0  0  0  0  0  0
    9.8781   -1.4193   24.8254 C   0  0  0  0  0  0  0  0  0  0  0  0
   10.3965   -3.3968   19.4730 C   0  0  0  0  0  0  0  0  0  0  0  0
    8.8774   -6.4816   17.4456 C   0  0  0  0  0  0  0  0  0  0  0  0
   10.6118   -3.5595   23.6696 C   0  0  0  0  0  0  0  0  0  0  0  0
   10.1178   -4.1110   16.3004 S   0  0  0  0  0  0  0  0  0  0  0  0
   11.2488   -3.5256   21.6823 He  0  0  0  0  0  0  0  0  0  0  0  0
    4.1859   -8.5561   16.1106 He  0  0  0  0  0  0  0  0  0  0  0  0
    8.3410   -5.8935   14.4943 He  0  0  0  0  0  0  0  0  0  0  0  0
    9.4196   -4.3041   18.8669 He  0  0  0  0  0  0  0  0  0  0  0  0
    4.4934   -9.5140   17.2951 He  0  0  0  0  0  0  0  0  0  0  0  0
    9.2963   -7.4345   16.8652 He  0  0  0  0  0  0  0  0  0  0  0  0
    5.1582   -9.0360   19.8173 He  0  0  0  0  0  0  0  0  0  0  0  0
   10.3433   -2.7397   16.4320 He  0  0  0  0  0  0  0  0  0  0  0  0
  1  2  2  0
  1  3  2  0
  1 11  4  0
  2  8  4  0
  2  9  3  0
  2 13  1  0
  2 18  2  0
  3  5  2  0
  3  9  3  0
  3 13  3  0
  3 18  1  0
  4  5  3  0
  4  6  4  0
  4 11  1  0
  4 12  3  0
  4 15  4  0
  4 17  4  0
  5  6  4  0
  5  7  2  0
  5  8  3  0
  5 12  1  0
  5 17  2  0
  6  8  4  0
  6  9  4  0
  6 11  4  0
  6 14  4  0
  7 11  3  0
  7 15  2  0
  7 17  4  0
  7 18  1  0
  8 11  1  0
  8 13  4  0
  8 15  4  0
  8 18  4  0
  9 10  1  0
  9 11  4  0
  9 15  4  0
  9 16  1  0
  9 18  2  0
 10 12  3  0
 11 12  3  0
 11 13  4  0
 11 14  2  0
 11 15  3  0
 12 18  4  0
 16 18  1  0
M  END
$$$$

 Created by Python create_sdf_string function

 26 40  0  0  0  0  0  0  0  0999 V2000
    6.7845   -7.8586   16.7144 O   0  0  0  0  0  0  0  0  0  0  0  0
   10.2918   -4.1452   16.7859 N   0  0  0  0  0  0  0  0  0  0  0  0
    9.7601   -2.4420   25.3387 C   0  0  0  0  0  0  0  0  0  0  0  0
    8.0493   -6.6389   14.4899 Br  0  0  0  0  0  0  0  0  0  0  0  0
    9.9603   -4.3526   19.1794 C   0  0  0  0  0  0  0  0  0  0  0  0
   10.6423   -2.9132   22.9431 C   0  0  0  0  0  0  0  0  0  0  0  0
    5.7110   -6.8253   14.3004 C   0  0  0  0  0  0  0  0  0  0  0  0
   10.1728   -1.7577   23.4930 C   0  0  0  0  0  0  0  0  0  0  0  0
   10.4623   -2.8409   25.5685 C   0  0  0  0  0  0  0  0  0  0  0  0
   10.9490   -3.0162   20.8936 N   0  0  0  0  0  0  0  0  0  0  0  0
    7.3206   -7.8521   17.4949 O   0  0  0  0  0  0  0  0  0  0  0  0
    7.2865   -8.2388   17.6204 I   0  0  0  0  0  0  0  0  0  0  0  0
    9.9718   -6.1543   16.9630 O   0  0  0  0  0  0  0  0  0  0  0  0
    9.9974   -5.4145   20.1887 C   0  0  0  0  0  0  0  0  0  0  0  0
    9.6636   -1.1429   24.5317 C   0  0  0  0  0  0  0  0  0  0  0  0
   11.6740   -4.4491   17.4664 C   0  0  0  0  0  0  0  0  0  0  0  0
   10.8121   -3.6496   23.9381 C   0  0  0  0  0  0  0  0  0  0  0  0
   10.8217   -3.4426   21.5035 He  0  0  0  0  0  0  0  0  0  0  0  0
    3.2353   -8.2029   15.4197 He  0  0  0  0  0  0  0  0  0  0  0  0
   10.8557   -4.7544   21.4040 He  0  0  0  0  0  0  0  0  0  0  0  0
    5.1032   -8.3219   16.0830 He  0  0  0  0  0  0  0  0  0  0  0  0
    5.1492   -8.3417   18.4633 He  0  0  0  0  0  0  0  0  0  0  0  0
    9.2081   -5.6133   16.8119 He  0  0  0  0  0  0  0  0  0  0  0  0
   11.0533   -3.8502   18.7602 He  0  0  0  0  0  0  0  0  0  0  0  0
    9.3181   -5.7998   17.2989 He  0  0  0  0  0  0  0  0  0  0  0  0
   10.7700   -3.6973   17.6184 He  0  0  0  0  0  0  0  0  0  0  0  0
  1  2  3  0
  1 10  1  0
  1 11  1  0
  1 12  1  0
  1 13  1  0
  1 14  4  0
  1 17  4  0
  2 11  4  0
  2 16  2  0
  3  4  1  0
  3  8  1  0
  3  9  4  0
  3 12  2  0
  3 16  2  0
  4  9  1  0
  4 14  1  0
  4 17  1  0
  5  7  3  0
  5 10  3  0
  5 11  1  0
  5 14  3  0
  5 15  1  0
  6  7  1  0
  6  8  4  0
  6 16  1  0
  6 17  4  0
  7  9  1  0
  7 10  1  0
  7 12  4  0
  7 15  4  0
  7 16  4  0
  8 11  1  0
  8 14  3  0
  8 15  4  0
  9 17  4  0
 11 13  1  0
 11 14  2  0
 11 16  3  0
 11 17  3  0
 15 17  2  0
M  END
$$$$

 Created by Python create_sdf_string function

 26 45  0  0  0  0  0  0  0  0999 V2000
    7.3868   -7.5020   16.2449 O   0  0  0  0  0  0  0  0  0  0  0  0
   10.3421   -4.3606   16.2483 N   0  0  0  0  0  0  0  0  0  0  0  0
    9.5715   -1.9940   25.7079 F   0  0  0  0  0  0  0  0  0  0  0  0
    4.2771   -8.1812   16.7362 Br  0  0  0  0  0  0  0  0  0  0  0  0
    6.8859   -6.9933   15.2756 C   0  0  0  0  0  0  0  0  0  0  0  0
   10.7485   -6.1230   20.0495 Cl  0  0  0  0  0  0  0  0  0  0  0  0
   10.3936   -3.1082   22.9883 C   0  0  0  0  0  0  0  0  0  0  0  0
   10.0364   -1.2884   23.4541 N   0  0  0  0  0  0  0  0  0  0  0  0
   10.5076   -2.6733   25.9198 C   0  0  0  0  0  0  0  0  0  0  0  0
   10.8841   -3.1536   20.2371 N   0  0  0  0  0  0  0  0  0  0  0  0
   10.3989   -4.9451   21.7737 C   0  0  0  0  0  0  0  0  0  0  0  0
    4.1158   -8.4292   18.4274 S   0  0  0  0  0  0  0  0  0  0  0  0
    9.6520   -5.4770   20.3603 N   0  0  0  0  0  0  0  0  0  0  0  0
    8.9272   -5.4099   16.6495 C   0  0  0  0  0  0  0  0  0  0  0  0
   10.9533   -3.4007   16.8137 C   0  0  0  0  0  0  0  0  0  0  0  0
   10.6171   -3.3686   19.8352 C   0  0  0  0  0  0  0  0  0  0  0  0
    9.4777   -6.1753   16.9350 C   0  0  0  0  0  0  0  0  0  0  0  0
   10.8186   -3.4122   23.8984 C   0  0  0  0  0  0  0  0  0  0  0  0
   10.6885   -3.8755   21.7827 He  0  0  0  0  0  0  0  0  0  0  0  0
    4.7878   -6.5770   15.3695 He  0  0  0  0  0  0  0  0  0  0  0  0
    8.8144   -6.2881   18.0760 He  0  0  0  0  0  0  0  0  0  0  0  0
    7.6638   -9.0411   17.2110 He  0  0  0  0  0  0  0  0  0  0  0  0
    6.0523   -8.3190   15.7221 He  0  0  0  0  0  0  0  0  0  0  0  0
    9.5566   -8.4063   16.7040 He  0  0  0  0  0  0  0  0  0  0  0  0
    9.4212   -1.2197   24.7039 He  0  0  0  0  0  0  0  0  0  0  0  0
   11.1992   -4.1804   18.5969 He  0  0  0  0  0  0  0  0  0  0  0  0
  1  2  1  0
  1  7  3  0
  1 13  1  0
  1 16  4  0
  1 18  4  0
  2 13  3  0
  2 14  4  0
  2 15  4  0
  3  5  2  0
  3  8  4  0
  3  9  1  0
  3 12  3  0
  3 14  4  0
  3 15  1  0
  4  7  3  0
  4  8  2  0
  4  9  2  0
  4 10  4  0
  4 11  4  0
  4 12  1  0
  4 14  3  0
  4 15  3  0
  5  8  2  0
  5 10  4  0
  6  7  3  0
  6  8  3  0
  6 11  2  0
  6 13  2  0
  6 14  4  0
  6 15  2  0
  6 16  3  0
  7  8  4  0
  7 14  3  0
  8 15  3  0
  9 13  2  0
  9 15  2  0
  9 18  4  0
 10 16  4  0
 12 13  4  0
 12 15  3  0
 12 18  4  0
 13 17  2  0
 13 18  3  0
 14 16  4  0
 15 17  2  0
M  END
$$$$

 Created by Python create_sdf_string function

 26 36  0  0  0  0  0  0  0  0999 V2000
   10.7483   -3.4971   22.0716 C   0  0  0  0  0  0  0  0  0  0  0  0
   10.4830   -4.2672   16.4285 N   0  0  0  0  0  0  0  0  0  0  0  0
    9.7430   -1.6842   26.0039 C   0  0  0  0  0  0  0  0  0  0  0  0
    5.2061   -9.4349   16.5261 C   0  0  0  0  0  0  0  0  0  0  0  0
   10.6188   -2.9723   23.3480 C   0  0  0  0  0  0  0  0  0  0  0  0
    4.8260   -6.0864   14.2827 F   0  0  0  0  0  0  0  0  0  0  0  0
    9.8188   -1.3152   23.2703 N   0  0  0  0  0  0  0  0  0  0  0  0
   10.6573   -2.7801   21.2122 N   0  0  0  0  0  0  0  0  0  0  0  0
    9.1591   -6.7644   16.8281 P   0  0  0  0  0  0  0  0  0  0  0  0
   10.4603   -4.9165   22.3505 C   0  0  0  0  0  0  0  0  0  0  0  0
    7.0838   -7.6572   16.9105 C   0  0  0  0  0  0  0  0  0  0  0  0
    7.5678   -8.4816   17.9533 S   0  0  0  0  0  0  0  0  0  0  0  0
    9.8543   -5.4318   19.2558 Br  0  0  0  0  0  0  0  0  0  0  0  0
    8.3282   -4.1733   16.9972 C   0  0  0  0  0  0  0  0  0  0  0  0
    9.6384   -1.6540   24.7516 C   0  0  0  0  0  0  0  0  0  0  0  0
   10.3138   -4.1019   19.8673 C   0  0  0  0  0  0  0  0  0  0  0  0
    9.6646   -6.1088   16.7882 C   0  0  0  0  0  0  0  0  0  0  0  0
   10.3541   -3.4558   24.2432 C   0  0  0  0  0  0  0  0  0  0  0  0
    8.5126   -5.8770   17.7016 He  0  0  0  0  0  0  0  0  0  0  0  0
    6.0594   -6.4756   15.5347 He  0  0  0  0  0  0  0  0  0  0  0  0
   11.4096   -4.3165   19.3859 He  0  0  0  0  0  0  0  0  0  0  0  0
    9.9495   -3.2474   25.9160 He  0  0  0  0  0  0  0  0  0  0  0  0
    8.2578   -9.0160   18.1826 He  0  0  0  0  0  0  0  0  0  0  0  0
    5.2736   -8.7334   16.2637 He  0  0  0  0  0  0  0  0  0  0  0  0
    9.3539   -5.0483   15.6949 He  0  0  0  0  0  0  0  0  0  0  0  0
   11.3906   -2.9604   18.4163 He  0  0  0  0  0  0  0  0  0  0  0  0
  1  5  1  0
  1 10  4  0
  1 12  4  0
  1 17  3  0
  2  5  4  0
  2 14  2  0
  3  4  1  0
  3  6  4  0
  3  8  4  0
  3 10  4  0
  3 16  2  0
  4  6  1  0
  4 11  3  0
  4 12  3  0
  4 13  2  0
  4 17  2  0
  5  6  3  0
  5  7  4  0
  5 18  1  0
  6 11  4  0
  6 14  1  0
  6 16  1  0
  7 14  1  0
  7 15  4  0
  8 12  3  0
  8 16  4  0
  9 10  1  0
  9 13  3  0
  9 15  3  0
 10 11  1  0
 10 13  3  0
 11 12  4  0
 11 15  2  0
 12 18  4  0
 13 17  2  0
 14 17  4  0
M  END
$$$$

 Created by Python create_sdf_string function

 26 47  0  0  0  0  0  0  0  0999 V2000
    9.8715   -6.4415   17.8238 C   0  0  0  0  0  0  0  0  0  0  0  0
   10.3411   -3.8906   16.4530 O   0  0  0  0  0  0  0  0  0  0  0  0
    9.2623   -1.9668   26.1663 Se  0  0  0  0  0  0  0  0  0  0  0  0
    3.6032   -9.1808   16.4934 C   0  0  0  0  0  0  0  0  0  0  0  0
   10.4026   -4.2267   18.7994 C   0  0  0  0  0  0  0  0  0  0  0  0
   10.2625   -2.5238   23.9098 C   0  0  0  0  0  0  0  0  0  0  0  0
    5.2007   -6.0810   15.1670 C   0  0  0  0  0  0  0  0  0  0  0  0
   10.3193   -1.8185   23.2000 N   0  0  0  0  0  0  0  0  0  0  0  0
   10.3067   -3.2741   26.2513 C   0  0  0  0  0  0  0  0  0  0  0  0
   11.1398   -2.6251   21.0600 N   0  0  0  0  0  0  0  0  0  0  0  0
   10.7442   -5.0556   21.9360 C   0  0  0  0  0  0  0  0  0  0  0  0
    7.0741   -8.4524   16.9627 C   0  0  0  0  0  0  0  0  0  0  0  0
    6.0180   -8.8304   16.0247 N   0  0  0  0  0  0  0  0  0  0  0  0
   10.3777   -5.6071   20.3333 Cl  0  0  0  0  0  0  0  0  0  0  0  0
    9.5084   -1.1618   24.6949 C   0  0  0  0  0  0  0  0  0  0  0  0
    8.7820   -3.4510   14.7349 Cl  0  0  0  0  0  0  0  0  0  0  0  0
   10.0852   -3.9078   19.6885 O   0  0  0  0  0  0  0  0  0  0  0  0
    9.5680   -5.4435   17.5069 C   0  0  0  0  0  0  0  0  0  0  0  0
   10.2223   -3.5527   24.4896 Br  0  0  0  0  0  0  0  0  0  0  0  0
   10.3705   -3.0216   19.3129 O   0  0  0  0  0  0  0  0  0  0  0  0
   10.6166   -4.1626   22.1299 He  0  0  0  0  0  0  0  0  0  0  0  0
    7.5178   -6.8121   15.2189 He  0  0  0  0  0  0  0  0  0  0  0  0
   10.6184   -7.8351   17.9435 He  0  0  0  0  0  0  0  0  0  0  0  0
    7.4138   -8.1145   16.2187 He  0  0  0  0  0  0  0  0  0  0  0  0
    8.5632   -7.6419   18.2099 He  0  0  0  0  0  0  0  0  0  0  0  0
   10.2623   -4.4582   17.1829 He  0  0  0  0  0  0  0  0  0  0  0  0
  1  4  4  0
  1  7  2  0
  1 10  4  0
  1 12  3  0
  1 17  2  0
  1 19  4  0
  2 16  1  0
  2 18  3  0
  3  9  4  0
  3 12  2  0
  3 20  2  0
  4  8  4  0
  4 11  1  0
  4 12  4  0
  4 13  1  0
  5  9  4  0
  5 10  2  0
  5 12  2  0
  5 13  1  0
  5 16  3  0
  5 17  4  0
  5 19  4  0
  6 12  4  0
  6 17  4  0
  6 19  4  0
  7  8  1  0
  7 14  1  0
  7 15  2  0
  7 19  3  0
  8  9  1  0
  8 13  1  0
  8 14  2  0
  8 15  4  0
  8 19  1  0
  9 12  4  0
 10 17  4  0
 11 12  2  0
 11 13  2  0
 11 14  4  0
 11 15  4  0
 11 16  4  0
 12 15  2  0
 12 16  3  0
 13 20  2  0
 15 16  4  0
 16 18  3  0
 16 19  2  0
M  END
$$$$

 Created by Python create_sdf_string function

 26 51  0  0  0  0  0  0  0  0999 V2000
   10.5625   -3.5858   21.9431 C   0  0  0  0  0  0  0  0  0  0  0  0
    9.2997   -7.1099   16.5556 C   0  0  0  0  0  0  0  0  0  0  0  0
    9.8111   -3.4085   16.7774 C   0  0  0  0  0  0  0  0  0  0  0  0
    9.5266   -1.6230   26.1102 C   0  0  0  0  0  0  0  0  0  0  0  0
    4.2589   -8.4213   16.7584 P   0  0  0  0  0  0  0  0  0  0  0  0
   11.4224   -4.8705   21.3177 C   0  0  0  0  0  0  0  0  0  0  0  0
    9.9025   -1.1184   24.1198 N   0  0  0  0  0  0  0  0  0  0  0  0
    9.8902   -3.2078   25.8821 C   0  0  0  0  0  0  0  0  0  0  0  0
   10.2373   -2.8764   20.9804 N   0  0  0  0  0  0  0  0  0  0  0  0
   10.7296   -5.0806   21.4650 C   0  0  0  0  0  0  0  0  0  0  0  0
    7.4431   -8.5560   16.8154 C   0  0  0  0  0  0  0  0  0  0  0  0
    6.9440   -8.9444   17.3019 I   0  0  0  0  0  0  0  0  0  0  0  0
    8.0669   -7.7503   16.6868 C   0  0  0  0  0  0  0  0  0  0  0  0
   10.3453   -5.7079   20.3028 C   0  0  0  0  0  0  0  0  0  0  0  0
    9.1871   -5.8735   17.6985 C   0  0  0  0  0  0  0  0  0  0  0  0
   10.7241   -2.9903   19.5488 C   0  0  0  0  0  0  0  0  0  0  0  0
    9.3586   -5.8156   17.4143 C   0  0  0  0  0  0  0  0  0  0  0  0
   10.5794   -3.5267   24.7181 C   0  0  0  0  0  0  0  0  0  0  0  0
   12.0601   -4.1375   18.9832 N   0  0  0  0  0  0  0  0  0  0  0  0
    7.6490   -6.3421   16.2244 He  0  0  0  0  0  0  0  0  0  0  0  0
   10.4896   -2.7049   23.5670 He  0  0  0  0  0  0  0  0  0  0  0  0
    5.4541   -7.0850   15.9582 He  0  0  0  0  0  0  0  0  0  0  0  0
    9.5064   -7.3976   18.6805 He  0  0  0  0  0  0  0  0  0  0  0  0
    6.0949   -7.5005   17.5181 He  0  0  0  0  0  0  0  0  0  0  0  0
    9.1475   -1.2854   24.5695 He  0  0  0  0  0  0  0  0  0  0  0  0
    9.4378   -2.5367   15.2642 He  0  0  0  0  0  0  0  0  0  0  0  0
  1  3  1  0
  1  9  4  0
  1 10  4  0
  1 12  1  0
  1 13  1  0
  1 18  3  0
  1 19  3  0
  2  3  2  0
  2  4  1  0
  2  5  1  0
  2  6  1  0
  2  7  2  0
  2  8  4  0
  2 11  4  0
  2 14  4  0
  2 15  4  0
  2 16  1  0
  2 18  1  0
  2 19  2  0
  3  5  1  0
  3  6  3  0
  3 13  3  0
  4  5  4  0
  4  8  4  0
  4 12  2  0
  4 19  4  0
  5  8  1  0
  5 17  4  0
  5 18  1  0
  5 19  1  0
  6 11  1  0
  6 16  4  0
  7 13  2  0
  7 14  3  0
  7 15  4  0
  8 12  1  0
  8 13  1  0
  8 17  3  0
  8 18  4  0
 10 13  1  0
 10 14  4  0
 11 12  2  0
 11 14  4  0
 11 16  4  0
 11 17  2  0
 12 14  3  0
 12 15  3  0
 12 17  1  0
 13 19  1  0
 15 16  1  0
 15 17  1  0
M  END
$$$$

 Created by Python create_sdf_string function

 26 42  0  0  0  0  0  0  0  0999 V2000
   10.7463   -3.9905   21.9607 S   0  0  0  0  0  0  0  0  0  0  0  0
   10.0706   -3.6388   16.8146 C   0  0  0  0  0  0  0  0  0  0  0  0
    9.3623   -1.7835   25.8236 C   0  0  0  0  0  0  0  0  0  0  0  0
    7.0676   -6.7627   16.4844 C   0  0  0  0  0  0  0  0  0  0  0  0
   11.3218   -4.9729   19.6466 C   0  0  0  0  0  0  0  0  0  0  0  0
   10.6475   -2.7129   23.3079 C   0  0  0  0  0  0  0  0  0  0  0  0
    6.3610   -9.0662   15.8330 C   0  0  0  0  0  0  0  0  0  0  0  0
   10.0118   -1.5494   23.5761 O   0  0  0  0  0  0  0  0  0  0  0  0
   10.1380   -2.8995   25.8462 C   0  0  0  0  0  0  0  0  0  0  0  0
   10.4051   -2.3006   21.1251 N   0  0  0  0  0  0  0  0  0  0  0  0
   10.9326   -4.4812   22.2563 C   0  0  0  0  0  0  0  0  0  0  0  0
    8.1245   -6.6599   18.2752 C   0  0  0  0  0  0  0  0  0  0  0  0
    5.7864   -8.1572   16.9625 C   0  0  0  0  0  0  0  0  0  0  0  0
   10.9109   -5.4485   20.5659 O   0  0  0  0  0  0  0  0  0  0  0  0
   10.4087   -6.0861   18.8759 Cl  0  0  0  0  0  0  0  0  0  0  0  0
    9.4432   -3.7355   16.7778 Cl  0  0  0  0  0  0  0  0  0  0  0  0
    9.6745   -5.8959   17.4705 C   0  0  0  0  0  0  0  0  0  0  0  0
   10.7578   -2.9185   24.8980 C   0  0  0  0  0  0  0  0  0  0  0  0
   11.5110   -3.7582   18.5359 S   0  0  0  0  0  0  0  0  0  0  0  0
    9.2636   -5.5641   18.0935 He  0  0  0  0  0  0  0  0  0  0  0  0
    5.3127   -9.9306   16.1420 He  0  0  0  0  0  0  0  0  0  0  0  0
    9.8628   -6.3062   18.8026 He  0  0  0  0  0  0  0  0  0  0  0  0
    7.5422   -8.5125   17.7991 He  0  0  0  0  0  0  0  0  0  0  0  0
    5.7653   -9.6289   17.7565 He  0  0  0  0  0  0  0  0  0  0  0  0
    9.2521   -0.6577   24.5876 He  0  0  0  0  0  0  0  0  0  0  0  0
   11.2253   -3.3873   19.8086 He  0  0  0  0  0  0  0  0  0  0  0  0
  1  4  4  0
  1  6  1  0
  1 10  2  0
  1 11  4  0
  1 18  3  0
  2 13  3  0
  2 19  1  0
  3  5  2  0
  3  7  4  0
  3  9  4  0
  3 11  3  0
  3 13  4  0
  3 17  2  0
  4  6  3  0
  4  7  4  0
  4  9  3  0
  4 10  2  0
  4 13  4  0
  4 16  1  0
  4 17  2  0
  5 12  4  0
  5 18  2  0
  5 19  1  0
  6  8  4  0
  6 19  3  0
  7 10  1  0
  7 13  1  0
  7 16  1  0
  8 17  2  0
  9 18  4  0
 10 13  3  0
 10 14  2  0
 10 16  4  0
 11 16  2  0
 12 18  3  0
 12 19  3  0
 13 15  4  0
 13 16  4  0
 13 17  1  0
 13 19  4  0
 15 17  3  0
 18 19  1  0
M  END
$$$$

 Created by Python create_sdf_string function

 26 48  0  0  0  0  0  0  0  0999 V2000
   10.9011   -3.1959   22.3974 O   0  0  0  0  0  0  0  0  0  0  0  0
    9.5943   -1.9472   25.9775 C   0  0  0  0  0  0  0  0  0  0  0  0
   11.3494   -4.7365   18.8921 F   0  0  0  0  0  0  0  0  0  0  0  0
   10.7854   -2.9929   23.0622 C   0  0  0  0  0  0  0  0  0  0  0  0
   10.4215   -1.3719   23.2645 C   0  0  0  0  0  0  0  0  0  0  0  0
   10.3035   -3.6736   25.7791 Cl  0  0  0  0  0  0  0  0  0  0  0  0
   10.9161   -2.7122   21.3258 O   0  0  0  0  0  0  0  0  0  0  0  0
   10.9721   -4.6079   21.7715 C   0  0  0  0  0  0  0  0  0  0  0  0
    6.9038   -7.1084   18.1651 N   0  0  0  0  0  0  0  0  0  0  0  0
    6.3594   -9.4160   17.1715 F   0  0  0  0  0  0  0  0  0  0  0  0
    8.3155   -6.8026   17.3093 C   0  0  0  0  0  0  0  0  0  0  0  0
    6.5806   -7.3859   17.0771 C   0  0  0  0  0  0  0  0  0  0  0  0
   10.5394   -5.4600   20.4847 C   0  0  0  0  0  0  0  0  0  0  0  0
    9.4981   -1.2674   24.1743 N   0  0  0  0  0  0  0  0  0  0  0  0
   10.2091   -3.6379   16.1242 N   0  0  0  0  0  0  0  0  0  0  0  0
   11.3075   -3.5644   19.5139 C   0  0  0  0  0  0  0  0  0  0  0  0
    8.9523   -5.9257   17.4631 C   0  0  0  0  0  0  0  0  0  0  0  0
   10.6345   -2.9962   24.7093 C   0  0  0  0  0  0  0  0  0  0  0  0
    9.8506   -3.9712   17.8468 P   0  0  0  0  0  0  0  0  0  0  0  0
    7.9938   -5.3530   18.3847 He  0  0  0  0  0  0  0  0  0  0  0  0
   10.4289   -3.6539   17.3542 He  0  0  0  0  0  0  0  0  0  0  0  0
    4.7377  -10.8938   15.8895 He  0  0  0  0  0  0  0  0  0  0  0  0
    6.1497   -7.8636   14.7412 He  0  0  0  0  0  0  0  0  0  0  0  0
    6.1064   -8.7550   16.8081 He  0  0  0  0  0  0  0  0  0  0  0  0
   11.2751   -7.8477   18.0581 He  0  0  0  0  0  0  0  0  0  0  0  0
   10.2863   -5.3563   18.9429 He  0  0  0  0  0  0  0  0  0  0  0  0
  1  7  4  0
  1  8  4  0
  1 10  4  0
  1 16  3  0
  2  3  2  0
  2  4  3  0
  2  5  3  0
  2  6  4  0
  2  8  4  0
  2 14  4  0
  2 18  3  0
  3  7  4  0
  3  9  2  0
  3 14  3  0
  3 16  4  0
  3 18  2  0
  4 11  3  0
  4 12  3  0
  4 19  1  0
  5  7  2  0
  5  8  4  0
  5  9  4  0
  5 10  2  0
  5 11  4  0
  5 14  3  0
  5 16  2  0
  6 10  3  0
  6 18  4  0
  7  9  3  0
  7 10  1  0
  7 14  1  0
  7 16  1  0
  8 11  1  0
  8 13  4  0
  8 15  1  0
  8 19  3  0
  9 11  1  0
 12 13  1  0
 12 15  1  0
 12 19  1  0
 13 18  4  0
 13 19  3  0
 15 16  1  0
 15 17  4  0
 15 18  2  0
 16 18  4  0
 17 18  4  0
 17 19  3  0
M  END
$$$$

 Created by Python create_sdf_string function

 26 43  0  0  0  0  0  0  0  0999 V2000
   10.8918   -3.2450   22.1335 C   0  0  0  0  0  0  0  0  0  0  0  0
   10.4730   -3.5281   17.3654 C   0  0  0  0  0  0  0  0  0  0  0  0
    9.5829   -2.1955   25.9099 C   0  0  0  0  0  0  0  0  0  0  0  0
    4.9446   -9.7019   17.7551 O   0  0  0  0  0  0  0  0  0  0  0  0
    6.5389   -8.1584   16.0584 C   0  0  0  0  0  0  0  0  0  0  0  0
   10.0065   -2.6769   23.0630 C   0  0  0  0  0  0  0  0  0  0  0  0
    5.0456   -9.4840   16.3995 C   0  0  0  0  0  0  0  0  0  0  0  0
    9.9915   -1.5355   23.4318 C   0  0  0  0  0  0  0  0  0  0  0  0
    9.7980   -3.3640   25.9021 C   0  0  0  0  0  0  0  0  0  0  0  0
   11.5151   -2.6104   20.4644 C   0  0  0  0  0  0  0  0  0  0  0  0
   11.0623   -4.9568   21.7954 C   0  0  0  0  0  0  0  0  0  0  0  0
    7.7072   -9.5490   17.2616 C   0  0  0  0  0  0  0  0  0  0  0  0
    6.5642   -7.9917   17.1077 C   0  0  0  0  0  0  0  0  0  0  0  0
   10.6795   -4.7357   20.2219 P   0  0  0  0  0  0  0  0  0  0  0  0
   10.0715   -6.0464   19.0132 C   0  0  0  0  0  0  0  0  0  0  0  0
   10.9438   -3.2287   20.0105 C   0  0  0  0  0  0  0  0  0  0  0  0
    9.3110   -5.4335   16.5142 C   0  0  0  0  0  0  0  0  0  0  0  0
   10.6215   -3.6105   24.4116 C   0  0  0  0  0  0  0  0  0  0  0  0
    8.9521   -6.2650   18.2094 He  0  0  0  0  0  0  0  0  0  0  0  0
   11.0785   -2.9790   18.3595 He  0  0  0  0  0  0  0  0  0  0  0  0
   10.8936   -6.1475   18.1789 He  0  0  0  0  0  0  0  0  0  0  0  0
    8.0186   -7.2108   17.0961 He  0  0  0  0  0  0  0  0  0  0  0  0
    5.8404   -7.5800   17.4014 He  0  0  0  0  0  0  0  0  0  0  0  0
    9.3076   -0.8363   24.9076 He  0  0  0  0  0  0  0  0  0  0  0  0
    9.7741   -4.5718   16.0208 He  0  0  0  0  0  0  0  0  0  0  0  0
   10.4424   -3.2748   17.5348 He  0  0  0  0  0  0  0  0  0  0  0  0
  1  6  1  0
  1 10  4  0
  1 11  4  0
  1 12  3  0
  1 15  4  0
  1 18  4  0
  2  4  2  0
  2  6  4  0
  2 13  4  0
  2 15  4  0
  3  7  3  0
  3  9  2  0
  4 10  3  0
  4 17  3  0
  5  8  2  0
  5 10  1  0
  5 11  2  0
  5 13  2  0
  5 14  3  0
  5 16  4  0
  5 18  4  0
  6  7  3  0
  6  8  4  0
  6 14  2  0
  6 18  4  0
  7 14  1  0
  7 16  3  0
  8 10  1  0
  8 12  3  0
  8 13  3  0
  8 16  1  0
  9 18  1  0
 10 12  1  0
 11 13  2  0
 11 14  4  0
 11 17  1  0
 12 15  2  0
 12 18  4  0
 13 15  4  0
 13 17  1  0
 13 18  4  0
 14 17  4  0
 15 17  2  0
M  END
$$$$

 Created by Python create_sdf_string function

 26 65  0  0  0  0  0  0  0  0999 V2000
   10.8078   -3.3019   22.1296 C   0  0  0  0  0  0  0  0  0  0  0  0
    9.7615   -2.0979   26.1237 I   0  0  0  0  0  0  0  0  0  0  0  0
    4.8963   -8.1708   16.5298 N   0  0  0  0  0  0  0  0  0  0  0  0
    7.5132   -8.2212   16.5769 C   0  0  0  0  0  0  0  0  0  0  0  0
   10.7622   -2.4664   18.9086 O   0  0  0  0  0  0  0  0  0  0  0  0
   10.2590   -2.2547   22.9864 F   0  0  0  0  0  0  0  0  0  0  0  0
    5.1846   -9.4250   16.5628 C   0  0  0  0  0  0  0  0  0  0  0  0
   10.4549   -1.0852   23.9720 C   0  0  0  0  0  0  0  0  0  0  0  0
   10.0833   -2.7089   25.3304 C   0  0  0  0  0  0  0  0  0  0  0  0
   11.3772   -2.8204   20.5392 C   0  0  0  0  0  0  0  0  0  0  0  0
    9.5406   -5.2535   18.8946 Cl  0  0  0  0  0  0  0  0  0  0  0  0
   10.6482   -4.9947   22.0305 C   0  0  0  0  0  0  0  0  0  0  0  0
    7.0074   -8.8935   16.9194 S   0  0  0  0  0  0  0  0  0  0  0  0
    7.5175   -6.3224   17.2924 C   0  0  0  0  0  0  0  0  0  0  0  0
    5.5543   -7.6048   18.3773 C   0  0  0  0  0  0  0  0  0  0  0  0
   10.0974   -4.6301   18.1160 C   0  0  0  0  0  0  0  0  0  0  0  0
    9.4541   -1.5973   24.6760 C   0  0  0  0  0  0  0  0  0  0  0  0
   10.9295   -5.5156   16.6153 N   0  0  0  0  0  0  0  0  0  0  0  0
   11.3215   -3.3275   19.9875 C   0  0  0  0  0  0  0  0  0  0  0  0
    9.0378   -5.8448   16.4207 C   0  0  0  0  0  0  0  0  0  0  0  0
   10.3492   -3.5426   24.7023 C   0  0  0  0  0  0  0  0  0  0  0  0
   11.5336   -3.6552   18.8495 C   0  0  0  0  0  0  0  0  0  0  0  0
    8.3180   -6.0585   17.5020 He  0  0  0  0  0  0  0  0  0  0  0  0
   10.6677   -3.6972   17.7979 He  0  0  0  0  0  0  0  0  0  0  0  0
    6.4365   -7.2905   18.7344 He  0  0  0  0  0  0  0  0  0  0  0  0
   10.9629   -5.1666   20.5307 He  0  0  0  0  0  0  0  0  0  0  0  0
  1  4  3  0
  1  6  1  0
  1  9  4  0
  1 10  4  0
  1 11  3  0
  1 12  4  0
  1 16  3  0
  2  6  4  0
  2 12  3  0
  2 15  1  0
  2 17  4  0
  2 18  4  0
  3 12  2  0
  3 14  3  0
  3 17  3  0
  3 21  4  0
  3 22  4  0
  4  5  3  0
  4  7  2  0
  4  9  4  0
  4 11  1  0
  4 12  3  0
  4 16  2  0
  4 17  4  0
  5  7  3  0
  5 10  4  0
  5 13  1  0
  5 16  2  0
  5 19  4  0
  5 21  4  0
  5 22  2  0
  6  7  2  0
  6  8  4  0
  6 16  1  0
  7 16  2  0
  8 17  4  0
  8 18  3  0
  8 20  1  0
  9 14  3  0
  9 16  3  0
  9 18  3  0
  9 21  4  0
 10 11  2  0
 10 15  2  0
 10 16  4  0
 10 19  4  0
 10 20  2  0
 10 22  2  0
 11 20  2  0
 12 16  2  0
 12 20  1  0
 12 22  1  0
 13 14  1  0
 13 17  2  0
 14 21  1  0
 15 16  3  0
 15 17  1  0
 15 20  3  0
 16 19  3  0
 16 20  2  0
 17 18  1  0
 17 22  2  0
 18 19  1  0
 18 20  4  0
 18 21  2  0
M  END
$$$$

 Created by Python create_sdf_string function

 26 64  0  0  0  0  0  0  0  0999 V2000
   10.4101   -3.3290   22.6132 C   0  0  0  0  0  0  0  0  0  0  0  0
    8.7518   -5.6667   17.5747 P   0  0  0  0  0  0  0  0  0  0  0  0
   10.8146   -4.1376   17.4157 C   0  0  0  0  0  0  0  0  0  0  0  0
    9.4343   -2.0106   26.2127 Cl  0  0  0  0  0  0  0  0  0  0  0  0
    5.3982   -7.6572   16.0686 N   0  0  0  0  0  0  0  0  0  0  0  0
   11.4356   -2.9516   19.0276 O   0  0  0  0  0  0  0  0  0  0  0  0
   10.5193   -2.2752   23.3518 O   0  0  0  0  0  0  0  0  0  0  0  0
    5.3269   -8.6959   15.5459 P   0  0  0  0  0  0  0  0  0  0  0  0
    9.8562   -1.8458   23.5587 C   0  0  0  0  0  0  0  0  0  0  0  0
   10.3527   -3.3266   26.0314 P   0  0  0  0  0  0  0  0  0  0  0  0
   11.0869   -2.5266   20.9830 C   0  0  0  0  0  0  0  0  0  0  0  0
    9.8385   -4.5615   18.7599 F   0  0  0  0  0  0  0  0  0  0  0  0
    5.1080   -8.3517   19.2367 Cl  0  0  0  0  0  0  0  0  0  0  0  0
    8.5126   -7.3801   17.7307 I   0  0  0  0  0  0  0  0  0  0  0  0
    5.5685   -7.5330   17.5251 C   0  0  0  0  0  0  0  0  0  0  0  0
   10.6980   -5.2687   20.2817 C   0  0  0  0  0  0  0  0  0  0  0  0
    9.5744   -3.5629   17.6767 C   0  0  0  0  0  0  0  0  0  0  0  0
    9.1121   -1.0163   24.7680 C   0  0  0  0  0  0  0  0  0  0  0  0
   10.8300   -5.3276   16.4850 N   0  0  0  0  0  0  0  0  0  0  0  0
   11.0869   -3.7609   19.8207 C   0  0  0  0  0  0  0  0  0  0  0  0
    9.3866   -5.9017   16.2399 C   0  0  0  0  0  0  0  0  0  0  0  0
   11.2960   -3.6748   24.5667 C   0  0  0  0  0  0  0  0  0  0  0  0
   11.0990   -4.3966   17.9647 F   0  0  0  0  0  0  0  0  0  0  0  0
    7.6496   -8.2716   17.1158 He  0  0  0  0  0  0  0  0  0  0  0  0
   10.6781   -4.9616   22.0604 He  0  0  0  0  0  0  0  0  0  0  0  0
    6.8559   -7.9235   16.5667 He  0  0  0  0  0  0  0  0  0  0  0  0
  1  5  3  0
  1  7  1  0
  1  9  3  0
  1 11  4  0
  1 13  4  0
  1 17  4  0
  2  6  3  0
  2  8  3  0
  2 10  4  0
  2 11  2  0
  2 12  4  0
  2 14  2  0
  2 16  3  0
  2 20  1  0
  2 21  4  0
  3  8  2  0
  3 13  1  0
  4 12  2  0
  4 13  1  0
  4 15  1  0
  4 17  4  0
  4 18  4  0
  5  8  3  0
  5 13  3  0
  5 14  3  0
  5 18  1  0
  5 20  2  0
  5 22  4  0
  6  7  3  0
  6  8  2  0
  6 11  1  0
  6 23  2  0
  7  9  4  0
  7 22  4  0
  8 11  4  0
  8 18  3  0
  9 18  4  0
 10 16  3  0
 10 22  4  0
 11 12  1  0
 11 14  2  0
 11 15  4  0
 11 19  3  0
 11 20  4  0
 11 23  3  0
 12 13  3  0
 12 14  3  0
 12 15  1  0
 12 18  3  0
 12 21  1  0
 12 22  4  0
 12 23  4  0
 13 15  4  0
 14 22  2  0
 14 23  1  0
 15 18  2  0
 15 21  2  0
 15 23  4  0
 16 17  1  0
 16 20  1  0
 17 22  4  0
 17 23  2  0
 18 23  3  0
 19 21  4  0
M  END
$$$$

 Created by Python create_sdf_string function

 26 63  0  0  0  0  0  0  0  0999 V2000
   11.2282   -3.9740   22.1038 C   0  0  0  0  0  0  0  0  0  0  0  0
   10.3413   -3.8175   16.7226 C   0  0  0  0  0  0  0  0  0  0  0  0
    9.6374   -1.9333   26.4548 N   0  0  0  0  0  0  0  0  0  0  0  0
    6.4651   -7.2334   16.5718 C   0  0  0  0  0  0  0  0  0  0  0  0
    5.9880   -8.1821   17.5136 C   0  0  0  0  0  0  0  0  0  0  0  0
   10.2357   -1.7622   18.0420 O   0  0  0  0  0  0  0  0  0  0  0  0
   10.7614   -2.9149   23.5108 C   0  0  0  0  0  0  0  0  0  0  0  0
    4.1517   -8.1577   14.8959 C   0  0  0  0  0  0  0  0  0  0  0  0
   10.3535   -3.4505   26.0649 O   0  0  0  0  0  0  0  0  0  0  0  0
   10.8148   -2.8064   20.8358 C   0  0  0  0  0  0  0  0  0  0  0  0
    8.5779   -5.8625   17.9574 C   0  0  0  0  0  0  0  0  0  0  0  0
   10.4965   -4.8563   22.0646 N   0  0  0  0  0  0  0  0  0  0  0  0
    6.1824   -7.0994   15.1146 C   0  0  0  0  0  0  0  0  0  0  0  0
    5.4552   -8.1143   17.6256 C   0  0  0  0  0  0  0  0  0  0  0  0
    7.7627   -7.7650   17.6568 C   0  0  0  0  0  0  0  0  0  0  0  0
   10.9688   -5.1869   21.1187 C   0  0  0  0  0  0  0  0  0  0  0  0
   10.1098   -3.6729   17.8451 C   0  0  0  0  0  0  0  0  0  0  0  0
    9.3696   -1.2801   24.8332 C   0  0  0  0  0  0  0  0  0  0  0  0
    9.8928   -5.4186   16.4619 C   0  0  0  0  0  0  0  0  0  0  0  0
   10.5248   -3.9367   24.8051 C   0  0  0  0  0  0  0  0  0  0  0  0
   11.4789   -2.7747   18.3896 C   0  0  0  0  0  0  0  0  0  0  0  0
    8.5760   -7.2341   17.3455 He  0  0  0  0  0  0  0  0  0  0  0  0
   10.1756   -2.0751   24.0240 He  0  0  0  0  0  0  0  0  0  0  0  0
    6.3846   -7.8158   17.2384 He  0  0  0  0  0  0  0  0  0  0  0  0
   10.8793   -3.9480   19.6791 He  0  0  0  0  0  0  0  0  0  0  0  0
    9.0241   -6.2019   16.1943 He  0  0  0  0  0  0  0  0  0  0  0  0
  1  5  2  0
  1  7  1  0
  1 10  4  0
  1 12  4  0
  1 14  3  0
  2  6  3  0
  2 10  3  0
  2 11  3  0
  2 15  4  0
  2 17  4  0
  2 18  4  0
  2 19  4  0
  3  4  2  0
  3  9  4  0
  3 14  2  0
  3 21  3  0
  4  5  1  0
  4 10  4  0
  4 15  3  0
  4 18  2  0
  5  8  3  0
  5 13  4  0
  5 15  1  0
  5 20  4  0
  6  7  3  0
  6  8  2  0
  6  9  1  0
  6 10  4  0
  6 12  4  0
  6 15  1  0
  6 17  2  0
  6 19  4  0
  6 21  4  0
  7 13  4  0
  7 14  4  0
  7 15  2  0
  7 20  4  0
  8 10  1  0
  8 12  4  0
  8 18  4  0
  8 19  4  0
  9 11  4  0
  9 14  4  0
  9 17  2  0
  9 19  2  0
  9 20  4  0
 10 13  3  0
 10 17  2  0
 10 19  3  0
 11 13  1  0
 11 15  2  0
 11 17  4  0
 12 13  1  0
 12 16  4  0
 13 16  3  0
 13 18  4  0
 14 16  4  0
 15 16  3  0
 15 19  3  0
 15 21  4  0
 17 18  3  0
 17 19  4  0
 18 19  4  0
M  END
$$$$

 Created by Python create_sdf_string function

 26 64  0  0  0  0  0  0  0  0999 V2000
   10.5273   -3.9058   22.3420 C   0  0  0  0  0  0  0  0  0  0  0  0
    7.2910   -6.7899   17.6953 Br  0  0  0  0  0  0  0  0  0  0  0  0
    9.9895   -3.7146   16.4808 C   0  0  0  0  0  0  0  0  0  0  0  0
    9.7281   -1.8435   25.8377 F   0  0  0  0  0  0  0  0  0  0  0  0
    6.7539   -7.8986   17.3405 P   0  0  0  0  0  0  0  0  0  0  0  0
   11.5584   -3.2211   18.8522 O   0  0  0  0  0  0  0  0  0  0  0  0
   10.2719   -3.3785   23.0723 F   0  0  0  0  0  0  0  0  0  0  0  0
    4.9743   -8.7720   15.8274 F   0  0  0  0  0  0  0  0  0  0  0  0
   10.1017   -1.8936   23.5793 F   0  0  0  0  0  0  0  0  0  0  0  0
    9.9977   -3.5151   26.0653 C   0  0  0  0  0  0  0  0  0  0  0  0
   11.3029   -3.2510   21.3967 C   0  0  0  0  0  0  0  0  0  0  0  0
    8.6323   -4.8586   17.4995 F   0  0  0  0  0  0  0  0  0  0  0  0
   10.5971   -4.8995   22.1460 N   0  0  0  0  0  0  0  0  0  0  0  0
    5.8959   -8.2311   15.5294 B   0  0  0  0  0  0  0  0  0  0  0  0
    4.3131   -8.4177   17.4546 C   0  0  0  0  0  0  0  0  0  0  0  0
    7.8787   -6.0421   17.6756 C   0  0  0  0  0  0  0  0  0  0  0  0
    6.0476   -8.4269   16.3837 P   0  0  0  0  0  0  0  0  0  0  0  0
   10.7649   -5.1131   20.9240 C   0  0  0  0  0  0  0  0  0  0  0  0
   10.0055   -4.3726   16.3727 C   0  0  0  0  0  0  0  0  0  0  0  0
   10.8462   -3.6295   20.2663 C   0  0  0  0  0  0  0  0  0  0  0  0
    9.0989   -5.9679   16.1339 C   0  0  0  0  0  0  0  0  0  0  0  0
   10.6392   -3.8208   24.5988 C   0  0  0  0  0  0  0  0  0  0  0  0
    9.8197   -4.1800   18.1622 C   0  0  0  0  0  0  0  0  0  0  0  0
    7.1493   -7.2000   15.9315 He  0  0  0  0  0  0  0  0  0  0  0  0
   10.3376   -4.6063   18.3373 He  0  0  0  0  0  0  0  0  0  0  0  0
    9.3458   -1.0020   25.0650 He  0  0  0  0  0  0  0  0  0  0  0  0
  1  4  2  0
  1  7  1  0
  1 11  4  0
  1 13  4  0
  1 14  3  0
  1 15  3  0
  1 17  1  0
  1 18  3  0
  1 22  2  0
  1 23  4  0
  2  3  2  0
  2  6  1  0
  2  7  2  0
  2  9  4  0
  2 12  4  0
  2 16  1  0
  2 19  3  0
  2 21  4  0
  2 22  3  0
  3  6  2  0
  3  7  4  0
  3 15  3  0
  3 17  1  0
  3 19  4  0
  4  8  1  0
  4 10  4  0
  4 20  3  0
  5  9  1  0
  5 18  2  0
  5 19  1  0
  6  7  1  0
  6 10  4  0
  6 16  4  0
  6 23  2  0
  7  9  4  0
  7 11  2  0
  7 12  2  0
  7 16  3  0
  7 18  4  0
  7 19  1  0
  7 20  4  0
  8 16  4  0
  9 14  2  0
  9 15  2  0
  9 19  1  0
 11 14  3  0
 11 17  2  0
 11 20  4  0
 12 17  4  0
 13 14  3  0
 13 17  1  0
 13 18  4  0
 14 19  1  0
 14 20  2  0
 15 16  1  0
 15 20  1  0
 15 21  3  0
 16 19  1  0
 16 21  4  0
 17 18  4  0
 17 19  3  0
 17 22  2  0
 18 20  4  0
 19 21  4  0
M  END
$$$$

 Created by Python create_sdf_string function

 26 48  0  0  0  0  0  0  0  0999 V2000
   11.1507   -3.5846   22.3062 C   0  0  0  0  0  0  0  0  0  0  0  0
    8.9428   -6.7727   16.7706 O   0  0  0  0  0  0  0  0  0  0  0  0
   10.1779   -3.8492   16.4458 C   0  0  0  0  0  0  0  0  0  0  0  0
    9.3873   -1.8724   25.9995 C   0  0  0  0  0  0  0  0  0  0  0  0
    6.8991   -7.8111   15.9998 C   0  0  0  0  0  0  0  0  0  0  0  0
    5.6539   -6.6493   16.6370 C   0  0  0  0  0  0  0  0  0  0  0  0
   10.2072   -2.5567   17.5578 O   0  0  0  0  0  0  0  0  0  0  0  0
   10.6399   -3.0880   23.8582 C   0  0  0  0  0  0  0  0  0  0  0  0
    9.9815   -1.5538   23.1267 C   0  0  0  0  0  0  0  0  0  0  0  0
    9.5984   -2.9681   26.2092 C   0  0  0  0  0  0  0  0  0  0  0  0
   10.5435   -2.8401   21.1978 C   0  0  0  0  0  0  0  0  0  0  0  0
    8.5392   -5.3540   18.6552 C   0  0  0  0  0  0  0  0  0  0  0  0
   11.1242   -4.9918   21.8272 C   0  0  0  0  0  0  0  0  0  0  0  0
    6.0151   -8.9738   15.5563 C   0  0  0  0  0  0  0  0  0  0  0  0
    4.2702   -8.5632   17.6403 Cl  0  0  0  0  0  0  0  0  0  0  0  0
    6.4803   -7.2939   16.8351 N   0  0  0  0  0  0  0  0  0  0  0  0
   10.4425   -5.5287   21.0500 C   0  0  0  0  0  0  0  0  0  0  0  0
   11.7548   -4.7267   18.4617 N   0  0  0  0  0  0  0  0  0  0  0  0
    9.3447   -1.0442   24.9136 C   0  0  0  0  0  0  0  0  0  0  0  0
    9.8510   -5.6674   15.4851 C   0  0  0  0  0  0  0  0  0  0  0  0
   10.7701   -3.7763   19.9471 C   0  0  0  0  0  0  0  0  0  0  0  0
    8.9248   -5.8498   16.1084 C   0  0  0  0  0  0  0  0  0  0  0  0
   10.1329   -4.2556   25.0287 C   0  0  0  0  0  0  0  0  0  0  0  0
    5.7582   -8.6913   16.0186 He  0  0  0  0  0  0  0  0  0  0  0  0
    8.3999   -6.5122   16.8500 He  0  0  0  0  0  0  0  0  0  0  0  0
   11.1339   -4.8241   18.7040 He  0  0  0  0  0  0  0  0  0  0  0  0
  1  2  1  0
  1  5  3  0
  1  7  1  0
  1 13  4  0
  2  6  1  0
  2 12  4  0
  2 13  1  0
  2 14  4  0
  2 15  3  0
  2 16  1  0
  3 22  2  0
  4 10  4  0
  4 19  3  0
  5  7  4  0
  5  8  2  0
  5  9  1  0
  5 13  1  0
  6  9  1  0
  6 21  3  0
  6 23  3  0
  7 21  1  0
  8 13  3  0
  8 17  3  0
  8 18  1  0
  8 23  1  0
  9 19  4  0
 10 18  3  0
 10 23  4  0
 11 21  4  0
 11 22  1  0
 12 14  3  0
 12 15  2  0
 12 18  4  0
 13 15  2  0
 13 17  4  0
 13 20  3  0
 14 16  2  0
 14 21  3  0
 15 21  1  0
 16 17  1  0
 16 20  2  0
 16 21  1  0
 16 22  2  0
 17 20  3  0
 17 21  4  0
 18 22  3  0
 18 23  2  0
 19 23  1  0
M  END
$$$$

 Created by Python create_sdf_string function

 26 39  0  0  0  0  0  0  0  0999 V2000
   10.8590   -3.5329   22.5854 C   0  0  0  0  0  0  0  0  0  0  0  0
    7.9936   -6.7043   17.3894 P   0  0  0  0  0  0  0  0  0  0  0  0
    9.9683   -4.2777   16.4599 Cl  0  0  0  0  0  0  0  0  0  0  0  0
    9.1656   -2.0279   25.8309 C   0  0  0  0  0  0  0  0  0  0  0  0
    5.6353   -7.9973   18.1646 C   0  0  0  0  0  0  0  0  0  0  0  0
   11.5855   -3.1521   18.3458 O   0  0  0  0  0  0  0  0  0  0  0  0
   10.2368   -2.6218   23.6130 C   0  0  0  0  0  0  0  0  0  0  0  0
    5.0663   -9.7253   16.4585 C   0  0  0  0  0  0  0  0  0  0  0  0
    9.9255   -2.9884   26.1163 C   0  0  0  0  0  0  0  0  0  0  0  0
   11.1323   -3.3798   21.3456 C   0  0  0  0  0  0  0  0  0  0  0  0
   10.7890   -5.3958   21.9805 C   0  0  0  0  0  0  0  0  0  0  0  0
    9.2482   -6.3611   17.9232 N   0  0  0  0  0  0  0  0  0  0  0  0
    7.1832   -7.6839   17.0978 C   0  0  0  0  0  0  0  0  0  0  0  0
   10.9600   -5.2220   20.4364 C   0  0  0  0  0  0  0  0  0  0  0  0
    9.9386   -4.5113   17.6371 N   0  0  0  0  0  0  0  0  0  0  0  0
    9.5323   -1.0645   24.6155 C   0  0  0  0  0  0  0  0  0  0  0  0
    9.7295   -4.3398   16.0947 C   0  0  0  0  0  0  0  0  0  0  0  0
   11.0895   -3.6548   20.1768 C   0  0  0  0  0  0  0  0  0  0  0  0
   10.2181   -3.7145   25.0544 C   0  0  0  0  0  0  0  0  0  0  0  0
   10.8324   -3.9214   18.4567 C   0  0  0  0  0  0  0  0  0  0  0  0
    7.2049   -8.9775   14.2233 He  0  0  0  0  0  0  0  0  0  0  0  0
    9.9359   -1.4711   23.1346 He  0  0  0  0  0  0  0  0  0  0  0  0
    8.3672   -4.5528   18.7533 He  0  0  0  0  0  0  0  0  0  0  0  0
    5.9799   -8.5785   16.0257 He  0  0  0  0  0  0  0  0  0  0  0  0
    4.8715   -7.5251   17.8431 He  0  0  0  0  0  0  0  0  0  0  0  0
    8.8722   -5.4954   15.8104 He  0  0  0  0  0  0  0  0  0  0  0  0
  1  7  1  0
  1 10  4  0
  2 11  3  0
  2 12  1  0
  2 13  1  0
  3 13  1  0
  3 17  1  0
  4  9  4  0
  4 13  1  0
  5  8  2  0
  5  9  3  0
  5 10  1  0
  5 14  1  0
  5 16  3  0
  6  7  2  0
  6 14  4  0
  6 16  1  0
  6 17  1  0
  6 19  2  0
  7 15  1  0
  7 19  4  0
  8 12  3  0
  8 14  3  0
  8 20  4  0
  9 19  4  0
 10 15  3  0
 10 18  4  0
 11 14  4  0
 12 14  4  0
 12 15  3  0
 12 19  4  0
 13 14  4  0
 13 16  2  0
 13 20  3  0
 14 15  4  0
 14 16  3  0
 15 20  1  0
 16 17  3  0
 16 20  2  0
M  END
$$$$

 Created by Python create_sdf_string function

 26 59  0  0  0  0  0  0  0  0999 V2000
   10.6375   -3.7463   22.3784 C   0  0  0  0  0  0  0  0  0  0  0  0
    8.0665   -7.0868   16.7321 C   0  0  0  0  0  0  0  0  0  0  0  0
    9.4623   -1.6377   25.9806 C   0  0  0  0  0  0  0  0  0  0  0  0
   11.0410   -2.5218   18.3901 O   0  0  0  0  0  0  0  0  0  0  0  0
   10.3488   -2.9025   23.3847 S   0  0  0  0  0  0  0  0  0  0  0  0
    4.9493   -8.3500   16.8932 O   0  0  0  0  0  0  0  0  0  0  0  0
   10.1564   -1.4186   23.5220 C   0  0  0  0  0  0  0  0  0  0  0  0
   10.0200   -2.7807   25.9619 C   0  0  0  0  0  0  0  0  0  0  0  0
   10.3867   -2.7227   21.0973 C   0  0  0  0  0  0  0  0  0  0  0  0
   11.1160   -4.7523   22.7715 C   0  0  0  0  0  0  0  0  0  0  0  0
    6.1874   -8.9192   15.3288 C   0  0  0  0  0  0  0  0  0  0  0  0
    4.9862   -7.3167   16.6419 N   0  0  0  0  0  0  0  0  0  0  0  0
    8.5433   -5.9145   18.1732 P   0  0  0  0  0  0  0  0  0  0  0  0
    6.7410   -7.6810   17.9912 C   0  0  0  0  0  0  0  0  0  0  0  0
   10.7296   -5.2669   20.6267 C   0  0  0  0  0  0  0  0  0  0  0  0
    9.2389   -0.8987   24.1740 C   0  0  0  0  0  0  0  0  0  0  0  0
   10.2523   -4.9554   16.1760 C   0  0  0  0  0  0  0  0  0  0  0  0
   11.1729   -4.4705   19.8030 C   0  0  0  0  0  0  0  0  0  0  0  0
    8.8801   -5.4002   16.0248 C   0  0  0  0  0  0  0  0  0  0  0  0
   10.3281   -3.6088   24.6296 C   0  0  0  0  0  0  0  0  0  0  0  0
   10.9952   -3.0782   18.5110 F   0  0  0  0  0  0  0  0  0  0  0  0
   10.1900   -4.4673   16.5318 He  0  0  0  0  0  0  0  0  0  0  0  0
    6.0779   -8.3863   14.4897 He  0  0  0  0  0  0  0  0  0  0  0  0
    6.3231   -7.2117   17.1331 He  0  0  0  0  0  0  0  0  0  0  0  0
   10.0310   -4.2391   19.3516 He  0  0  0  0  0  0  0  0  0  0  0  0
   10.0499   -4.7801   18.6470 He  0  0  0  0  0  0  0  0  0  0  0  0
  1  4  4  0
  1  5  1  0
  1 10  4  0
  1 12  3  0
  1 13  2  0
  2  5  1  0
  2  7  3  0
  2 11  3  0
  2 13  1  0
  2 14  1  0
  2 17  3  0
  2 20  4  0
  3  5  2  0
  3  7  2  0
  3  8  4  0
  3 16  4  0
  4  5  1  0
  4 12  1  0
  4 15  3  0
  4 17  2  0
  4 21  2  0
  5  7  4  0
  5 20  4  0
  5 21  1  0
  6  7  2  0
  6 11  4  0
  6 12  4  0
  6 16  2  0
  7 12  1  0
  7 16  4  0
  7 21  2  0
  8 11  1  0
  8 12  1  0
  8 13  2  0
  8 14  1  0
  8 16  1  0
  8 20  1  0
  9 10  1  0
  9 18  4  0
 10 13  2  0
 10 14  4  0
 10 15  3  0
 11 14  3  0
 11 16  4  0
 11 18  3  0
 12 17  3  0
 12 20  1  0
 13 14  2  0
 13 20  4  0
 14 16  3  0
 14 18  2  0
 15 16  2  0
 15 18  4  0
 17 18  1  0
 17 19  4  0
 17 20  2  0
 19 20  3  0
 19 21  3  0
 20 21  1  0
M  END
$$$$

 Created by Python create_sdf_string function

 26 57  0  0  0  0  0  0  0  0999 V2000
   10.2221   -3.4381   22.0955 C   0  0  0  0  0  0  0  0  0  0  0  0
    7.5016   -6.8923   16.1828 C   0  0  0  0  0  0  0  0  0  0  0  0
   10.0052   -4.0658   16.4960 C   0  0  0  0  0  0  0  0  0  0  0  0
    6.7179   -8.2911   15.4294 N   0  0  0  0  0  0  0  0  0  0  0  0
   11.3611   -2.5990   18.2734 C   0  0  0  0  0  0  0  0  0  0  0  0
   10.5495   -3.0823   23.5868 C   0  0  0  0  0  0  0  0  0  0  0  0
    5.7564   -9.4118   15.8436 C   0  0  0  0  0  0  0  0  0  0  0  0
   10.3861   -1.5537   23.4475 C   0  0  0  0  0  0  0  0  0  0  0  0
    9.3731   -3.0813   25.6774 N   0  0  0  0  0  0  0  0  0  0  0  0
   11.0142   -2.8605   21.1151 C   0  0  0  0  0  0  0  0  0  0  0  0
    9.9345   -5.8877   17.9510 Se  0  0  0  0  0  0  0  0  0  0  0  0
   11.1623   -5.1723   22.3733 C   0  0  0  0  0  0  0  0  0  0  0  0
    6.4237   -8.6685   15.9137 O   0  0  0  0  0  0  0  0  0  0  0  0
    5.1555   -8.2686   16.0855 N   0  0  0  0  0  0  0  0  0  0  0  0
    7.7674   -5.7190   16.7054 C   0  0  0  0  0  0  0  0  0  0  0  0
   10.9064   -5.0374   20.4258 C   0  0  0  0  0  0  0  0  0  0  0  0
    9.7102   -3.8447   17.9160 N   0  0  0  0  0  0  0  0  0  0  0  0
    8.9317   -0.5857   24.4654 C   0  0  0  0  0  0  0  0  0  0  0  0
    9.8318   -4.9517   15.7185 S   0  0  0  0  0  0  0  0  0  0  0  0
   10.9855   -4.0390   20.0996 C   0  0  0  0  0  0  0  0  0  0  0  0
    9.4458   -6.0124   15.8707 O   0  0  0  0  0  0  0  0  0  0  0  0
   10.1677   -3.6459   25.1684 C   0  0  0  0  0  0  0  0  0  0  0  0
   10.9623   -4.2900   18.0395 C   0  0  0  0  0  0  0  0  0  0  0  0
    9.5833   -1.2848   26.1020 He  0  0  0  0  0  0  0  0  0  0  0  0
    6.4869   -6.9279   17.9749 He  0  0  0  0  0  0  0  0  0  0  0  0
    9.3335   -7.3451   18.0273 He  0  0  0  0  0  0  0  0  0  0  0  0
  1  5  3  0
  1  6  1  0
  1 10  4  0
  1 12  4  0
  1 19  2  0
  2  8  3  0
  2 11  2  0
  2 23  2  0
  3  5  3  0
  3 14  2  0
  3 18  2  0
  3 19  1  0
  4  8  2  0
  4 15  4  0
  4 18  2  0
  5  7  1  0
  5  9  3  0
  5 10  2  0
  5 11  1  0
  5 12  1  0
  5 14  1  0
  5 15  4  0
  5 16  1  0
  5 23  2  0
  6  8  4  0
  6 11  4  0
  6 15  3  0
  6 19  2  0
  6 22  4  0
  7  9  2  0
  7 12  4  0
  7 14  4  0
  7 18  1  0
  7 19  1  0
  7 20  2  0
  8 14  4  0
  8 18  4  0
  8 19  2  0
  9 22  4  0
  9 23  2  0
 10 20  4  0
 11 17  1  0
 12 16  4  0
 12 17  4  0
 12 20  1  0
 13 16  2  0
 13 17  1  0
 13 22  3  0
 13 23  2  0
 14 20  2  0
 14 21  4  0
 15 16  1  0
 15 21  3  0
 16 19  2  0
 16 20  4  0
 17 23  1  0
 21 22  2  0
M  END
$$$$

 Created by Python create_sdf_string function

 26 42  0  0  0  0  0  0  0  0999 V2000
   10.9862   -3.5799   22.3969 C   0  0  0  0  0  0  0  0  0  0  0  0
    9.2189   -5.3842   17.4609 C   0  0  0  0  0  0  0  0  0  0  0  0
    9.8989   -4.0414   16.8551 C   0  0  0  0  0  0  0  0  0  0  0  0
    9.1331   -1.6384   25.8059 N   0  0  0  0  0  0  0  0  0  0  0  0
    7.0930   -8.9902   15.7283 C   0  0  0  0  0  0  0  0  0  0  0  0
    6.0568   -7.1679   17.3078 N   0  0  0  0  0  0  0  0  0  0  0  0
   12.3826   -2.1506   18.5330 N   0  0  0  0  0  0  0  0  0  0  0  0
    9.7825   -1.5636   23.3976 C   0  0  0  0  0  0  0  0  0  0  0  0
    9.5441   -2.4462   25.7996 N   0  0  0  0  0  0  0  0  0  0  0  0
   10.9847   -2.7830   20.8927 N   0  0  0  0  0  0  0  0  0  0  0  0
   10.2580   -5.6258   18.2090 F   0  0  0  0  0  0  0  0  0  0  0  0
   10.8174   -5.0559   22.0683 C   0  0  0  0  0  0  0  0  0  0  0  0
    7.1547   -8.7101   15.5101 C   0  0  0  0  0  0  0  0  0  0  0  0
    9.5516   -6.1939   18.5123 C   0  0  0  0  0  0  0  0  0  0  0  0
    7.1337   -5.4938   16.0436 C   0  0  0  0  0  0  0  0  0  0  0  0
    9.6473   -0.8586   24.5214 C   0  0  0  0  0  0  0  0  0  0  0  0
   10.8212   -3.7392   20.2152 C   0  0  0  0  0  0  0  0  0  0  0  0
    8.9125   -5.6397   16.1930 C   0  0  0  0  0  0  0  0  0  0  0  0
   11.5420   -3.7722   19.0279 C   0  0  0  0  0  0  0  0  0  0  0  0
   10.2098   -2.9642   23.4479 He  0  0  0  0  0  0  0  0  0  0  0  0
    6.2920   -8.5320   15.6560 He  0  0  0  0  0  0  0  0  0  0  0  0
    5.1760   -7.9110   15.8034 He  0  0  0  0  0  0  0  0  0  0  0  0
   11.1528   -5.1569   20.8486 He  0  0  0  0  0  0  0  0  0  0  0  0
   10.9639   -4.0057   17.9850 He  0  0  0  0  0  0  0  0  0  0  0  0
    9.2341   -3.5532   16.3741 He  0  0  0  0  0  0  0  0  0  0  0  0
    9.8698   -3.4614   24.8992 He  0  0  0  0  0  0  0  0  0  0  0  0
  1  5  2  0
  1  7  4  0
  1 10  4  0
  1 11  2  0
  1 12  4  0
  2  3  4  0
  2  6  4  0
  2  8  2  0
  2 15  4  0
  3 11  2  0
  3 19  4  0
  4  6  4  0
  4  9  4  0
  4 16  2  0
  4 19  3  0
  5  9  4  0
  5 13  4  0
  5 14  3  0
  5 18  3  0
  6 11  2  0
  6 12  4  0
  6 14  2  0
  6 16  4  0
  6 18  3  0
  7  9  3  0
  7 14  1  0
  7 17  3  0
  7 19  2  0
  8 16  4  0
  9 10  3  0
  9 19  3  0
 10 13  3  0
 10 17  1  0
 11 12  2  0
 11 17  2  0
 11 19  3  0
 14 19  1  0
 15 17  4  0
 15 18  1  0
 16 19  3  0
 17 19  2  0
 18 19  1  0
M  END
$$$$

 Created by Python create_sdf_string function

 26 57  0  0  0  0  0  0  0  0999 V2000
   10.7370   -3.4532   22.4568 C   0  0  0  0  0  0  0  0  0  0  0  0
    8.9607   -5.6075   17.2198 C   0  0  0  0  0  0  0  0  0  0  0  0
    9.9629   -4.0137   16.6711 C   0  0  0  0  0  0  0  0  0  0  0  0
    9.3078   -1.5382   25.3706 N   0  0  0  0  0  0  0  0  0  0  0  0
    8.0731   -9.1769   15.1580 C   0  0  0  0  0  0  0  0  0  0  0  0
    6.4838   -6.7479   16.5541 Br  0  0  0  0  0  0  0  0  0  0  0  0
   11.9877   -2.2560   18.8993 O   0  0  0  0  0  0  0  0  0  0  0  0
    9.9382   -1.6813   23.4609 O   0  0  0  0  0  0  0  0  0  0  0  0
    9.5499   -2.5445   25.9710 N   0  0  0  0  0  0  0  0  0  0  0  0
   10.3136   -6.6452   18.6547 P   0  0  0  0  0  0  0  0  0  0  0  0
   11.2417   -4.8087   22.4274 C   0  0  0  0  0  0  0  0  0  0  0  0
    7.7563   -7.8720   15.3289 C   0  0  0  0  0  0  0  0  0  0  0  0
    8.7131   -5.8694   18.5220 C   0  0  0  0  0  0  0  0  0  0  0  0
    7.5864   -7.3746   16.4824 C   0  0  0  0  0  0  0  0  0  0  0  0
   11.4936   -5.4060   20.5440 C   0  0  0  0  0  0  0  0  0  0  0  0
   10.3842   -5.2991   17.6984 N   0  0  0  0  0  0  0  0  0  0  0  0
    8.9443   -0.5457   24.5576 C   0  0  0  0  0  0  0  0  0  0  0  0
   10.1182   -3.7418   16.4148 N   0  0  0  0  0  0  0  0  0  0  0  0
   11.4739   -3.9943   20.1991 F   0  0  0  0  0  0  0  0  0  0  0  0
    7.9725   -6.1721   16.1412 C   0  0  0  0  0  0  0  0  0  0  0  0
   10.4330   -3.7510   24.2502 C   0  0  0  0  0  0  0  0  0  0  0  0
   11.5031   -4.3301   18.3175 C   0  0  0  0  0  0  0  0  0  0  0  0
   10.2197   -2.6960   23.7199 He  0  0  0  0  0  0  0  0  0  0  0  0
    5.9652   -9.2534   15.4011 He  0  0  0  0  0  0  0  0  0  0  0  0
   11.4722   -2.9891   21.1740 He  0  0  0  0  0  0  0  0  0  0  0  0
    6.0009   -8.0734   16.5503 He  0  0  0  0  0  0  0  0  0  0  0  0
  1 11  4  0
  2  3  4  0
  2  7  1  0
  2 13  4  0
  2 18  4  0
  2 20  3  0
  3  6  2  0
  3 16  4  0
  3 21  2  0
  4  6  1  0
  4  9  4  0
  4 13  4  0
  4 19  1  0
  4 21  2  0
  5  9  2  0
  5 11  1  0
  5 21  3  0
  5 22  4  0
  6  7  3  0
  6 11  3  0
  6 13  1  0
  6 14  4  0
  6 21  3  0
  7 10  4  0
  7 21  4  0
  7 22  2  0
  8 10  1  0
  8 14  4  0
  8 16  1  0
  8 17  4  0
  8 18  3  0
  9 16  2  0
  9 20  2  0
  9 21  4  0
 10 13  4  0
 10 16  2  0
 10 18  3  0
 10 20  4  0
 11 15  4  0
 12 14  1  0
 12 17  1  0
 13 14  2  0
 13 15  4  0
 13 19  1  0
 13 20  2  0
 14 19  1  0
 14 20  3  0
 14 21  4  0
 14 22  1  0
 15 19  4  0
 16 21  4  0
 16 22  2  0
 17 18  3  0
 18 20  1  0
 18 21  1  0
 19 22  1  0
 20 22  4  0
M  END
$$$$

 Created by Python create_sdf_string function

 26 37  0  0  0  0  0  0  0  0999 V2000
   10.8717   -3.8271   22.4420 C   0  0  0  0  0  0  0  0  0  0  0  0
    9.0126   -5.3488   16.3716 C   0  0  0  0  0  0  0  0  0  0  0  0
   10.3792   -4.5739   17.0436 C   0  0  0  0  0  0  0  0  0  0  0  0
    9.2469   -1.3580   25.7621 N   0  0  0  0  0  0  0  0  0  0  0  0
   11.3021   -2.3416   18.4427 O   0  0  0  0  0  0  0  0  0  0  0  0
   10.5347   -2.9286   23.4849 C   0  0  0  0  0  0  0  0  0  0  0  0
    9.8280   -1.7915   23.3102 C   0  0  0  0  0  0  0  0  0  0  0  0
    9.4497   -2.5312   26.2588 N   0  0  0  0  0  0  0  0  0  0  0  0
   11.2036   -3.2357   20.7766 N   0  0  0  0  0  0  0  0  0  0  0  0
   11.2713   -4.9386   22.0173 C   0  0  0  0  0  0  0  0  0  0  0  0
    8.5365   -8.6496   15.0295 C   0  0  0  0  0  0  0  0  0  0  0  0
    5.1336   -8.0525   16.7521 C   0  0  0  0  0  0  0  0  0  0  0  0
    8.6673   -7.1829   18.9942 S   0  0  0  0  0  0  0  0  0  0  0  0
    7.8876   -6.3499   14.8377 C   0  0  0  0  0  0  0  0  0  0  0  0
   11.7090   -5.6057   20.9808 C   0  0  0  0  0  0  0  0  0  0  0  0
    9.3044   -0.7811   24.5831 C   0  0  0  0  0  0  0  0  0  0  0  0
   11.1141   -3.8856   20.4801 C   0  0  0  0  0  0  0  0  0  0  0  0
    8.2308   -5.9151   16.3134 P   0  0  0  0  0  0  0  0  0  0  0  0
   10.5627   -3.8434   24.9510 C   0  0  0  0  0  0  0  0  0  0  0  0
    6.6540   -9.3131   15.3919 He  0  0  0  0  0  0  0  0  0  0  0  0
    6.1088   -6.7866   17.1354 He  0  0  0  0  0  0  0  0  0  0  0  0
    6.1465   -8.4525   14.7449 He  0  0  0  0  0  0  0  0  0  0  0  0
    9.9931   -6.5644   18.9964 He  0  0  0  0  0  0  0  0  0  0  0  0
   10.5104   -5.0588   17.9186 He  0  0  0  0  0  0  0  0  0  0  0  0
    9.9220   -2.6891   16.2810 He  0  0  0  0  0  0  0  0  0  0  0  0
   12.0325   -4.2480   17.4778 He  0  0  0  0  0  0  0  0  0  0  0  0
  1  6  1  0
  1  9  4  0
  1 10  4  0
  1 14  4  0
  2  3  4  0
  2 13  4  0
  2 14  2  0
  2 15  2  0
  2 17  3  0
  2 18  4  0
  3 12  3  0
  3 13  2  0
  3 18  1  0
  4  8  4  0
  4 11  3  0
  5 13  2  0
  6  7  4  0
  6 13  3  0
  6 19  4  0
  7 11  4  0
  7 16  4  0
  8 12  1  0
  8 19  4  0
  9 16  4  0
  9 17  2  0
 10 13  1  0
 10 14  2  0
 10 15  4  0
 10 16  1  0
 11 14  4  0
 11 18  2  0
 11 19  4  0
 12 15  2  0
 12 16  1  0
 12 19  4  0
 14 18  1  0
 15 17  4  0
M  END
$$$$

 Created by Python create_sdf_string function

 26 31  0  0  0  0  0  0  0  0999 V2000
   10.8901   -3.6834   22.4256 C   0  0  0  0  0  0  0  0  0  0  0  0
    9.6252   -4.1495   16.4093 C   0  0  0  0  0  0  0  0  0  0  0  0
    9.1921   -1.6834   25.6323 N   0  0  0  0  0  0  0  0  0  0  0  0
    6.5706   -6.3374   17.1746 C   0  0  0  0  0  0  0  0  0  0  0  0
   11.4791   -3.7708   18.0239 O   0  0  0  0  0  0  0  0  0  0  0  0
   10.1392   -2.8960   23.8437 C   0  0  0  0  0  0  0  0  0  0  0  0
    6.6654   -9.5637   15.3725 C   0  0  0  0  0  0  0  0  0  0  0  0
   10.1639   -1.4697   23.4904 C   0  0  0  0  0  0  0  0  0  0  0  0
    9.8719   -2.8729   25.5837 C   0  0  0  0  0  0  0  0  0  0  0  0
   11.0561   -3.0676   21.2957 N   0  0  0  0  0  0  0  0  0  0  0  0
   10.4338   -6.9403   19.3872 I   0  0  0  0  0  0  0  0  0  0  0  0
    9.7420   -8.5581   18.7282 S   0  0  0  0  0  0  0  0  0  0  0  0
    9.7233   -3.7798   17.3778 O   0  0  0  0  0  0  0  0  0  0  0  0
   11.1961   -4.0471   20.3256 C   0  0  0  0  0  0  0  0  0  0  0  0
    8.5221   -6.2427   16.5674 C   0  0  0  0  0  0  0  0  0  0  0  0
   10.9286   -4.7658   19.6118 C   0  0  0  0  0  0  0  0  0  0  0  0
    9.5353   -5.6092   16.7098 He  0  0  0  0  0  0  0  0  0  0  0  0
    6.6140   -8.8607   14.5162 He  0  0  0  0  0  0  0  0  0  0  0  0
   10.9448   -5.2392   22.2866 He  0  0  0  0  0  0  0  0  0  0  0  0
    7.7780   -8.3632   14.9495 He  0  0  0  0  0  0  0  0  0  0  0  0
    5.1344   -8.6820   16.8645 He  0  0  0  0  0  0  0  0  0  0  0  0
    8.0669   -7.1803   15.8517 He  0  0  0  0  0  0  0  0  0  0  0  0
   11.6863   -5.5645   21.0779 He  0  0  0  0  0  0  0  0  0  0  0  0
   10.1683   -5.7633   18.4980 He  0  0  0  0  0  0  0  0  0  0  0  0
    9.6568   -0.7029   24.8203 He  0  0  0  0  0  0  0  0  0  0  0  0
   10.3657   -3.4449   25.1772 He  0  0  0  0  0  0  0  0  0  0  0  0
  1  5  4  0
  1 10  4  0
  2  7  1  0
  2 10  2  0
  2 13  1  0
  2 16  1  0
  3  5  2  0
  3  7  4  0
  3  9  4  0
  3 13  4  0
  3 14  4  0
  4  7  3  0
  4  8  1  0
  4 11  1  0
  4 16  3  0
  5  6  1  0
  5  7  3  0
  5  9  2  0
  6  8  4  0
  6 12  2  0
  6 14  2  0
  7  8  2  0
  8 16  2  0
  9 12  3  0
  9 13  4  0
 10 11  2  0
 10 14  4  0
 11 12  4  0
 11 13  1  0
 11 15  4  0
 14 16  1  0
M  END
$$$$

 Created by Python create_sdf_string function

 26 43  0  0  0  0  0  0  0  0999 V2000
    9.8492   -4.9903   17.1248 C   0  0  0  0  0  0  0  0  0  0  0  0
    9.0676   -1.0189   25.7445 N   0  0  0  0  0  0  0  0  0  0  0  0
    6.7232   -8.9228   15.1315 N   0  0  0  0  0  0  0  0  0  0  0  0
    5.6576   -6.8948   16.7026 C   0  0  0  0  0  0  0  0  0  0  0  0
   10.5265   -2.6889   23.9955 C   0  0  0  0  0  0  0  0  0  0  0  0
    9.9265   -1.3875   23.3474 F   0  0  0  0  0  0  0  0  0  0  0  0
   10.1453   -2.8271   26.0707 C   0  0  0  0  0  0  0  0  0  0  0  0
   10.5917   -3.1553   21.5033 N   0  0  0  0  0  0  0  0  0  0  0  0
   10.0693   -6.0400   19.1989 C   0  0  0  0  0  0  0  0  0  0  0  0
   11.0480   -4.7398   23.0979 N   0  0  0  0  0  0  0  0  0  0  0  0
    8.3755   -8.1354   15.0543 N   0  0  0  0  0  0  0  0  0  0  0  0
    4.7588   -8.0897   17.1931 S   0  0  0  0  0  0  0  0  0  0  0  0
    8.9455   -7.6088   19.1988 Cl  0  0  0  0  0  0  0  0  0  0  0  0
    7.4539   -7.3379   15.9992 C   0  0  0  0  0  0  0  0  0  0  0  0
   11.3725   -5.2270   21.5304 O   0  0  0  0  0  0  0  0  0  0  0  0
    9.3741   -0.7293   24.4336 C   0  0  0  0  0  0  0  0  0  0  0  0
   11.0403   -3.2190   16.2768 C   0  0  0  0  0  0  0  0  0  0  0  0
   10.8205   -4.2533   20.3164 C   0  0  0  0  0  0  0  0  0  0  0  0
    8.6972   -7.3628   16.9298 C   0  0  0  0  0  0  0  0  0  0  0  0
    9.9016   -3.3515   24.8416 C   0  0  0  0  0  0  0  0  0  0  0  0
   11.0498   -4.4989   19.3263 S   0  0  0  0  0  0  0  0  0  0  0  0
   11.0921   -3.5523   22.4223 He  0  0  0  0  0  0  0  0  0  0  0  0
    9.6651   -5.0151   16.0760 He  0  0  0  0  0  0  0  0  0  0  0  0
   11.4583   -2.7891   19.0869 He  0  0  0  0  0  0  0  0  0  0  0  0
    6.0851   -8.6642   15.9331 He  0  0  0  0  0  0  0  0  0  0  0  0
   10.6589   -5.7756   18.2616 He  0  0  0  0  0  0  0  0  0  0  0  0
  1  9  2  0
  1 13  1  0
  1 17  1  0
  1 20  2  0
  1 21  4  0
  2  3  2  0
  2  7  4  0
  2 16  1  0
  2 19  3  0
  3  7  2  0
  3 10  2  0
  3 11  2  0
  3 14  3  0
  3 17  3  0
  4  6  2  0
  4 12  1  0
  4 14  1  0
  4 17  2  0
  4 18  4  0
  5  6  4  0
  5 11  4  0
  5 17  4  0
  5 20  4  0
  6 15  3  0
  6 16  4  0
  7  9  2  0
  7 14  3  0
  7 20  4  0
  8  9  2  0
  9 13  3  0
  9 14  2  0
 10 15  4  0
 11 14  2  0
 11 16  4  0
 12 17  4  0
 13 19  4  0
 13 21  2  0
 14 15  4  0
 14 20  3  0
 15 18  4  0
 15 21  1  0
 16 21  3  0
 18 21  1  0
M  END
$$$$

 Created by Python create_sdf_string function

 26 28  0  0  0  0  0  0  0  0999 V2000
   10.8972   -3.3922   22.9728 C   0  0  0  0  0  0  0  0  0  0  0  0
   10.0982   -4.8148   17.2526 C   0  0  0  0  0  0  0  0  0  0  0  0
    9.3022   -1.1318   25.7126 N   0  0  0  0  0  0  0  0  0  0  0  0
    6.5226   -7.2337   16.3985 C   0  0  0  0  0  0  0  0  0  0  0  0
   11.0699   -3.2888   18.6541 C   0  0  0  0  0  0  0  0  0  0  0  0
   10.2084   -2.7285   23.6150 C   0  0  0  0  0  0  0  0  0  0  0  0
    6.0127   -9.5368   15.1978 C   0  0  0  0  0  0  0  0  0  0  0  0
   10.4012   -6.8822   18.5689 C   0  0  0  0  0  0  0  0  0  0  0  0
   10.9930   -5.0296   22.9983 N   0  0  0  0  0  0  0  0  0  0  0  0
    8.0029   -7.3863   15.5583 F   0  0  0  0  0  0  0  0  0  0  0  0
   11.1927   -4.7155   21.6105 O   0  0  0  0  0  0  0  0  0  0  0  0
    9.3027   -0.6611   24.5323 F   0  0  0  0  0  0  0  0  0  0  0  0
   10.1749   -2.4603   16.9249 C   0  0  0  0  0  0  0  0  0  0  0  0
    9.1866   -6.9034   17.0032 C   0  0  0  0  0  0  0  0  0  0  0  0
   10.4333   -3.0703   25.1055 C   0  0  0  0  0  0  0  0  0  0  0  0
   11.7591   -4.6085   19.5186 C   0  0  0  0  0  0  0  0  0  0  0  0
    9.4945   -5.1825   16.5006 He  0  0  0  0  0  0  0  0  0  0  0  0
    5.6863   -9.5186   15.6514 He  0  0  0  0  0  0  0  0  0  0  0  0
    9.9764   -1.2345   23.5636 He  0  0  0  0  0  0  0  0  0  0  0  0
    9.6399   -2.3076   26.4320 He  0  0  0  0  0  0  0  0  0  0  0  0
   11.1483   -2.8874   21.3995 He  0  0  0  0  0  0  0  0  0  0  0  0
    4.9320   -8.7062   16.0624 He  0  0  0  0  0  0  0  0  0  0  0  0
    8.9739   -7.3783   18.7681 He  0  0  0  0  0  0  0  0  0  0  0  0
    7.0507   -6.5337   16.4847 He  0  0  0  0  0  0  0  0  0  0  0  0
    9.5272   -4.9681   18.3798 He  0  0  0  0  0  0  0  0  0  0  0  0
   10.9993   -4.3261   20.5272 He  0  0  0  0  0  0  0  0  0  0  0  0
  1  5  2  0
  1  6  1  0
  1  9  4  0
  2  5  4  0
  2  8  4  0
  2  9  1  0
  2 11  1  0
  2 14  1  0
  3  6  3  0
  3  8  4  0
  3 12  4  0
  3 13  3  0
  4  9  3  0
  4 10  2  0
  4 12  3  0
  4 13  1  0
  4 15  4  0
  5 11  2  0
  5 13  1  0
  6  8  4  0
  6 15  4  0
  7 16  1  0
  8 12  1  0
  8 13  2  0
  8 15  3  0
  9 11  4  0
 13 14  2  0
 14 16  4  0
M  END
$$$$

 Created by Python create_sdf_string function

 26 46  0  0  0  0  0  0  0  0999 V2000
   10.9957   -3.4724   22.7066 C   0  0  0  0  0  0  0  0  0  0  0  0
    9.5714   -5.5591   18.0332 N   0  0  0  0  0  0  0  0  0  0  0  0
   10.0053   -4.9730   17.3478 C   0  0  0  0  0  0  0  0  0  0  0  0
    9.5407   -1.0703   25.7631 N   0  0  0  0  0  0  0  0  0  0  0  0
    6.7816   -9.4512   15.3639 C   0  0  0  0  0  0  0  0  0  0  0  0
    6.0706   -7.0975   16.2084 C   0  0  0  0  0  0  0  0  0  0  0  0
   10.2752   -2.6055   23.7581 N   0  0  0  0  0  0  0  0  0  0  0  0
    5.7343   -9.0169   15.5073 S   0  0  0  0  0  0  0  0  0  0  0  0
    9.9499   -1.2296   23.4178 C   0  0  0  0  0  0  0  0  0  0  0  0
    9.3778   -2.3561   26.2423 C   0  0  0  0  0  0  0  0  0  0  0  0
   11.3995   -3.0109   21.7418 N   0  0  0  0  0  0  0  0  0  0  0  0
    9.8674   -5.6938   18.7484 C   0  0  0  0  0  0  0  0  0  0  0  0
   10.7159   -4.5972   22.6929 N   0  0  0  0  0  0  0  0  0  0  0  0
    4.6992   -7.7350   16.9313 C   0  0  0  0  0  0  0  0  0  0  0  0
    9.5163   -6.8585   18.6953 F   0  0  0  0  0  0  0  0  0  0  0  0
    7.8610   -7.7892   16.0316 C   0  0  0  0  0  0  0  0  0  0  0  0
   10.9797   -5.5455   21.0996 O   0  0  0  0  0  0  0  0  0  0  0  0
   10.4852   -5.3624   18.9428 C   0  0  0  0  0  0  0  0  0  0  0  0
    9.4753   -0.6487   24.6792 C   0  0  0  0  0  0  0  0  0  0  0  0
   11.4348   -4.1878   20.5698 C   0  0  0  0  0  0  0  0  0  0  0  0
    8.3615   -6.7292   17.0877 C   0  0  0  0  0  0  0  0  0  0  0  0
   10.0415   -3.2937   24.7651 C   0  0  0  0  0  0  0  0  0  0  0  0
   10.7052   -3.1428   17.9202 He  0  0  0  0  0  0  0  0  0  0  0  0
    7.7764   -6.9813   15.0028 He  0  0  0  0  0  0  0  0  0  0  0  0
   11.1240   -3.2225   17.2096 He  0  0  0  0  0  0  0  0  0  0  0  0
   11.1358   -4.4554   19.5373 He  0  0  0  0  0  0  0  0  0  0  0  0
  1  7  1  0
  1 11  4  0
  1 13  4  0
  1 16  3  0
  1 17  4  0
  2 10  3  0
  2 13  4  0
  2 18  2  0
  2 20  2  0
  2 21  4  0
  3  6  3  0
  3 13  1  0
  4 10  4  0
  4 13  3  0
  4 19  4  0
  5  8  4  0
  5 11  2  0
  5 14  2  0
  6  9  4  0
  6 11  2  0
  6 16  4  0
  7  9  4  0
  7 16  4  0
  7 22  4  0
  8 11  2  0
  8 13  3  0
  8 14  4  0
  9 10  2  0
  9 19  4  0
 10 12  3  0
 10 13  2  0
 10 15  2  0
 10 22  4  0
 11 12  1  0
 11 14  3  0
 11 20  4  0
 12 14  1  0
 12 15  4  0
 12 18  4  0
 12 19  3  0
 13 16  2  0
 14 16  1  0
 14 18  4  0
 15 21  4  0
 16 21  3  0
 17 20  4  0
M  END
$$$$

 Created by Python create_sdf_string function

 26 52  0  0  0  0  0  0  0  0999 V2000
   10.6815   -3.4686   22.8708 C   0  0  0  0  0  0  0  0  0  0  0  0
   10.1831   -4.8906   17.5524 C   0  0  0  0  0  0  0  0  0  0  0  0
    9.1518   -0.9373   25.8107 P   0  0  0  0  0  0  0  0  0  0  0  0
    6.0483   -7.1738   17.2529 C   0  0  0  0  0  0  0  0  0  0  0  0
   11.4301   -3.0447   18.0655 N   0  0  0  0  0  0  0  0  0  0  0  0
   10.2920   -2.3805   23.6920 C   0  0  0  0  0  0  0  0  0  0  0  0
   10.1961   -1.2996   23.2948 C   0  0  0  0  0  0  0  0  0  0  0  0
    9.6500   -2.3039   26.2108 C   0  0  0  0  0  0  0  0  0  0  0  0
   10.6758   -3.1836   21.3737 N   0  0  0  0  0  0  0  0  0  0  0  0
   10.0214   -6.7572   19.8018 F   0  0  0  0  0  0  0  0  0  0  0  0
   10.7825   -4.7336   22.8685 N   0  0  0  0  0  0  0  0  0  0  0  0
    8.0239   -8.2809   15.9663 C   0  0  0  0  0  0  0  0  0  0  0  0
    9.5085   -7.3366   18.6427 C   0  0  0  0  0  0  0  0  0  0  0  0
   11.3865   -5.3828   21.1425 O   0  0  0  0  0  0  0  0  0  0  0  0
    9.8901   -5.9249   18.4659 C   0  0  0  0  0  0  0  0  0  0  0  0
    9.6520   -0.4656   24.3719 C   0  0  0  0  0  0  0  0  0  0  0  0
   10.2756   -4.5726   17.6309 N   0  0  0  0  0  0  0  0  0  0  0  0
   10.9604   -4.0713   20.5622 C   0  0  0  0  0  0  0  0  0  0  0  0
    9.8309   -3.0361   24.8507 C   0  0  0  0  0  0  0  0  0  0  0  0
   11.0221   -4.3702   18.9656 C   0  0  0  0  0  0  0  0  0  0  0  0
    8.4817   -5.5894   16.4358 He  0  0  0  0  0  0  0  0  0  0  0  0
    6.8920   -8.8957   15.5999 He  0  0  0  0  0  0  0  0  0  0  0  0
    6.4145   -8.7357   14.8997 He  0  0  0  0  0  0  0  0  0  0  0  0
    4.9173   -6.9759   16.9051 He  0  0  0  0  0  0  0  0  0  0  0  0
    7.1230   -7.4213   16.9768 He  0  0  0  0  0  0  0  0  0  0  0  0
    8.4956   -6.6698   16.8810 He  0  0  0  0  0  0  0  0  0  0  0  0
  1  3  2  0
  1  6  1  0
  1  9  4  0
  1 11  4  0
  1 17  3  0
  1 20  3  0
  2  5  3  0
  2  8  3  0
  2 10  2  0
  2 15  2  0
  2 17  4  0
  3  5  3  0
  3  8  4  0
  3 10  1  0
  3 16  4  0
  4 14  1  0
  4 19  1  0
  5  9  4  0
  5 10  3  0
  5 11  4  0
  5 14  4  0
  5 16  1  0
  5 17  3  0
  5 20  4  0
  6 10  2  0
  6 13  3  0
  6 17  4  0
  6 19  4  0
  7 10  1  0
  7 13  1  0
  7 14  3  0
  7 15  3  0
  7 16  4  0
  7 20  1  0
  8 19  4  0
  8 20  4  0
  9 13  2  0
  9 18  4  0
 10 13  4  0
 10 15  4  0
 11 13  3  0
 11 14  4  0
 11 15  2  0
 12 15  3  0
 12 16  2  0
 12 19  3  0
 13 18  4  0
 13 19  1  0
 13 20  2  0
 14 15  2  0
 15 20  4  0
 18 20  4  0
M  END
$$$$

 Created by Python create_sdf_string function

 26 56  0  0  0  0  0  0  0  0999 V2000
   10.4769   -3.2473   22.6046 C   0  0  0  0  0  0  0  0  0  0  0  0
   10.0019   -4.7953   17.5666 O   0  0  0  0  0  0  0  0  0  0  0  0
    9.1777   -0.6426   25.8325 C   0  0  0  0  0  0  0  0  0  0  0  0
    6.1090   -8.9116   14.5399 C   0  0  0  0  0  0  0  0  0  0  0  0
    6.1230   -7.7113   17.5583 C   0  0  0  0  0  0  0  0  0  0  0  0
   10.2842   -3.2313   18.4089 N   0  0  0  0  0  0  0  0  0  0  0  0
   10.2475   -2.6162   23.9191 C   0  0  0  0  0  0  0  0  0  0  0  0
    5.8280   -8.4782   15.5380 N   0  0  0  0  0  0  0  0  0  0  0  0
   10.2310   -1.3270   23.2072 C   0  0  0  0  0  0  0  0  0  0  0  0
    9.6635   -2.3207   26.0481 C   0  0  0  0  0  0  0  0  0  0  0  0
   11.0458   -3.3094   21.6994 C   0  0  0  0  0  0  0  0  0  0  0  0
    9.4916   -6.7992   19.1550 N   0  0  0  0  0  0  0  0  0  0  0  0
    7.7027   -7.6521   15.5102 C   0  0  0  0  0  0  0  0  0  0  0  0
    5.7495   -7.4779   17.6732 C   0  0  0  0  0  0  0  0  0  0  0  0
    9.3355   -7.5126   19.2954 C   0  0  0  0  0  0  0  0  0  0  0  0
    7.3254   -6.9027   15.9960 C   0  0  0  0  0  0  0  0  0  0  0  0
   11.3067   -5.3709   21.5096 S   0  0  0  0  0  0  0  0  0  0  0  0
   11.4743   -5.3853   18.9618 C   0  0  0  0  0  0  0  0  0  0  0  0
    9.8612   -0.1836   24.4798 C   0  0  0  0  0  0  0  0  0  0  0  0
   10.6510   -3.7399   17.0193 N   0  0  0  0  0  0  0  0  0  0  0  0
   10.9528   -3.8704   20.8200 C   0  0  0  0  0  0  0  0  0  0  0  0
    8.6159   -6.4563   17.3892 C   0  0  0  0  0  0  0  0  0  0  0  0
   10.0036   -3.0641   25.1373 C   0  0  0  0  0  0  0  0  0  0  0  0
   10.9141   -4.2246   19.8213 C   0  0  0  0  0  0  0  0  0  0  0  0
   10.0877   -4.8889   16.3062 He  0  0  0  0  0  0  0  0  0  0  0  0
   10.7690   -4.4101   22.7963 He  0  0  0  0  0  0  0  0  0  0  0  0
  1  5  1  0
  1  7  1  0
  1 11  4  0
  1 15  1  0
  1 16  2  0
  1 24  1  0
  2 16  1  0
  2 18  4  0
  2 20  4  0
  3  4  4  0
  3  8  3  0
  3 10  4  0
  3 19  4  0
  4  8  4  0
  4 13  4  0
  5  9  1  0
  5 14  4  0
  5 23  3  0
  6 17  1  0
  6 18  3  0
  6 20  4  0
  6 24  4  0
  7 23  4  0
  7 24  4  0
  8 13  1  0
  8 14  4  0
  8 15  1  0
  8 18  1  0
  8 20  1  0
  9 19  4  0
 10 17  2  0
 10 23  4  0
 10 24  3  0
 11 15  1  0
 11 21  4  0
 12 15  4  0
 12 16  3  0
 12 19  1  0
 12 23  2  0
 12 24  3  0
 14 16  3  0
 14 17  1  0
 14 20  2  0
 14 21  3  0
 15 18  2  0
 15 21  1  0
 15 22  4  0
 16 18  4  0
 17 20  2  0
 17 21  4  0
 18 19  4  0
 18 24  4  0
 19 22  2  0
 21 23  2  0
 21 24  4  0
 22 24  4  0
M  END
$$$$

 Created by Python create_sdf_string function

 26 52  0  0  0  0  0  0  0  0999 V2000
   10.9661   -3.4305   22.4419 C   0  0  0  0  0  0  0  0  0  0  0  0
    9.0048   -5.7712   17.2704 C   0  0  0  0  0  0  0  0  0  0  0  0
   10.1200   -4.9093   17.4314 C   0  0  0  0  0  0  0  0  0  0  0  0
    9.1955   -0.6722   25.7001 C   0  0  0  0  0  0  0  0  0  0  0  0
    6.2777   -9.2498   15.1618 C   0  0  0  0  0  0  0  0  0  0  0  0
   11.6505   -2.6267   18.6219 N   0  0  0  0  0  0  0  0  0  0  0  0
   10.1705   -2.0944   23.8254 C   0  0  0  0  0  0  0  0  0  0  0  0
    5.2442   -9.0978   16.3341 F   0  0  0  0  0  0  0  0  0  0  0  0
   10.2336   -1.2658   23.6282 C   0  0  0  0  0  0  0  0  0  0  0  0
    9.4568   -2.1855   26.4221 Cl  0  0  0  0  0  0  0  0  0  0  0  0
   10.7012   -3.1938   21.6056 C   0  0  0  0  0  0  0  0  0  0  0  0
   11.1716   -4.3990   23.1753 N   0  0  0  0  0  0  0  0  0  0  0  0
    7.0488   -7.6529   15.4395 C   0  0  0  0  0  0  0  0  0  0  0  0
    6.0278   -8.5346   16.8065 C   0  0  0  0  0  0  0  0  0  0  0  0
    9.9682   -6.2869   18.3550 C   0  0  0  0  0  0  0  0  0  0  0  0
   11.2652   -5.1890   21.9626 O   0  0  0  0  0  0  0  0  0  0  0  0
   10.7436   -5.7119   18.7302 P   0  0  0  0  0  0  0  0  0  0  0  0
    9.7499   -0.0590   24.6301 C   0  0  0  0  0  0  0  0  0  0  0  0
   10.8290   -4.2171   20.9043 C   0  0  0  0  0  0  0  0  0  0  0  0
    8.5720   -6.7241   17.2947 C   0  0  0  0  0  0  0  0  0  0  0  0
    9.9098   -3.0149   25.1363 C   0  0  0  0  0  0  0  0  0  0  0  0
   11.0205   -4.2368   19.7431 C   0  0  0  0  0  0  0  0  0  0  0  0
    5.8719   -6.6183   17.6356 He  0  0  0  0  0  0  0  0  0  0  0  0
   10.3083   -6.5929   19.6474 He  0  0  0  0  0  0  0  0  0  0  0  0
    7.4756   -7.7555   16.5228 He  0  0  0  0  0  0  0  0  0  0  0  0
   11.0341   -3.9522   17.1873 He  0  0  0  0  0  0  0  0  0  0  0  0
  1  7  1  0
  1 11  4  0
  1 12  4  0
  1 13  1  0
  1 16  4  0
  1 17  1  0
  1 18  1  0
  2  3  4  0
  2  6  2  0
  2  7  4  0
  2  9  3  0
  2 16  2  0
  3  5  1  0
  3  6  3  0
  3 17  4  0
  3 22  3  0
  4 10  4  0
  4 18  4  0
  5 13  4  0
  5 14  3  0
  5 16  2  0
  6  7  4  0
  6  8  2  0
  6 10  3  0
  6 22  4  0
  7  9  4  0
  7 12  2  0
  7 14  4  0
  7 20  2  0
  7 21  4  0
  8 20  4  0
  9 15  3  0
 10 14  4  0
 10 21  4  0
 11 15  1  0
 11 19  4  0
 12 16  4  0
 12 21  4  0
 13 14  4  0
 13 15  3  0
 13 16  3  0
 13 20  1  0
 14 15  1  0
 15 17  3  0
 16 19  4  0
 17 18  4  0
 17 19  3  0
 17 21  3  0
 17 22  4  0
 18 21  2  0
 19 22  1  0
 21 22  1  0
M  END
$$$$

 Created by Python create_sdf_string function

 26 51  0  0  0  0  0  0  0  0999 V2000
   10.5183   -3.5181   22.8130 C   0  0  0  0  0  0  0  0  0  0  0  0
    9.0635   -5.9395   16.6916 C   0  0  0  0  0  0  0  0  0  0  0  0
   10.1249   -4.6748   17.3867 C   0  0  0  0  0  0  0  0  0  0  0  0
    9.0501   -0.5894   26.0530 C   0  0  0  0  0  0  0  0  0  0  0  0
    6.1090  -10.1695   15.0975 C   0  0  0  0  0  0  0  0  0  0  0  0
    6.3219   -7.6915   17.6369 C   0  0  0  0  0  0  0  0  0  0  0  0
   11.8216   -3.3468   17.6355 N   0  0  0  0  0  0  0  0  0  0  0  0
    5.7574   -9.5825   16.3485 C   0  0  0  0  0  0  0  0  0  0  0  0
   10.2888   -0.9330   23.5631 C   0  0  0  0  0  0  0  0  0  0  0  0
   10.8519   -2.9573   21.4500 C   0  0  0  0  0  0  0  0  0  0  0  0
   10.2486   -5.8786   19.5308 N   0  0  0  0  0  0  0  0  0  0  0  0
   11.3292   -5.0141   23.2050 N   0  0  0  0  0  0  0  0  0  0  0  0
    8.3478   -7.7207   15.5980 C   0  0  0  0  0  0  0  0  0  0  0  0
    4.8464   -8.6254   17.7781 C   0  0  0  0  0  0  0  0  0  0  0  0
    9.7512   -7.7501   18.4222 Cl  0  0  0  0  0  0  0  0  0  0  0  0
    7.0582   -7.5931   16.7677 C   0  0  0  0  0  0  0  0  0  0  0  0
   11.1017   -5.2616   21.9259 O   0  0  0  0  0  0  0  0  0  0  0  0
   11.3737   -5.1301   19.1111 F   0  0  0  0  0  0  0  0  0  0  0  0
    9.6292   -0.1921   24.8533 C   0  0  0  0  0  0  0  0  0  0  0  0
   10.9849   -4.2178   16.7379 N   0  0  0  0  0  0  0  0  0  0  0  0
   11.1699   -4.1431   20.7387 C   0  0  0  0  0  0  0  0  0  0  0  0
    8.9811   -6.7314   16.9583 C   0  0  0  0  0  0  0  0  0  0  0  0
   10.1140   -2.8219   25.1174 C   0  0  0  0  0  0  0  0  0  0  0  0
   10.7523   -4.3270   19.2943 C   0  0  0  0  0  0  0  0  0  0  0  0
   10.2571   -2.4208   24.1861 He  0  0  0  0  0  0  0  0  0  0  0  0
    9.4175   -1.6129   26.1122 He  0  0  0  0  0  0  0  0  0  0  0  0
  1  7  4  0
  1 10  4  0
  1 12  4  0
  1 19  4  0
  2  3  4  0
  2  6  2  0
  2  7  2  0
  2 22  4  0
  3 11  1  0
  3 18  4  0
  3 24  1  0
  4 15  4  0
  4 16  2  0
  4 20  1  0
  5  7  3  0
  5  8  4  0
  5  9  1  0
  5 10  1  0
  5 12  1  0
  5 16  2  0
  6 16  4  0
  6 22  4  0
  7  9  3  0
  7 12  2  0
  7 16  1  0
  7 17  1  0
  7 20  4  0
  8 12  1  0
  8 14  4  0
  8 15  3  0
  8 17  3  0
  8 18  3  0
  9 18  3  0
  9 19  4  0
 10 21  4  0
 11 13  3  0
 12 24  1  0
 13 16  1  0
 13 19  2  0
 13 20  3  0
 15 17  3  0
 15 18  3  0
 15 22  2  0
 16 22  1  0
 16 24  3  0
 17 19  4  0
 17 20  1  0
 17 21  4  0
 18 23  2  0
 20 21  3  0
 21 24  1  0
M  END
$$$$

 Created by Python create_sdf_string function

 26 56  0  0  0  0  0  0  0  0999 V2000
   10.4774   -3.1041   22.9703 C   0  0  0  0  0  0  0  0  0  0  0  0
    9.1299   -5.6103   16.2509 C   0  0  0  0  0  0  0  0  0  0  0  0
   10.2008   -5.0936   17.2977 C   0  0  0  0  0  0  0  0  0  0  0  0
    8.9608   -0.7376   25.8387 C   0  0  0  0  0  0  0  0  0  0  0  0
    6.2458   -9.0879   14.9245 C   0  0  0  0  0  0  0  0  0  0  0  0
    6.5909   -7.0323   17.8362 C   0  0  0  0  0  0  0  0  0  0  0  0
   11.4784   -3.5198   18.1603 N   0  0  0  0  0  0  0  0  0  0  0  0
   10.3788   -2.0226   24.0287 C   0  0  0  0  0  0  0  0  0  0  0  0
    6.2279   -9.5917   15.9802 C   0  0  0  0  0  0  0  0  0  0  0  0
   10.3945   -1.3333   23.6685 C   0  0  0  0  0  0  0  0  0  0  0  0
    9.6299   -2.0143   25.9569 N   0  0  0  0  0  0  0  0  0  0  0  0
   10.7439   -3.0675   21.4538 C   0  0  0  0  0  0  0  0  0  0  0  0
    9.6934   -6.3860   19.5918 N   0  0  0  0  0  0  0  0  0  0  0  0
    7.6420   -8.2489   15.8556 C   0  0  0  0  0  0  0  0  0  0  0  0
    5.5641   -8.1776   17.5184 C   0  0  0  0  0  0  0  0  0  0  0  0
   10.0605   -7.4780   18.0196 C   0  0  0  0  0  0  0  0  0  0  0  0
    6.8242   -7.0935   17.4043 C   0  0  0  0  0  0  0  0  0  0  0  0
   10.3753   -5.2049   18.7130 C   0  0  0  0  0  0  0  0  0  0  0  0
   10.4528   -3.7151   16.5062 N   0  0  0  0  0  0  0  0  0  0  0  0
   11.3159   -3.9582   20.8410 C   0  0  0  0  0  0  0  0  0  0  0  0
    8.5536   -7.1405   17.2039 N   0  0  0  0  0  0  0  0  0  0  0  0
   10.0055   -2.7667   25.0594 C   0  0  0  0  0  0  0  0  0  0  0  0
   11.0012   -3.8109   19.1176 C   0  0  0  0  0  0  0  0  0  0  0  0
   11.2197   -4.4279   22.8799 He  0  0  0  0  0  0  0  0  0  0  0  0
   11.2611   -5.3002   21.8889 He  0  0  0  0  0  0  0  0  0  0  0  0
    9.8019    0.0530   24.5029 He  0  0  0  0  0  0  0  0  0  0  0  0
  1 10  1  0
  1 12  4  0
  1 16  3  0
  2  3  4  0
  2  6  2  0
  2  7  2  0
  2  8  2  0
  2 10  3  0
  2 21  4  0
  3  7  1  0
  3 17  4  0
  3 18  4  0
  3 23  2  0
  4  5  4  0
  4 11  4  0
  4 19  4  0
  5  9  4  0
  5 10  2  0
  5 14  4  0
  5 17  1  0
  5 20  3  0
  6  8  3  0
  6 12  1  0
  6 15  3  0
  6 17  4  0
  6 23  3  0
  7 10  2  0
  7 17  4  0
  7 18  3  0
  7 19  3  0
  8 10  4  0
  9 15  4  0
 10 14  3  0
 10 19  4  0
 10 23  3  0
 11 14  2  0
 11 19  3  0
 11 22  4  0
 12 19  3  0
 12 20  4  0
 13 15  1  0
 13 16  4  0
 13 18  4  0
 13 21  3  0
 14 16  1  0
 14 17  4  0
 14 22  3  0
 15 16  1  0
 15 22  1  0
 16 20  2  0
 16 21  4  0
 17 21  1  0
 18 19  2  0
 18 23  4  0
 19 20  2  0
 20 23  1  0
M  END
$$$$

 Created by Python create_sdf_string function

 26 62  0  0  0  0  0  0  0  0999 V2000
   10.7257   -2.9457   22.8798 C   0  0  0  0  0  0  0  0  0  0  0  0
    9.3283   -5.7558   15.7227 C   0  0  0  0  0  0  0  0  0  0  0  0
   10.1589   -4.6638   17.0990 C   0  0  0  0  0  0  0  0  0  0  0  0
    9.1609   -0.2870   26.0594 C   0  0  0  0  0  0  0  0  0  0  0  0
    6.8467   -8.8032   16.1495 Cl  0  0  0  0  0  0  0  0  0  0  0  0
    6.4846   -7.9880   18.4665 N   0  0  0  0  0  0  0  0  0  0  0  0
   10.7978   -2.5443   18.7998 N   0  0  0  0  0  0  0  0  0  0  0  0
   10.5571   -2.1813   24.0411 C   0  0  0  0  0  0  0  0  0  0  0  0
   10.2375   -1.1271   23.6364 C   0  0  0  0  0  0  0  0  0  0  0  0
    9.4130   -2.4153   26.0408 N   0  0  0  0  0  0  0  0  0  0  0  0
   11.1092   -2.8968   21.2516 C   0  0  0  0  0  0  0  0  0  0  0  0
   10.3932   -6.6675   19.4724 N   0  0  0  0  0  0  0  0  0  0  0  0
   10.9379   -4.3631   22.8263 N   0  0  0  0  0  0  0  0  0  0  0  0
    5.1241   -8.9707   17.1159 C   0  0  0  0  0  0  0  0  0  0  0  0
   10.0663   -7.4924   17.9803 C   0  0  0  0  0  0  0  0  0  0  0  0
    7.7273   -7.4370   16.5355 C   0  0  0  0  0  0  0  0  0  0  0  0
   11.6642   -5.2194   21.7747 N   0  0  0  0  0  0  0  0  0  0  0  0
   10.5797   -5.5297   18.6146 C   0  0  0  0  0  0  0  0  0  0  0  0
    9.2845   -0.3230   24.9870 N   0  0  0  0  0  0  0  0  0  0  0  0
   10.4931   -3.9663   16.8919 C   0  0  0  0  0  0  0  0  0  0  0  0
   10.8485   -3.7128   20.6624 C   0  0  0  0  0  0  0  0  0  0  0  0
    8.9301   -6.9075   17.4278 C   0  0  0  0  0  0  0  0  0  0  0  0
    9.9245   -2.7203   25.1584 C   0  0  0  0  0  0  0  0  0  0  0  0
   10.6404   -3.8811   19.7281 C   0  0  0  0  0  0  0  0  0  0  0  0
    5.1181   -8.7488   15.5909 He  0  0  0  0  0  0  0  0  0  0  0  0
    7.6411   -8.5532   15.3408 He  0  0  0  0  0  0  0  0  0  0  0  0
  1  8  1  0
  1 11  4  0
  1 13  4  0
  1 18  4  0
  1 19  1  0
  2  3  4  0
  2 21  2  0
  2 22  1  0
  2 23  2  0
  3  4  2  0
  3  6  1  0
  3  9  2  0
  3 18  4  0
  3 19  1  0
  3 23  2  0
  4  7  3  0
  4 10  4  0
  4 12  1  0
  4 14  3  0
  4 15  3  0
  4 17  3  0
  4 19  4  0
  5 19  4  0
  5 22  3  0
  6 15  3  0
  6 16  4  0
  6 18  1  0
  7 14  4  0
  7 17  4  0
  7 19  3  0
  7 20  4  0
  8  9  4  0
  8 14  1  0
  8 23  2  0
  9 12  4  0
  9 16  1  0
  9 19  4  0
 10 16  4  0
 11 18  4  0
 11 19  2  0
 11 21  4  0
 11 23  2  0
 12 14  4  0
 12 15  4  0
 12 16  1  0
 12 17  2  0
 12 19  2  0
 12 22  4  0
 13 17  4  0
 13 18  2  0
 16 20  1  0
 16 22  2  0
 16 23  1  0
 17 21  4  0
 17 24  1  0
 18 22  4  0
 18 24  2  0
 19 22  2  0
 20 21  4  0
 20 22  4  0
 20 23  3  0
 21 24  1  0
M  END
$$$$

 Created by Python create_sdf_string function

 26 40  0  0  0  0  0  0  0  0999 V2000
   10.7479   -2.9576   22.7262 C   0  0  0  0  0  0  0  0  0  0  0  0
   10.0118   -5.0941   17.5269 C   0  0  0  0  0  0  0  0  0  0  0  0
    9.1143   -0.4655   25.9877 C   0  0  0  0  0  0  0  0  0  0  0  0
    6.3254   -8.4905   14.9326 C   0  0  0  0  0  0  0  0  0  0  0  0
    6.8439   -8.3578   17.6859 C   0  0  0  0  0  0  0  0  0  0  0  0
   11.5175   -3.0263   18.6199 N   0  0  0  0  0  0  0  0  0  0  0  0
   10.3198   -2.4289   24.0431 C   0  0  0  0  0  0  0  0  0  0  0  0
    9.7951   -0.9481   23.6799 C   0  0  0  0  0  0  0  0  0  0  0  0
    9.3901   -1.8994   26.3464 N   0  0  0  0  0  0  0  0  0  0  0  0
   10.8164   -2.9407   21.4058 C   0  0  0  0  0  0  0  0  0  0  0  0
   10.8142   -7.0646   18.5136 N   0  0  0  0  0  0  0  0  0  0  0  0
   11.1480   -4.4597   23.0501 N   0  0  0  0  0  0  0  0  0  0  0  0
    7.7851   -8.6649   15.2589 C   0  0  0  0  0  0  0  0  0  0  0  0
    4.9853   -8.6975   18.2911 Cl  0  0  0  0  0  0  0  0  0  0  0  0
    9.7512   -6.9004   18.5968 C   0  0  0  0  0  0  0  0  0  0  0  0
   11.3732   -4.8818   21.8306 N   0  0  0  0  0  0  0  0  0  0  0  0
   10.2127   -5.3244   17.9053 C   0  0  0  0  0  0  0  0  0  0  0  0
    9.5066    0.1290   24.5963 C   0  0  0  0  0  0  0  0  0  0  0  0
   10.5265   -4.1066   17.6898 N   0  0  0  0  0  0  0  0  0  0  0  0
    8.8538   -7.0031   17.2067 C   0  0  0  0  0  0  0  0  0  0  0  0
   10.1285   -2.7943   25.0396 C   0  0  0  0  0  0  0  0  0  0  0  0
   10.6072   -4.9865   18.7421 C   0  0  0  0  0  0  0  0  0  0  0  0
    9.1205   -5.7680   16.3192 He  0  0  0  0  0  0  0  0  0  0  0  0
    5.7240   -8.4163   15.7203 He  0  0  0  0  0  0  0  0  0  0  0  0
    7.4299   -7.8681   17.1879 He  0  0  0  0  0  0  0  0  0  0  0  0
   10.8013   -3.9086   20.8458 He  0  0  0  0  0  0  0  0  0  0  0  0
  1  3  4  0
  1  7  1  0
  1 10  4  0
  1 12  4  0
  1 13  1  0
  1 15  1  0
  1 17  3  0
  2  5  3  0
  2 13  1  0
  2 17  2  0
  2 19  4  0
  2 21  1  0
  3  9  4  0
  3 18  4  0
  3 20  3  0
  4 13  4  0
  4 17  2  0
  5 14  4  0
  5 22  1  0
  6  8  4  0
  6 22  4  0
  7 17  1  0
  7 18  3  0
  7 21  4  0
  8 18  4  0
  9 19  3  0
  9 21  4  0
 10 17  1  0
 11 15  4  0
 11 17  3  0
 12 16  4  0
 12 18  3  0
 14 17  2  0
 14 21  3  0
 15 19  3  0
 15 20  4  0
 17 19  2  0
 17 21  1  0
 17 22  4  0
 21 22  3  0
M  END
$$$$

 Created by Python create_sdf_string function

 26 32  0  0  0  0  0  0  0  0999 V2000
   10.7134   -2.9682   22.9938 C   0  0  0  0  0  0  0  0  0  0  0  0
    9.3379   -5.2921   16.6545 C   0  0  0  0  0  0  0  0  0  0  0  0
    9.8869   -4.9018   17.3182 C   0  0  0  0  0  0  0  0  0  0  0  0
    9.3336   -0.4921   25.7347 C   0  0  0  0  0  0  0  0  0  0  0  0
    6.0502   -9.3647   15.8603 C   0  0  0  0  0  0  0  0  0  0  0  0
    6.6420   -7.8616   17.7820 P   0  0  0  0  0  0  0  0  0  0  0  0
   11.2283   -3.0095   19.2758 N   0  0  0  0  0  0  0  0  0  0  0  0
   10.2168   -1.7972   24.1176 C   0  0  0  0  0  0  0  0  0  0  0  0
    5.5322   -8.9204   16.4317 C   0  0  0  0  0  0  0  0  0  0  0  0
    9.8246   -1.1442   23.4686 C   0  0  0  0  0  0  0  0  0  0  0  0
    9.6391   -1.9441   26.1504 N   0  0  0  0  0  0  0  0  0  0  0  0
   10.7118   -6.9076   18.8407 F   0  0  0  0  0  0  0  0  0  0  0  0
   11.0420   -4.5395   23.2657 N   0  0  0  0  0  0  0  0  0  0  0  0
    5.6182   -8.4139   17.7464 C   0  0  0  0  0  0  0  0  0  0  0  0
   11.0137   -4.6505   21.6838 N   0  0  0  0  0  0  0  0  0  0  0  0
    9.4455    0.0235   24.5147 C   0  0  0  0  0  0  0  0  0  0  0  0
   10.9503   -3.8932   20.9604 C   0  0  0  0  0  0  0  0  0  0  0  0
    8.8245   -6.8683   17.6473 C   0  0  0  0  0  0  0  0  0  0  0  0
   10.1842   -2.9036   24.9765 C   0  0  0  0  0  0  0  0  0  0  0  0
   10.9792   -2.9073   21.4938 He  0  0  0  0  0  0  0  0  0  0  0  0
    8.0596   -8.0936   15.5294 He  0  0  0  0  0  0  0  0  0  0  0  0
    9.9110   -7.3396   18.3939 He  0  0  0  0  0  0  0  0  0  0  0  0
    7.5159   -7.3521   16.9577 He  0  0  0  0  0  0  0  0  0  0  0  0
   10.7130   -5.1882   19.1850 He  0  0  0  0  0  0  0  0  0  0  0  0
   10.2802   -3.5878   16.8407 He  0  0  0  0  0  0  0  0  0  0  0  0
   11.0001   -4.4506   18.5011 He  0  0  0  0  0  0  0  0  0  0  0  0
  1  2  3  0
  1  3  4  0
  1  8  1  0
  1 12  3  0
  1 13  2  0
  2  3  4  0
  2 10  1  0
  2 12  3  0
  2 18  4  0
  3 13  2  0
  4  5  1  0
  4  6  2  0
  4  9  3  0
  4 11  4  0
  4 15  4  0
  4 16  4  0
  5  7  2  0
  5  9  2  0
  6  8  3  0
  6 17  1  0
  8 10  4  0
  8 14  4  0
  8 19  4  0
  9 14  4  0
  9 17  1  0
 10 12  2  0
 10 16  4  0
 11 18  4  0
 11 19  4  0
 12 16  2  0
 13 15  4  0
 15 17  4  0
M  END
$$$$

 Created by Python create_sdf_string function

 26 50  0  0  0  0  0  0  0  0999 V2000
   10.8352   -2.5871   22.8899 C   0  0  0  0  0  0  0  0  0  0  0  0
    8.8352   -5.4854   17.1346 C   0  0  0  0  0  0  0  0  0  0  0  0
   10.1587   -4.9410   17.5742 C   0  0  0  0  0  0  0  0  0  0  0  0
    9.2556   -0.5086   25.8930 C   0  0  0  0  0  0  0  0  0  0  0  0
    5.9923   -8.4671   15.8803 C   0  0  0  0  0  0  0  0  0  0  0  0
    6.6663   -7.6277   18.3909 C   0  0  0  0  0  0  0  0  0  0  0  0
   10.3912   -2.9454   18.2709 N   0  0  0  0  0  0  0  0  0  0  0  0
   10.3425   -2.2279   23.9986 C   0  0  0  0  0  0  0  0  0  0  0  0
    5.5259   -8.9834   16.9428 C   0  0  0  0  0  0  0  0  0  0  0  0
   10.0264   -0.9856   23.6838 C   0  0  0  0  0  0  0  0  0  0  0  0
    9.5692   -1.8123   26.3730 N   0  0  0  0  0  0  0  0  0  0  0  0
   10.7263   -3.2411   21.6281 N   0  0  0  0  0  0  0  0  0  0  0  0
   10.6103   -6.1505   18.7733 C   0  0  0  0  0  0  0  0  0  0  0  0
   10.7297   -4.2689   23.1790 N   0  0  0  0  0  0  0  0  0  0  0  0
    5.1462   -8.7461   17.4291 C   0  0  0  0  0  0  0  0  0  0  0  0
    9.8119   -7.6816   18.0992 O   0  0  0  0  0  0  0  0  0  0  0  0
    8.1770   -7.2996   17.3036 C   0  0  0  0  0  0  0  0  0  0  0  0
   10.9925   -4.7256   21.9979 N   0  0  0  0  0  0  0  0  0  0  0  0
    9.2485   -0.1377   24.6276 C   0  0  0  0  0  0  0  0  0  0  0  0
   10.5815   -3.6570   17.2747 Se  0  0  0  0  0  0  0  0  0  0  0  0
   11.1686   -4.0248   21.0814 Cl  0  0  0  0  0  0  0  0  0  0  0  0
   10.1286   -2.4318   25.1946 C   0  0  0  0  0  0  0  0  0  0  0  0
   10.5985   -4.0699   19.8137 C   0  0  0  0  0  0  0  0  0  0  0  0
    7.9854   -7.9180   16.2227 He  0  0  0  0  0  0  0  0  0  0  0  0
   10.7847   -6.0068   18.5152 He  0  0  0  0  0  0  0  0  0  0  0  0
    8.5553   -6.9900   17.5072 He  0  0  0  0  0  0  0  0  0  0  0  0
  1  8  1  0
  1 10  3  0
  1 12  4  0
  1 14  4  0
  1 15  4  0
  2  7  1  0
  2  9  1  0
  2 13  4  0
  3  5  1  0
  3 10  1  0
  3 20  1  0
  3 22  2  0
  4 11  4  0
  4 13  1  0
  4 16  2  0
  4 19  4  0
  5  7  2  0
  5  9  4  0
  5 13  2  0
  6 15  4  0
  6 17  4  0
  6 18  4  0
  6 19  1  0
  6 21  4  0
  7  9  2  0
  7 16  1  0
  8  9  2  0
  8 10  4  0
  8 22  4  0
  9 10  3  0
  9 15  4  0
  9 17  4  0
  9 23  4  0
 10 15  1  0
 10 19  4  0
 11 22  4  0
 12 21  4  0
 12 23  4  0
 13 15  3  0
 13 16  4  0
 14 18  4  0
 15 21  2  0
 16 20  1  0
 17 22  3  0
 18 22  4  0
 18 23  3  0
 19 21  2  0
 20 23  2  0
 21 23  1  0
 22 23  4  0
M  END
$$$$

 Created by Python create_sdf_string function

 26 58  0  0  0  0  0  0  0  0999 V2000
   10.7587   -3.0750   23.1126 C   0  0  0  0  0  0  0  0  0  0  0  0
    9.5313   -5.6668   17.0443 O   0  0  0  0  0  0  0  0  0  0  0  0
    9.9353   -4.6326   17.6823 C   0  0  0  0  0  0  0  0  0  0  0  0
    9.0317   -0.5844   25.8761 C   0  0  0  0  0  0  0  0  0  0  0  0
    6.4424   -9.0949   15.5432 I   0  0  0  0  0  0  0  0  0  0  0  0
    6.8298   -7.8979   18.0169 C   0  0  0  0  0  0  0  0  0  0  0  0
   10.5043   -2.3364   18.3357 N   0  0  0  0  0  0  0  0  0  0  0  0
   10.2640   -2.1917   23.6997 C   0  0  0  0  0  0  0  0  0  0  0  0
    5.5457   -8.9197   16.4510 C   0  0  0  0  0  0  0  0  0  0  0  0
    9.7536   -0.8723   23.6791 C   0  0  0  0  0  0  0  0  0  0  0  0
    9.4255   -1.9320   26.3702 N   0  0  0  0  0  0  0  0  0  0  0  0
   10.7600   -2.5776   21.4456 N   0  0  0  0  0  0  0  0  0  0  0  0
   10.0709   -6.8251   18.4754 C   0  0  0  0  0  0  0  0  0  0  0  0
   10.9961   -4.1833   23.0245 N   0  0  0  0  0  0  0  0  0  0  0  0
    7.3498   -8.0627   16.2387 C   0  0  0  0  0  0  0  0  0  0  0  0
    5.4545   -8.8163   18.0021 C   0  0  0  0  0  0  0  0  0  0  0  0
    9.7253   -7.4993   17.8514 C   0  0  0  0  0  0  0  0  0  0  0  0
    8.1331   -7.3872   16.8922 C   0  0  0  0  0  0  0  0  0  0  0  0
   11.0686   -5.1470   21.7223 N   0  0  0  0  0  0  0  0  0  0  0  0
   10.9594   -5.4066   18.9896 C   0  0  0  0  0  0  0  0  0  0  0  0
    9.4391   -0.4222   24.4011 C   0  0  0  0  0  0  0  0  0  0  0  0
   10.9979   -4.0881   21.0193 C   0  0  0  0  0  0  0  0  0  0  0  0
    8.6838   -6.7431   17.5703 C   0  0  0  0  0  0  0  0  0  0  0  0
   10.4639   -2.5068   25.1858 C   0  0  0  0  0  0  0  0  0  0  0  0
   10.3227   -4.1717   17.8032 He  0  0  0  0  0  0  0  0  0  0  0  0
   11.0406   -4.3155   19.4532 He  0  0  0  0  0  0  0  0  0  0  0  0
  1  2  1  0
  1  7  4  0
  1  8  1  0
  1  9  1  0
  1 16  2  0
  2  3  1  0
  2  8  1  0
  2  9  1  0
  2 16  3  0
  2 19  4  0
  2 23  4  0
  3  5  1  0
  3 12  1  0
  4  9  1  0
  4 11  4  0
  4 12  2  0
  4 19  4  0
  4 20  4  0
  4 21  4  0
  4 24  1  0
  5  9  2  0
  5 10  1  0
  5 11  2  0
  5 15  4  0
  5 17  1  0
  5 21  1  0
  6 11  2  0
  6 15  1  0
  6 16  4  0
  6 18  4  0
  7 18  3  0
  7 21  1  0
  8 10  4  0
  8 11  3  0
  8 24  4  0
  9 11  1  0
  9 16  4  0
 10 13  4  0
 10 18  2  0
 10 21  4  0
 10 24  4  0
 11 16  2  0
 11 17  2  0
 11 20  4  0
 11 22  2  0
 11 24  4  0
 12 22  4  0
 13 20  4  0
 14 19  4  0
 15 18  4  0
 15 21  2  0
 16 23  1  0
 17 21  2  0
 17 23  4  0
 18 21  2  0
 18 23  1  0
 19 22  4  0
 20 22  3  0
M  END
$$$$

 Created by Python create_sdf_string function

 26 40  0  0  0  0  0  0  0  0999 V2000
   10.6406   -3.0713   22.8147 O   0  0  0  0  0  0  0  0  0  0  0  0
    9.0935   -5.5396   17.3147 C   0  0  0  0  0  0  0  0  0  0  0  0
    9.9516   -4.6802   17.6632 C   0  0  0  0  0  0  0  0  0  0  0  0
    9.2952   -0.7520   25.6984 C   0  0  0  0  0  0  0  0  0  0  0  0
    6.2471   -8.9700   16.2872 O   0  0  0  0  0  0  0  0  0  0  0  0
   10.7702   -3.1247   18.5466 N   0  0  0  0  0  0  0  0  0  0  0  0
   10.2414   -2.3424   24.2680 C   0  0  0  0  0  0  0  0  0  0  0  0
    5.6331   -9.1587   16.4525 C   0  0  0  0  0  0  0  0  0  0  0  0
    9.7313   -0.8007   23.3731 C   0  0  0  0  0  0  0  0  0  0  0  0
    9.6772   -2.0817   25.8748 N   0  0  0  0  0  0  0  0  0  0  0  0
   10.5726   -2.6802   21.5390 N   0  0  0  0  0  0  0  0  0  0  0  0
   11.0867   -4.4229   23.1017 N   0  0  0  0  0  0  0  0  0  0  0  0
    5.6402   -8.4516   17.7813 C   0  0  0  0  0  0  0  0  0  0  0  0
    9.8351   -7.3715   18.1266 C   0  0  0  0  0  0  0  0  0  0  0  0
    7.1834   -7.4549   16.7911 Br  0  0  0  0  0  0  0  0  0  0  0  0
   11.2153   -5.1980   21.9412 N   0  0  0  0  0  0  0  0  0  0  0  0
   10.6567   -5.0588   18.5934 C   0  0  0  0  0  0  0  0  0  0  0  0
    9.3686   -0.1926   24.6003 P   0  0  0  0  0  0  0  0  0  0  0  0
   11.0858   -3.8980   21.0871 C   0  0  0  0  0  0  0  0  0  0  0  0
    8.8492   -6.9657   17.6132 C   0  0  0  0  0  0  0  0  0  0  0  0
   10.3615   -2.7401   25.1872 C   0  0  0  0  0  0  0  0  0  0  0  0
   10.6226   -4.2114   19.2097 C   0  0  0  0  0  0  0  0  0  0  0  0
    6.5333   -7.6735   18.3486 He  0  0  0  0  0  0  0  0  0  0  0  0
   10.3996   -6.7012   19.2114 He  0  0  0  0  0  0  0  0  0  0  0  0
    7.2540   -8.1509   15.5232 He  0  0  0  0  0  0  0  0  0  0  0  0
   10.3347   -4.0601   17.5193 He  0  0  0  0  0  0  0  0  0  0  0  0
  1  7  1  0
  1 11  4  0
  1 12  4  0
  1 21  2  0
  2  3  4  0
  2 10  1  0
  2 20  4  0
  3  6  3  0
  3 15  2  0
  3 17  4  0
  4  9  4  0
  4 10  4  0
  4 13  3  0
  4 18  4  0
  5  8  4  0
  5 11  2  0
  6 18  1  0
  6 22  4  0
  7  9  1  0
  7 13  3  0
  7 21  4  0
  8 13  4  0
  8 18  2  0
  8 20  4  0
  9 18  4  0
 10 21  4  0
 11 19  4  0
 12 16  4  0
 12 20  3  0
 13 17  1  0
 13 22  1  0
 14 16  2  0
 15 19  4  0
 15 20  3  0
 16 19  4  0
 16 20  2  0
 17 19  4  0
 18 21  4  0
 18 22  3  0
 19 22  1  0
M  END
$$$$

 Created by Python create_sdf_string function

 26 49  0  0  0  0  0  0  0  0999 V2000
   10.4829   -3.3938   22.9052 C   0  0  0  0  0  0  0  0  0  0  0  0
    9.7808   -4.6458   17.4967 C   0  0  0  0  0  0  0  0  0  0  0  0
    9.4613   -0.8820   26.0030 C   0  0  0  0  0  0  0  0  0  0  0  0
    6.6339   -8.8877   15.4618 N   0  0  0  0  0  0  0  0  0  0  0  0
    6.4021   -6.9878   17.4468 N   0  0  0  0  0  0  0  0  0  0  0  0
   10.5727   -3.3217   18.7223 N   0  0  0  0  0  0  0  0  0  0  0  0
   10.2091   -2.1478   23.9130 C   0  0  0  0  0  0  0  0  0  0  0  0
    9.7493   -1.2330   23.6755 C   0  0  0  0  0  0  0  0  0  0  0  0
    9.5770   -2.1197   26.3342 N   0  0  0  0  0  0  0  0  0  0  0  0
   10.9151   -2.7741   21.6186 N   0  0  0  0  0  0  0  0  0  0  0  0
   10.9548   -6.5179   19.3213 C   0  0  0  0  0  0  0  0  0  0  0  0
   10.6125   -4.3008   23.0778 N   0  0  0  0  0  0  0  0  0  0  0  0
    7.5249   -7.9746   16.2138 C   0  0  0  0  0  0  0  0  0  0  0  0
    5.7434   -8.7330   17.2418 C   0  0  0  0  0  0  0  0  0  0  0  0
    9.1707   -7.9476   19.0064 O   0  0  0  0  0  0  0  0  0  0  0  0
    7.8049   -8.0985   17.3507 C   0  0  0  0  0  0  0  0  0  0  0  0
   11.2525   -5.0204   21.8336 N   0  0  0  0  0  0  0  0  0  0  0  0
   10.5700   -5.6173   18.6861 C   0  0  0  0  0  0  0  0  0  0  0  0
    9.1968   -0.2513   24.6096 N   0  0  0  0  0  0  0  0  0  0  0  0
   10.5607   -3.6464   17.5532 N   0  0  0  0  0  0  0  0  0  0  0  0
   10.8054   -3.9782   20.8270 C   0  0  0  0  0  0  0  0  0  0  0  0
    8.4621   -7.1731   17.2547 C   0  0  0  0  0  0  0  0  0  0  0  0
   10.3203   -2.9600   25.1201 C   0  0  0  0  0  0  0  0  0  0  0  0
   11.0109   -3.5725   19.6131 C   0  0  0  0  0  0  0  0  0  0  0  0
    8.6989   -5.4689   17.1328 He  0  0  0  0  0  0  0  0  0  0  0  0
    5.6194   -8.7773   16.2406 He  0  0  0  0  0  0  0  0  0  0  0  0
  1  7  1  0
  1 10  3  0
  1 12  4  0
  1 16  3  0
  2  9  3  0
  2 17  2  0
  2 18  4  0
  2 20  4  0
  3  4  3  0
  3 19  4  0
  4  5  1  0
  4  9  1  0
  4 10  1  0
  4 13  4  0
  4 22  1  0
  5 12  2  0
  5 14  4  0
  5 16  4  0
  6  9  4  0
  6 20  4  0
  6 22  4  0
  6 24  4  0
  7  8  4  0
  7 11  1  0
  8 16  1  0
  8 19  4  0
  8 24  1  0
  9 12  3  0
  9 23  4  0
 10 11  1  0
 10 12  1  0
 10 19  3  0
 11 15  4  0
 11 18  4  0
 12 17  4  0
 13 16  4  0
 13 18  1  0
 14 15  3  0
 14 18  2  0
 14 21  3  0
 15 22  4  0
 15 23  4  0
 16 20  2  0
 16 22  1  0
 16 24  2  0
 17 21  4  0
 18 24  4  0
 20 23  3  0
 22 23  1  0
M  END
$$$$

 Created by Python create_sdf_string function

 26 48  0  0  0  0  0  0  0  0999 V2000
   10.3733   -3.2698   22.8350 C   0  0  0  0  0  0  0  0  0  0  0  0
    9.0645   -5.9103   17.0711 C   0  0  0  0  0  0  0  0  0  0  0  0
    9.4057   -0.3545   25.9334 C   0  0  0  0  0  0  0  0  0  0  0  0
    6.7502   -8.5731   15.4595 N   0  0  0  0  0  0  0  0  0  0  0  0
    6.6074   -7.4770   17.6765 N   0  0  0  0  0  0  0  0  0  0  0  0
   10.6364   -3.4893   18.4885 N   0  0  0  0  0  0  0  0  0  0  0  0
    4.8568   -9.1851   16.2764 C   0  0  0  0  0  0  0  0  0  0  0  0
    9.6671   -2.2491   26.4375 N   0  0  0  0  0  0  0  0  0  0  0  0
   10.7525   -2.8962   21.5710 N   0  0  0  0  0  0  0  0  0  0  0  0
   10.3801   -6.1543   18.8977 C   0  0  0  0  0  0  0  0  0  0  0  0
   10.9866   -4.5894   23.1048 N   0  0  0  0  0  0  0  0  0  0  0  0
    8.1088   -8.1060   15.9540 C   0  0  0  0  0  0  0  0  0  0  0  0
    4.9654   -7.6529   16.8493 C   0  0  0  0  0  0  0  0  0  0  0  0
    9.6480   -7.3681   18.8990 C   0  0  0  0  0  0  0  0  0  0  0  0
    7.4416   -7.8238   17.0910 C   0  0  0  0  0  0  0  0  0  0  0  0
   11.0222   -5.1775   21.7230 N   0  0  0  0  0  0  0  0  0  0  0  0
   10.1278   -4.9711   19.0105 C   0  0  0  0  0  0  0  0  0  0  0  0
    9.3154   -0.4364   25.2572 N   0  0  0  0  0  0  0  0  0  0  0  0
   10.4181   -3.5517   17.4365 N   0  0  0  0  0  0  0  0  0  0  0  0
   10.8797   -3.8793   21.0056 C   0  0  0  0  0  0  0  0  0  0  0  0
    8.6627   -6.7355   17.5150 C   0  0  0  0  0  0  0  0  0  0  0  0
   10.0787   -2.5970   25.2200 C   0  0  0  0  0  0  0  0  0  0  0  0
   10.9669   -4.3378   19.9855 C   0  0  0  0  0  0  0  0  0  0  0  0
    9.8810   -4.6476   17.9519 He  0  0  0  0  0  0  0  0  0  0  0  0
   10.3814   -2.4306   23.9011 He  0  0  0  0  0  0  0  0  0  0  0  0
    9.6361   -0.9642   23.8397 He  0  0  0  0  0  0  0  0  0  0  0  0
  1  9  4  0
  1 11  4  0
  1 13  3  0
  1 21  1  0
  2 11  1  0
  2 16  4  0
  2 21  4  0
  3  8  4  0
  3 18  4  0
  4  7  4  0
  4 11  2  0
  4 12  4  0
  5 12  1  0
  5 13  4  0
  5 15  4  0
  5 16  4  0
  6 11  1  0
  6 12  3  0
  6 16  4  0
  6 19  4  0
  6 23  4  0
  7  9  3  0
  7 11  2  0
  7 13  4  0
  7 19  4  0
  7 23  3  0
  8 22  4  0
  9 15  2  0
  9 20  4  0
 10 14  4  0
 10 17  4  0
 10 19  3  0
 10 22  3  0
 11 22  4  0
 12 15  4  0
 12 18  1  0
 13 15  2  0
 14 15  3  0
 14 20  1  0
 14 21  1  0
 15 17  3  0
 15 21  1  0
 16 20  4  0
 16 23  3  0
 17 19  3  0
 17 20  1  0
 17 23  4  0
 20 23  3  0
M  END
$$$$

 Created by Python create_sdf_string function

 26 37  0  0  0  0  0  0  0  0999 V2000
   10.5227   -2.9829   23.0869 C   0  0  0  0  0  0  0  0  0  0  0  0
    8.8194   -5.6191   16.8880 C   0  0  0  0  0  0  0  0  0  0  0  0
    9.7021   -4.9155   17.7157 C   0  0  0  0  0  0  0  0  0  0  0  0
    6.3033   -8.5848   15.2425 N   0  0  0  0  0  0  0  0  0  0  0  0
    6.7676   -7.3222   17.7277 N   0  0  0  0  0  0  0  0  0  0  0  0
   10.5890   -3.4443   18.3355 N   0  0  0  0  0  0  0  0  0  0  0  0
   10.0384   -2.2361   24.4580 C   0  0  0  0  0  0  0  0  0  0  0  0
    9.7605   -1.0307   23.8519 C   0  0  0  0  0  0  0  0  0  0  0  0
   10.5102   -2.8828   21.4468 N   0  0  0  0  0  0  0  0  0  0  0  0
   10.1074   -6.1752   19.5903 C   0  0  0  0  0  0  0  0  0  0  0  0
   10.8717   -4.4077   23.0301 N   0  0  0  0  0  0  0  0  0  0  0  0
    7.7988   -8.1927   15.6650 C   0  0  0  0  0  0  0  0  0  0  0  0
    4.8091   -8.0700   17.3114 C   0  0  0  0  0  0  0  0  0  0  0  0
   11.3391   -4.8992   21.7523 N   0  0  0  0  0  0  0  0  0  0  0  0
   10.6973   -5.0791   19.3119 C   0  0  0  0  0  0  0  0  0  0  0  0
    9.2762    0.0309   25.1607 N   0  0  0  0  0  0  0  0  0  0  0  0
   10.0281   -3.3774   17.3997 N   0  0  0  0  0  0  0  0  0  0  0  0
   11.0107   -3.8941   21.0460 C   0  0  0  0  0  0  0  0  0  0  0  0
    8.7323   -6.9055   17.4374 C   0  0  0  0  0  0  0  0  0  0  0  0
   11.4082   -3.8924   19.7238 C   0  0  0  0  0  0  0  0  0  0  0  0
    9.4178   -0.8113   26.0438 He  0  0  0  0  0  0  0  0  0  0  0  0
    5.3264   -8.5880   15.7216 He  0  0  0  0  0  0  0  0  0  0  0  0
    9.9701   -2.0471   26.3611 He  0  0  0  0  0  0  0  0  0  0  0  0
    9.9415   -7.5498   18.5420 He  0  0  0  0  0  0  0  0  0  0  0  0
    7.5999   -6.9556   17.0238 He  0  0  0  0  0  0  0  0  0  0  0  0
   10.1156   -2.7798   25.5363 He  0  0  0  0  0  0  0  0  0  0  0  0
  1  6  1  0
  1  7  1  0
  1  9  4  0
  1 11  4  0
  1 14  2  0
  1 16  4  0
  2  3  4  0
  2  6  2  0
  2 19  4  0
  3 10  1  0
  3 15  4  0
  3 17  4  0
  4 12  4  0
  4 16  4  0
  4 19  4  0
  5 13  4  0
  5 20  1  0
  6  7  3  0
  6 10  1  0
  6 13  3  0
  6 20  4  0
  7  8  4  0
  7  9  4  0
  7 15  4  0
  8 10  3  0
  8 16  3  0
  9 18  4  0
  9 20  1  0
 10 15  4  0
 11 14  4  0
 12 15  2  0
 14 18  4  0
 15 17  2  0
 15 18  1  0
 15 19  2  0
 15 20  4  0
 18 20  2  0
M  END
$$$$

 Created by Python create_sdf_string function

 26 36  0  0  0  0  0  0  0  0999 V2000
   10.6269   -2.9303   23.0413 C   0  0  0  0  0  0  0  0  0  0  0  0
    8.9643   -5.4759   17.1134 C   0  0  0  0  0  0  0  0  0  0  0  0
   10.0812   -4.8783   17.6809 C   0  0  0  0  0  0  0  0  0  0  0  0
    6.5358   -8.6695   15.3050 N   0  0  0  0  0  0  0  0  0  0  0  0
    6.5781   -7.4099   17.6993 N   0  0  0  0  0  0  0  0  0  0  0  0
   10.4062   -3.5190   18.8596 F   0  0  0  0  0  0  0  0  0  0  0  0
   10.2352   -2.2072   24.0397 C   0  0  0  0  0  0  0  0  0  0  0  0
    9.8757   -1.0630   23.7612 C   0  0  0  0  0  0  0  0  0  0  0  0
    9.9651   -2.0771   26.5560 C   0  0  0  0  0  0  0  0  0  0  0  0
   10.9137   -4.4508   23.1038 N   0  0  0  0  0  0  0  0  0  0  0  0
    7.9094   -7.9582   15.9393 C   0  0  0  0  0  0  0  0  0  0  0  0
    5.3869   -7.8693   17.3545 C   0  0  0  0  0  0  0  0  0  0  0  0
    9.4494   -7.1277   18.7203 C   0  0  0  0  0  0  0  0  0  0  0  0
    7.7629   -7.4233   17.0076 C   0  0  0  0  0  0  0  0  0  0  0  0
   11.2990   -4.9284   21.7924 N   0  0  0  0  0  0  0  0  0  0  0  0
   10.3476   -4.3244   19.1428 O   0  0  0  0  0  0  0  0  0  0  0  0
    9.3711   -0.5359   24.8970 N   0  0  0  0  0  0  0  0  0  0  0  0
   10.2204   -3.9793   17.1173 N   0  0  0  0  0  0  0  0  0  0  0  0
   10.9162   -3.6466   20.9805 O   0  0  0  0  0  0  0  0  0  0  0  0
    8.6318   -6.6195   17.3955 C   0  0  0  0  0  0  0  0  0  0  0  0
   10.2857   -2.9237   25.2683 N   0  0  0  0  0  0  0  0  0  0  0  0
   10.7021   -3.8438   19.7234 C   0  0  0  0  0  0  0  0  0  0  0  0
    9.0993   -0.9276   26.0866 He  0  0  0  0  0  0  0  0  0  0  0  0
    5.1025   -8.5828   15.7010 He  0  0  0  0  0  0  0  0  0  0  0  0
   10.7594   -2.3695   21.4922 He  0  0  0  0  0  0  0  0  0  0  0  0
   10.1878   -6.4091   18.9422 He  0  0  0  0  0  0  0  0  0  0  0  0
  1  6  4  0
  1  7  1  0
  1 10  2  0
  2  3  3  0
  2 11  4  0
  2 14  2  0
  2 20  4  0
  3 13  2  0
  3 14  3  0
  3 16  4  0
  3 18  4  0
  4  7  2  0
  4 10  3  0
  4 11  4  0
  4 17  3  0
  4 21  2  0
  4 22  4  0
  5  7  1  0
  5 12  4  0
  6 12  4  0
  6 18  4  0
  6 20  4  0
  6 22  4  0
  7  8  4  0
  8 17  1  0
  9 21  4  0
 10 15  4  0
 10 17  1  0
 11 17  3  0
 12 22  2  0
 14 20  1  0
 15 18  1  0
 15 19  4  0
 16 22  4  0
 19 20  4  0
 19 22  2  0
M  END
$$$$

 Created by Python create_sdf_string function

 26 50  0  0  0  0  0  0  0  0999 V2000
   10.8008   -3.0707   23.1222 C   0  0  0  0  0  0  0  0  0  0  0  0
    9.2106   -5.2888   16.9507 C   0  0  0  0  0  0  0  0  0  0  0  0
    9.8449   -4.8755   17.6622 C   0  0  0  0  0  0  0  0  0  0  0  0
    9.2435   -0.5802   26.0601 C   0  0  0  0  0  0  0  0  0  0  0  0
    6.6001   -8.9193   14.9784 N   0  0  0  0  0  0  0  0  0  0  0  0
    6.4085   -7.3116   17.7217 S   0  0  0  0  0  0  0  0  0  0  0  0
   10.7643   -3.0644   19.1560 C   0  0  0  0  0  0  0  0  0  0  0  0
   10.4421   -2.4351   24.2064 C   0  0  0  0  0  0  0  0  0  0  0  0
    5.1732   -8.7440   15.9029 C   0  0  0  0  0  0  0  0  0  0  0  0
    9.7827   -1.0073   23.6437 C   0  0  0  0  0  0  0  0  0  0  0  0
    9.8955   -2.2024   26.2623 Br  0  0  0  0  0  0  0  0  0  0  0  0
   11.0613   -4.1685   23.1623 N   0  0  0  0  0  0  0  0  0  0  0  0
    7.6868   -7.8756   15.6318 C   0  0  0  0  0  0  0  0  0  0  0  0
    5.5192   -7.7874   16.6640 C   0  0  0  0  0  0  0  0  0  0  0  0
    9.6221   -7.0196   18.7561 N   0  0  0  0  0  0  0  0  0  0  0  0
    7.3234   -7.1695   17.0306 C   0  0  0  0  0  0  0  0  0  0  0  0
   11.2167   -5.0105   21.7550 N   0  0  0  0  0  0  0  0  0  0  0  0
   10.4545   -5.4732   18.9891 C   0  0  0  0  0  0  0  0  0  0  0  0
    9.3989   -0.3514   25.0858 N   0  0  0  0  0  0  0  0  0  0  0  0
    9.9904   -3.7592   17.6858 N   0  0  0  0  0  0  0  0  0  0  0  0
   10.7046   -3.7872   21.0567 C   0  0  0  0  0  0  0  0  0  0  0  0
    8.8951   -6.9658   17.3291 C   0  0  0  0  0  0  0  0  0  0  0  0
   10.3392   -2.6575   25.4605 Br  0  0  0  0  0  0  0  0  0  0  0  0
   10.9947   -3.9663   19.6960 C   0  0  0  0  0  0  0  0  0  0  0  0
   10.8180   -2.7318   21.5539 He  0  0  0  0  0  0  0  0  0  0  0  0
   10.4845   -6.6546   18.7042 He  0  0  0  0  0  0  0  0  0  0  0  0
  1  8  1  0
  1 12  4  0
  1 14  4  0
  1 20  1  0
  2  3  4  0
  2  4  4  0
  2  5  4  0
  2 22  4  0
  3 18  4  0
  3 20  4  0
  4  6  4  0
  4 11  4  0
  4 13  2  0
  4 15  4  0
  4 16  4  0
  4 19  4  0
  4 23  1  0
  5  9  4  0
  5 10  1  0
  5 13  4  0
  5 16  2  0
  6  8  3  0
  6 12  3  0
  6 13  2  0
  6 14  4  0
  6 16  4  0
  6 17  4  0
  7  9  4  0
  7 12  1  0
  7 19  2  0
  7 20  4  0
  7 24  4  0
  8 10  4  0
  8 23  4  0
  9 14  4  0
  9 18  2  0
 10 19  3  0
 10 22  2  0
 11 23  4  0
 12 14  1  0
 12 17  3  0
 13 15  4  0
 13 16  4  0
 15 22  2  0
 16 22  1  0
 17 21  4  0
 18 19  2  0
 18 24  4  0
 20 22  4  0
 21 24  1  0
M  END
$$$$

 Created by Python create_sdf_string function

 26 37  0  0  0  0  0  0  0  0999 V2000
   10.7485   -3.0269   22.8672 C   0  0  0  0  0  0  0  0  0  0  0  0
    8.8428   -5.4359   17.0094 P   0  0  0  0  0  0  0  0  0  0  0  0
    9.9823   -4.7134   17.8065 C   0  0  0  0  0  0  0  0  0  0  0  0
    9.1591   -0.5031   26.1695 C   0  0  0  0  0  0  0  0  0  0  0  0
    6.6857   -8.8575   15.5325 N   0  0  0  0  0  0  0  0  0  0  0  0
    6.3938   -7.2444   17.1670 C   0  0  0  0  0  0  0  0  0  0  0  0
   10.6868   -3.1797   19.0253 C   0  0  0  0  0  0  0  0  0  0  0  0
   10.2747   -2.1577   24.2224 C   0  0  0  0  0  0  0  0  0  0  0  0
   10.0523   -0.8653   23.8314 C   0  0  0  0  0  0  0  0  0  0  0  0
    9.8743   -2.0514   26.5424 N   0  0  0  0  0  0  0  0  0  0  0  0
   10.9130   -2.7999   21.6736 N   0  0  0  0  0  0  0  0  0  0  0  0
   10.8860   -4.3030   23.1227 N   0  0  0  0  0  0  0  0  0  0  0  0
    7.6566   -7.6985   15.6018 C   0  0  0  0  0  0  0  0  0  0  0  0
    5.2292   -7.8153   16.5402 C   0  0  0  0  0  0  0  0  0  0  0  0
    9.4634   -7.4992   18.2832 C   0  0  0  0  0  0  0  0  0  0  0  0
    7.4449   -7.4811   16.9332 C   0  0  0  0  0  0  0  0  0  0  0  0
   11.1134   -5.0775   21.9558 N   0  0  0  0  0  0  0  0  0  0  0  0
   10.1313   -5.2174   19.3323 S   0  0  0  0  0  0  0  0  0  0  0  0
    9.3680   -0.3974   24.8215 N   0  0  0  0  0  0  0  0  0  0  0  0
   10.0123   -3.6756   17.2703 N   0  0  0  0  0  0  0  0  0  0  0  0
   11.1352   -3.8912   20.9361 C   0  0  0  0  0  0  0  0  0  0  0  0
    8.6604   -6.5318   17.1865 C   0  0  0  0  0  0  0  0  0  0  0  0
   10.3688   -2.8547   25.4659 C   0  0  0  0  0  0  0  0  0  0  0  0
    5.2534   -8.7321   16.0894 He  0  0  0  0  0  0  0  0  0  0  0  0
   10.2249   -6.4118   19.3591 He  0  0  0  0  0  0  0  0  0  0  0  0
   11.2208   -3.8812   19.5536 He  0  0  0  0  0  0  0  0  0  0  0  0
  1  8  1  0
  1 11  4  0
  2  3  4  0
  2 17  2  0
  2 18  3  0
  2 22  4  0
  3  5  2  0
  3 18  4  0
  4  5  4  0
  4 10  4  0
  4 19  2  0
  4 23  4  0
  5 12  2  0
  5 13  4  0
  6 14  4  0
  6 16  4  0
  6 22  4  0
  7 20  4  0
  7 21  2  0
  8  9  4  0
  8 23  4  0
  9 19  4  0
  9 20  1  0
 10 11  4  0
 11 13  4  0
 11 21  4  0
 12 14  3  0
 12 17  4  0
 13 16  4  0
 13 20  2  0
 13 21  3  0
 15 22  4  0
 15 23  4  0
 16 21  3  0
 16 22  1  0
 17 21  4  0
 17 23  4  0
M  END
$$$$

 Created by Python create_sdf_string function

 26 47  0  0  0  0  0  0  0  0999 V2000
    9.1304   -5.4788   16.9801 C   0  0  0  0  0  0  0  0  0  0  0  0
    9.9439   -4.7930   17.6046 C   0  0  0  0  0  0  0  0  0  0  0  0
    9.4739   -0.9439   26.2398 C   0  0  0  0  0  0  0  0  0  0  0  0
    6.6834   -8.9516   15.3062 N   0  0  0  0  0  0  0  0  0  0  0  0
    6.3427   -7.2241   17.3454 C   0  0  0  0  0  0  0  0  0  0  0  0
   11.1764   -3.0250   19.0970 C   0  0  0  0  0  0  0  0  0  0  0  0
   10.3564   -2.2791   24.4139 C   0  0  0  0  0  0  0  0  0  0  0  0
    5.5215   -8.6098   15.6860 C   0  0  0  0  0  0  0  0  0  0  0  0
    9.6969   -1.0544   23.7290 C   0  0  0  0  0  0  0  0  0  0  0  0
    9.8451   -2.0758   26.3951 N   0  0  0  0  0  0  0  0  0  0  0  0
   10.8275   -2.7087   21.5990 C   0  0  0  0  0  0  0  0  0  0  0  0
   10.2717   -6.5695   19.1980 C   0  0  0  0  0  0  0  0  0  0  0  0
   10.7179   -4.3172   23.0471 N   0  0  0  0  0  0  0  0  0  0  0  0
    7.3788   -8.7366   15.3763 C   0  0  0  0  0  0  0  0  0  0  0  0
    5.4685   -7.4555   17.0105 C   0  0  0  0  0  0  0  0  0  0  0  0
    9.4775   -7.0332   18.3160 S   0  0  0  0  0  0  0  0  0  0  0  0
    7.4487   -7.3394   17.0658 C   0  0  0  0  0  0  0  0  0  0  0  0
   11.0654   -5.0050   22.0186 N   0  0  0  0  0  0  0  0  0  0  0  0
   10.2837   -4.8878   18.9381 C   0  0  0  0  0  0  0  0  0  0  0  0
    9.4952    0.1461   24.9706 N   0  0  0  0  0  0  0  0  0  0  0  0
   10.2456   -3.1630   17.5977 N   0  0  0  0  0  0  0  0  0  0  0  0
   11.0197   -4.0958   21.2909 C   0  0  0  0  0  0  0  0  0  0  0  0
    8.5360   -6.5075   17.1864 C   0  0  0  0  0  0  0  0  0  0  0  0
   10.1382   -2.6794   25.3050 C   0  0  0  0  0  0  0  0  0  0  0  0
   11.2250   -4.1000   19.6529 C   0  0  0  0  0  0  0  0  0  0  0  0
   10.8436   -3.0805   23.1038 He  0  0  0  0  0  0  0  0  0  0  0  0
  1 23  3  0
  2  5  4  0
  2 16  3  0
  2 19  4  0
  2 21  4  0
  3 10  4  0
  3 11  2  0
  3 20  4  0
  4  6  3  0
  4  8  4  0
  4 14  4  0
  4 16  2  0
  5  9  3  0
  5 15  4  0
  5 17  4  0
  5 21  1  0
  6  9  1  0
  6 20  3  0
  6 21  4  0
  6 25  4  0
  7  9  4  0
  8 15  4  0
  8 22  2  0
  8 25  1  0
  9 16  1  0
  9 20  4  0
  9 23  2  0
 10 15  1  0
 10 18  2  0
 10 19  4  0
 10 24  4  0
 11 22  4  0
 12 15  3  0
 12 16  4  0
 12 19  4  0
 13 16  2  0
 13 18  4  0
 14 17  4  0
 15 17  2  0
 15 21  2  0
 16 22  1  0
 16 23  4  0
 17 23  1  0
 18 21  1  0
 18 22  4  0
 19 25  4  0
 20 23  1  0
M  END
$$$$

 Created by Python create_sdf_string function

 26 42  0  0  0  0  0  0  0  0999 V2000
   10.6922   -3.0324   23.3144 C   0  0  0  0  0  0  0  0  0  0  0  0
    8.7048   -5.1919   17.3769 C   0  0  0  0  0  0  0  0  0  0  0  0
   10.0159   -4.7379   17.8046 N   0  0  0  0  0  0  0  0  0  0  0  0
    9.3869   -0.6613   25.9996 C   0  0  0  0  0  0  0  0  0  0  0  0
    6.8741   -9.0126   15.5811 I   0  0  0  0  0  0  0  0  0  0  0  0
    6.2640   -7.1777   17.1087 C   0  0  0  0  0  0  0  0  0  0  0  0
   10.2579   -2.2664   24.0911 N   0  0  0  0  0  0  0  0  0  0  0  0
    5.5780   -8.6931   15.5608 C   0  0  0  0  0  0  0  0  0  0  0  0
    9.6949   -0.9036   23.9129 C   0  0  0  0  0  0  0  0  0  0  0  0
    9.8088   -1.9142   26.3249 N   0  0  0  0  0  0  0  0  0  0  0  0
   10.7807   -2.6792   21.9268 C   0  0  0  0  0  0  0  0  0  0  0  0
   10.1575   -6.4509   19.3772 C   0  0  0  0  0  0  0  0  0  0  0  0
   10.7626   -4.4476   23.1984 S   0  0  0  0  0  0  0  0  0  0  0  0
    7.6714   -8.3068   15.7411 C   0  0  0  0  0  0  0  0  0  0  0  0
    5.2616   -7.7795   16.8168 C   0  0  0  0  0  0  0  0  0  0  0  0
    9.5316   -7.0178   18.3385 C   0  0  0  0  0  0  0  0  0  0  0  0
    7.6191   -7.5625   16.8920 C   0  0  0  0  0  0  0  0  0  0  0  0
   11.0544   -4.9612   21.9092 N   0  0  0  0  0  0  0  0  0  0  0  0
   10.1870   -5.0649   19.1786 C   0  0  0  0  0  0  0  0  0  0  0  0
    9.2195   -0.0888   24.8176 N   0  0  0  0  0  0  0  0  0  0  0  0
   10.4078   -3.1079   17.7331 N   0  0  0  0  0  0  0  0  0  0  0  0
   11.0686   -4.0678   21.1373 C   0  0  0  0  0  0  0  0  0  0  0  0
    8.8897   -6.8064   17.3876 C   0  0  0  0  0  0  0  0  0  0  0  0
   10.2478   -2.8942   25.5485 C   0  0  0  0  0  0  0  0  0  0  0  0
   10.8837   -4.1701   19.5802 C   0  0  0  0  0  0  0  0  0  0  0  0
   11.1878   -2.8939   18.9402 He  0  0  0  0  0  0  0  0  0  0  0  0
  1 11  4  0
  1 12  4  0
  1 13  1  0
  2  3  2  0
  2 13  1  0
  2 23  4  0
  3 16  1  0
  3 21  1  0
  4 10  3  0
  4 20  4  0
  5  8  4  0
  5 14  4  0
  5 19  4  0
  6 15  4  0
  6 17  4  0
  6 20  1  0
  7  9  4  0
  7 11  4  0
  7 24  4  0
  8 15  4  0
  9 20  4  0
  9 25  3  0
 10 21  4  0
 10 24  4  0
 11 12  3  0
 11 15  2  0
 11 22  4  0
 12 13  2  0
 12 16  4  0
 12 17  3  0
 12 19  4  0
 12 20  1  0
 12 25  2  0
 13 18  4  0
 14 17  4  0
 16 23  3  0
 17 18  2  0
 17 23  1  0
 18 22  4  0
 19 20  4  0
 19 25  4  0
 22 25  1  0
M  END
$$$$

 Created by Python create_sdf_string function

 26 42  0  0  0  0  0  0  0  0999 V2000
   10.6085   -3.0440   23.1213 C   0  0  0  0  0  0  0  0  0  0  0  0
    9.2012   -5.4810   17.2103 C   0  0  0  0  0  0  0  0  0  0  0  0
    9.9990   -4.4952   17.8136 C   0  0  0  0  0  0  0  0  0  0  0  0
    9.3835   -0.5250   26.0356 C   0  0  0  0  0  0  0  0  0  0  0  0
    6.7902   -8.9275   15.3796 N   0  0  0  0  0  0  0  0  0  0  0  0
    6.1391   -7.1571   17.1626 C   0  0  0  0  0  0  0  0  0  0  0  0
   11.0609   -2.8893   18.8772 P   0  0  0  0  0  0  0  0  0  0  0  0
   10.3294   -2.1243   24.2950 C   0  0  0  0  0  0  0  0  0  0  0  0
    5.5098   -8.7980   16.0543 C   0  0  0  0  0  0  0  0  0  0  0  0
    9.6887   -1.0362   23.8350 C   0  0  0  0  0  0  0  0  0  0  0  0
    9.8709   -1.9615   26.5170 N   0  0  0  0  0  0  0  0  0  0  0  0
   10.7740   -2.6627   22.0985 C   0  0  0  0  0  0  0  0  0  0  0  0
    9.9352   -6.6686   19.0115 C   0  0  0  0  0  0  0  0  0  0  0  0
   10.8615   -4.3646   23.4207 O   0  0  0  0  0  0  0  0  0  0  0  0
    8.0157   -8.3912   15.8074 C   0  0  0  0  0  0  0  0  0  0  0  0
    5.3491   -7.7694   16.7774 C   0  0  0  0  0  0  0  0  0  0  0  0
    9.3890   -6.8826   18.8471 C   0  0  0  0  0  0  0  0  0  0  0  0
    8.1408   -7.3600   16.7336 C   0  0  0  0  0  0  0  0  0  0  0  0
   10.9780   -4.9221   22.1222 N   0  0  0  0  0  0  0  0  0  0  0  0
    9.0807   -0.2040   25.0418 N   0  0  0  0  0  0  0  0  0  0  0  0
   10.2940   -2.9375   17.4029 N   0  0  0  0  0  0  0  0  0  0  0  0
   10.8750   -3.6245   21.0573 C   0  0  0  0  0  0  0  0  0  0  0  0
    8.6666   -6.6824   17.2998 C   0  0  0  0  0  0  0  0  0  0  0  0
   10.1925   -2.6178   25.5621 C   0  0  0  0  0  0  0  0  0  0  0  0
   10.5441   -5.2148   19.1780 He  0  0  0  0  0  0  0  0  0  0  0  0
   10.8480   -4.2409   19.9977 He  0  0  0  0  0  0  0  0  0  0  0  0
  1  6  2  0
  1  8  1  0
  1 14  4  0
  1 15  2  0
  1 16  1  0
  1 17  3  0
  1 22  4  0
  2  3  4  0
  2 16  4  0
  2 23  4  0
  3  9  2  0
  3 21  4  0
  4 11  4  0
  4 20  4  0
  4 21  4  0
  5 15  4  0
  6 14  2  0
  6 15  1  0
  6 16  4  0
  6 17  1  0
  6 18  4  0
  6 21  4  0
  7 20  3  0
  7 21  4  0
  8 10  4  0
  8 24  4  0
  9 10  3  0
  9 16  4  0
 10 11  2  0
 10 20  4  0
 11 21  2  0
 11 24  4  0
 12 22  4  0
 12 23  4  0
 13 17  4  0
 14 16  1  0
 14 19  4  0
 14 20  1  0
 15 18  4  0
 17 23  4  0
 18 23  1  0
 19 22  4  0
M  END
$$$$

 Created by Python create_sdf_string function

 26 50  0  0  0  0  0  0  0  0999 V2000
   10.5737   -3.0002   23.2376 C   0  0  0  0  0  0  0  0  0  0  0  0
    9.2499   -5.3961   16.9752 C   0  0  0  0  0  0  0  0  0  0  0  0
    9.8479   -4.4467   17.9168 C   0  0  0  0  0  0  0  0  0  0  0  0
    9.1721   -0.5990   26.3931 C   0  0  0  0  0  0  0  0  0  0  0  0
    7.0089   -9.0698   15.4409 N   0  0  0  0  0  0  0  0  0  0  0  0
    5.8929   -7.0399   17.1089 O   0  0  0  0  0  0  0  0  0  0  0  0
   10.8084   -3.1124   18.8739 C   0  0  0  0  0  0  0  0  0  0  0  0
   10.1618   -2.4263   24.3638 C   0  0  0  0  0  0  0  0  0  0  0  0
    5.3686   -8.7937   16.1726 C   0  0  0  0  0  0  0  0  0  0  0  0
    9.7103   -0.6179   23.8614 C   0  0  0  0  0  0  0  0  0  0  0  0
    9.7728   -1.5404   26.7448 O   0  0  0  0  0  0  0  0  0  0  0  0
   10.6780   -2.7453   22.0141 C   0  0  0  0  0  0  0  0  0  0  0  0
   10.3573   -6.5553   19.4377 C   0  0  0  0  0  0  0  0  0  0  0  0
   10.7291   -4.3418   23.1564 O   0  0  0  0  0  0  0  0  0  0  0  0
    7.6747   -8.2828   15.9111 C   0  0  0  0  0  0  0  0  0  0  0  0
    5.1790   -8.0659   16.5194 C   0  0  0  0  0  0  0  0  0  0  0  0
    9.4769   -7.0612   18.3292 C   0  0  0  0  0  0  0  0  0  0  0  0
    8.0207   -7.2292   16.8643 C   0  0  0  0  0  0  0  0  0  0  0  0
   10.9643   -4.9009   22.0301 N   0  0  0  0  0  0  0  0  0  0  0  0
   10.4318   -5.0736   19.1516 C   0  0  0  0  0  0  0  0  0  0  0  0
    9.1838   -0.0340   25.0334 N   0  0  0  0  0  0  0  0  0  0  0  0
   10.5915   -3.1690   17.8354 N   0  0  0  0  0  0  0  0  0  0  0  0
   11.0707   -4.0209   21.4275 C   0  0  0  0  0  0  0  0  0  0  0  0
    8.5615   -6.7275   17.4615 C   0  0  0  0  0  0  0  0  0  0  0  0
   10.2860   -2.4658   25.6575 C   0  0  0  0  0  0  0  0  0  0  0  0
   10.9484   -4.1086   19.8947 F   0  0  0  0  0  0  0  0  0  0  0  0
  1  4  4  0
  1  7  4  0
  1  8  4  0
  1  9  4  0
  1 12  4  0
  2  3  4  0
  2  7  4  0
  2 15  4  0
  2 24  4  0
  3  7  2  0
  3 11  3  0
  3 20  4  0
  3 22  4  0
  4  9  2  0
  4 11  4  0
  4 21  4  0
  5 12  3  0
  5 15  4  0
  5 19  1  0
  6 13  4  0
  6 14  4  0
  6 16  4  0
  6 18  4  0
  7 22  4  0
  7 26  4  0
  8 10  4  0
  8 25  4  0
  9 16  4  0
  9 19  3  0
  9 21  3  0
 10 15  4  0
 10 21  4  0
 10 26  4  0
 11 14  4  0
 11 15  4  0
 11 22  2  0
 11 25  4  0
 12 23  4  0
 12 24  4  0
 13 17  4  0
 13 20  4  0
 14 19  4  0
 14 24  3  0
 15 18  4  0
 15 26  2  0
 17 24  3  0
 18 24  1  0
 19 23  4  0
 20 26  4  0
 23 26  1  0
M  END
$$$$

 Created by Python create_sdf_string function

 26 37  0  0  0  0  0  0  0  0999 V2000
   10.5637   -3.1645   23.2509 C   0  0  0  0  0  0  0  0  0  0  0  0
    9.1309   -5.5764   17.2528 C   0  0  0  0  0  0  0  0  0  0  0  0
    9.9347   -4.7224   17.7928 C   0  0  0  0  0  0  0  0  0  0  0  0
    9.1578   -0.5008   26.3112 C   0  0  0  0  0  0  0  0  0  0  0  0
    6.0562   -6.9046   17.0453 C   0  0  0  0  0  0  0  0  0  0  0  0
   10.9789   -2.9106   18.7594 C   0  0  0  0  0  0  0  0  0  0  0  0
   10.2110   -2.2005   24.3467 C   0  0  0  0  0  0  0  0  0  0  0  0
    5.5389   -8.6909   15.8077 C   0  0  0  0  0  0  0  0  0  0  0  0
    9.7281   -0.7689   24.2292 C   0  0  0  0  0  0  0  0  0  0  0  0
    9.6346   -1.5480   26.7214 C   0  0  0  0  0  0  0  0  0  0  0  0
   10.6119   -2.5556   22.2013 C   0  0  0  0  0  0  0  0  0  0  0  0
   10.3663   -6.4754   19.5326 C   0  0  0  0  0  0  0  0  0  0  0  0
   10.6409   -4.3949   23.5138 O   0  0  0  0  0  0  0  0  0  0  0  0
    7.9317   -8.3393   15.9000 C   0  0  0  0  0  0  0  0  0  0  0  0
    5.5210   -8.0759   16.6603 C   0  0  0  0  0  0  0  0  0  0  0  0
    9.5139   -7.1673   18.0678 C   0  0  0  0  0  0  0  0  0  0  0  0
    7.5345   -7.4712   16.9200 C   0  0  0  0  0  0  0  0  0  0  0  0
   11.0762   -4.9518   22.1063 N   0  0  0  0  0  0  0  0  0  0  0  0
   10.0672   -4.7843   19.3594 C   0  0  0  0  0  0  0  0  0  0  0  0
    9.1695   -0.1350   24.8493 N   0  0  0  0  0  0  0  0  0  0  0  0
   10.9972   -3.9266   21.2497 C   0  0  0  0  0  0  0  0  0  0  0  0
    8.6535   -6.6221   17.3918 C   0  0  0  0  0  0  0  0  0  0  0  0
   10.1304   -2.5620   25.6016 C   0  0  0  0  0  0  0  0  0  0  0  0
    6.7919   -9.0242   15.6188 He  0  0  0  0  0  0  0  0  0  0  0  0
   10.3343   -3.1274   18.0653 He  0  0  0  0  0  0  0  0  0  0  0  0
   10.8440   -3.8905   20.1050 He  0  0  0  0  0  0  0  0  0  0  0  0
  1  7  1  0
  1  9  2  0
  1 11  4  0
  1 13  4  0
  1 23  2  0
  2  3  4  0
  2 13  3  0
  2 21  3  0
  2 22  4  0
  3  5  4  0
  3 19  4  0
  4 10  4  0
  4 20  4  0
  5 15  4  0
  5 17  4  0
  7  9  4  0
  7 22  1  0
  7 23  4  0
  8 15  4  0
  8 19  2  0
  9 20  4  0
 10 23  4  0
 11 13  1  0
 11 14  1  0
 11 20  3  0
 11 21  4  0
 12 16  4  0
 12 19  4  0
 13 15  4  0
 13 18  4  0
 14 17  4  0
 15 16  2  0
 16 22  4  0
 17 22  1  0
 18 21  4  0
 18 23  4  0
 19 21  3  0
M  END
$$$$

 Created by Python create_sdf_string function

 26 43  0  0  0  0  0  0  0  0999 V2000
   10.3511   -2.8215   23.3633 C   0  0  0  0  0  0  0  0  0  0  0  0
    9.0100   -5.2276   17.1442 C   0  0  0  0  0  0  0  0  0  0  0  0
    9.7494   -4.5669   18.1351 C   0  0  0  0  0  0  0  0  0  0  0  0
    9.1621   -0.3479   26.2261 C   0  0  0  0  0  0  0  0  0  0  0  0
    6.9319   -8.9029   15.6046 N   0  0  0  0  0  0  0  0  0  0  0  0
    6.3780   -7.2093   17.1840 C   0  0  0  0  0  0  0  0  0  0  0  0
   10.8801   -2.5348   18.8723 C   0  0  0  0  0  0  0  0  0  0  0  0
   10.1941   -1.8236   24.5380 C   0  0  0  0  0  0  0  0  0  0  0  0
    5.4484   -8.8071   16.0532 C   0  0  0  0  0  0  0  0  0  0  0  0
    9.5591   -0.9615   24.1969 F   0  0  0  0  0  0  0  0  0  0  0  0
    9.5780   -1.7877   26.7128 C   0  0  0  0  0  0  0  0  0  0  0  0
   10.5536   -2.5740   22.1323 C   0  0  0  0  0  0  0  0  0  0  0  0
   10.1551   -6.7550   19.3882 C   0  0  0  0  0  0  0  0  0  0  0  0
   10.6784   -4.1222   23.4953 O   0  0  0  0  0  0  0  0  0  0  0  0
    7.7548   -8.3773   15.9984 C   0  0  0  0  0  0  0  0  0  0  0  0
    5.1557   -8.0518   16.7011 C   0  0  0  0  0  0  0  0  0  0  0  0
    9.6001   -7.1962   18.5090 C   0  0  0  0  0  0  0  0  0  0  0  0
    7.5477   -7.5676   16.9882 F   0  0  0  0  0  0  0  0  0  0  0  0
   11.0345   -4.7853   22.1490 N   0  0  0  0  0  0  0  0  0  0  0  0
   10.2837   -5.3994   19.1482 C   0  0  0  0  0  0  0  0  0  0  0  0
    9.3041    0.1432   25.0921 N   0  0  0  0  0  0  0  0  0  0  0  0
   10.3903   -3.4417   17.9909 N   0  0  0  0  0  0  0  0  0  0  0  0
   10.9213   -3.8160   21.5746 C   0  0  0  0  0  0  0  0  0  0  0  0
    8.8596   -6.8010   17.3105 C   0  0  0  0  0  0  0  0  0  0  0  0
   10.0700   -2.4806   25.8488 C   0  0  0  0  0  0  0  0  0  0  0  0
   10.7045   -4.0047   19.6620 C   0  0  0  0  0  0  0  0  0  0  0  0
  1  6  3  0
  1  8  1  0
  1 12  4  0
  1 14  4  0
  2  3  4  0
  2  6  3  0
  2 24  4  0
  3 20  4  0
  3 22  4  0
  4 11  4  0
  4 21  4  0
  5  9  4  0
  5 15  4  0
  6 13  1  0
  6 15  1  0
  6 16  4  0
  6 18  4  0
  7 22  4  0
  7 26  4  0
  8 10  4  0
  8 25  4  0
  9 11  3  0
  9 16  4  0
 10 21  4  0
 11 18  1  0
 11 25  4  0
 12 22  1  0
 12 23  4  0
 13 17  4  0
 13 20  4  0
 14 19  4  0
 15 18  4  0
 15 20  1  0
 15 21  1  0
 16 18  3  0
 17 18  4  0
 17 21  2  0
 17 23  1  0
 17 24  4  0
 18 24  3  0
 19 23  4  0
 20 26  4  0
 23 26  1  0
M  END
$$$$

 Created by Python create_sdf_string function

 26 35  0  0  0  0  0  0  0  0999 V2000
   10.4493   -2.9883   23.4511 C   0  0  0  0  0  0  0  0  0  0  0  0
    8.7475   -5.3392   17.2861 C   0  0  0  0  0  0  0  0  0  0  0  0
    9.8964   -4.5484   17.8284 C   0  0  0  0  0  0  0  0  0  0  0  0
    9.0774   -0.3115   26.5201 C   0  0  0  0  0  0  0  0  0  0  0  0
    6.7233   -9.3379   15.6889 N   0  0  0  0  0  0  0  0  0  0  0  0
    6.5263   -7.0085   17.2151 C   0  0  0  0  0  0  0  0  0  0  0  0
    9.9315   -2.0221   24.3713 C   0  0  0  0  0  0  0  0  0  0  0  0
    5.6222   -8.9511   15.7728 C   0  0  0  0  0  0  0  0  0  0  0  0
    9.7423   -0.7671   24.2389 C   0  0  0  0  0  0  0  0  0  0  0  0
    9.6125   -1.5318   26.6000 C   0  0  0  0  0  0  0  0  0  0  0  0
   10.3552   -2.5323   22.0159 C   0  0  0  0  0  0  0  0  0  0  0  0
   10.0968   -6.6610   19.3409 C   0  0  0  0  0  0  0  0  0  0  0  0
   10.8045   -4.3630   23.5685 O   0  0  0  0  0  0  0  0  0  0  0  0
    7.9221   -8.4013   16.0754 C   0  0  0  0  0  0  0  0  0  0  0  0
    5.3172   -7.9909   16.6816 C   0  0  0  0  0  0  0  0  0  0  0  0
    9.5887   -7.3559   18.5022 C   0  0  0  0  0  0  0  0  0  0  0  0
    7.6712   -7.5417   16.9996 C   0  0  0  0  0  0  0  0  0  0  0  0
   10.9386   -4.9828   22.2437 N   0  0  0  0  0  0  0  0  0  0  0  0
   10.3184   -3.1374   17.9696 N   0  0  0  0  0  0  0  0  0  0  0  0
   10.9198   -3.7497   21.4876 C   0  0  0  0  0  0  0  0  0  0  0  0
    8.7184   -6.8454   17.5584 C   0  0  0  0  0  0  0  0  0  0  0  0
   10.1348   -2.5311   25.8024 C   0  0  0  0  0  0  0  0  0  0  0  0
   10.5528   -3.7415   19.6433 C   0  0  0  0  0  0  0  0  0  0  0  0
   10.8752   -2.7261   18.9865 He  0  0  0  0  0  0  0  0  0  0  0  0
   10.2601   -5.4164   19.2003 He  0  0  0  0  0  0  0  0  0  0  0  0
    9.3548   -0.0019   25.0429 He  0  0  0  0  0  0  0  0  0  0  0  0
  1  2  3  0
  1  7  1  0
  1 11  4  0
  1 13  4  0
  2  3  4  0
  2 12  3  0
  2 21  3  0
  3 19  4  0
  4 10  4  0
  4 13  1  0
  4 20  3  0
  5  8  4  0
  5 14  4  0
  6 15  4  0
  6 22  3  0
  7  9  4  0
  7 20  4  0
  7 22  4  0
  8 14  3  0
  8 15  4  0
  8 20  1  0
  8 23  2  0
 10 22  4  0
 11 20  4  0
 12 16  4  0
 13 18  4  0
 14 15  2  0
 14 17  4  0
 15 18  3  0
 16 19  2  0
 16 21  4  0
 16 22  2  0
 17 21  1  0
 18 20  4  0
 20 23  1  0
M  END
$$$$

 Created by Python create_sdf_string function

 26 37  0  0  0  0  0  0  0  0999 V2000
   10.3058   -3.1025   23.5101 C   0  0  0  0  0  0  0  0  0  0  0  0
    8.9197   -5.5586   17.4603 C   0  0  0  0  0  0  0  0  0  0  0  0
    9.8398   -4.4474   17.9933 C   0  0  0  0  0  0  0  0  0  0  0  0
    9.2206   -0.2266   26.5909 C   0  0  0  0  0  0  0  0  0  0  0  0
    6.6187   -9.2594   15.4720 N   0  0  0  0  0  0  0  0  0  0  0  0
    6.3000   -7.1942   17.0726 C   0  0  0  0  0  0  0  0  0  0  0  0
   10.8351   -2.7231   19.0410 C   0  0  0  0  0  0  0  0  0  0  0  0
    9.9519   -2.0320   24.5687 C   0  0  0  0  0  0  0  0  0  0  0  0
    5.4579   -9.1601   15.8408 C   0  0  0  0  0  0  0  0  0  0  0  0
    9.5782   -0.7009   24.2125 C   0  0  0  0  0  0  0  0  0  0  0  0
    9.4758   -1.5017   26.7278 C   0  0  0  0  0  0  0  0  0  0  0  0
   10.4730   -2.7227   22.0813 C   0  0  0  0  0  0  0  0  0  0  0  0
   10.3566   -6.5382   19.6960 F   0  0  0  0  0  0  0  0  0  0  0  0
   10.8464   -4.3703   23.4416 O   0  0  0  0  0  0  0  0  0  0  0  0
    7.6208   -8.5404   16.1748 C   0  0  0  0  0  0  0  0  0  0  0  0
    5.4582   -8.0361   16.7949 C   0  0  0  0  0  0  0  0  0  0  0  0
    9.3509   -7.0840   18.6589 C   0  0  0  0  0  0  0  0  0  0  0  0
    7.5949   -7.3780   16.9302 C   0  0  0  0  0  0  0  0  0  0  0  0
   10.8748   -4.8392   22.2823 N   0  0  0  0  0  0  0  0  0  0  0  0
   10.0052   -5.2328   19.2122 C   0  0  0  0  0  0  0  0  0  0  0  0
    9.1265    0.1063   25.1500 N   0  0  0  0  0  0  0  0  0  0  0  0
   10.8220   -3.8625   21.3005 C   0  0  0  0  0  0  0  0  0  0  0  0
    8.5895   -6.6864   17.5637 C   0  0  0  0  0  0  0  0  0  0  0  0
   10.0137   -2.4637   25.6277 C   0  0  0  0  0  0  0  0  0  0  0  0
   10.6073   -4.0779   20.0800 C   0  0  0  0  0  0  0  0  0  0  0  0
   10.1978   -3.3889   17.9309 He  0  0  0  0  0  0  0  0  0  0  0  0
  1  8  3  0
  1 12  4  0
  1 14  4  0
  1 20  4  0
  2  3  4  0
  2 23  4  0
  3 20  4  0
  4  6  2  0
  4 11  4  0
  4 14  2  0
  4 20  4  0
  4 21  4  0
  5  9  4  0
  5 15  1  0
  6 10  1  0
  6 16  4  0
  6 18  4  0
  7 12  2  0
  7 25  4  0
  8 10  4  0
  8 24  4  0
  9 11  2  0
  9 12  4  0
  9 16  4  0
 10 21  4  0
 11 24  4  0
 12 22  4  0
 13 17  4  0
 13 20  4  0
 13 22  4  0
 14 19  4  0
 17 23  4  0
 18 23  1  0
 20 25  4  0
 21 24  4  0
 22 25  1  0
 23 24  4  0
M  END
$$$$

 Created by Python create_sdf_string function

 26 44  0  0  0  0  0  0  0  0999 V2000
   10.3788   -2.9956   23.4585 C   0  0  0  0  0  0  0  0  0  0  0  0
    8.8043   -5.4578   17.2742 C   0  0  0  0  0  0  0  0  0  0  0  0
    9.7856   -4.6371   18.2150 C   0  0  0  0  0  0  0  0  0  0  0  0
    9.0266   -0.0541   26.3383 C   0  0  0  0  0  0  0  0  0  0  0  0
    6.8930   -9.2683   15.5270 N   0  0  0  0  0  0  0  0  0  0  0  0
    6.3081   -7.2667   17.2473 C   0  0  0  0  0  0  0  0  0  0  0  0
   10.6849   -2.8445   19.1254 C   0  0  0  0  0  0  0  0  0  0  0  0
    9.9411   -1.9569   24.5189 C   0  0  0  0  0  0  0  0  0  0  0  0
    5.4322   -9.0717   15.9839 C   0  0  0  0  0  0  0  0  0  0  0  0
    9.5373   -0.6952   24.1617 C   0  0  0  0  0  0  0  0  0  0  0  0
    9.5410   -1.5493   26.8454 C   0  0  0  0  0  0  0  0  0  0  0  0
   10.3778   -2.8715   22.0827 C   0  0  0  0  0  0  0  0  0  0  0  0
    9.8805   -6.3876   19.4196 C   0  0  0  0  0  0  0  0  0  0  0  0
   10.7751   -4.2685   23.5779 O   0  0  0  0  0  0  0  0  0  0  0  0
    7.8642   -8.7005   15.9879 C   0  0  0  0  0  0  0  0  0  0  0  0
    5.0776   -8.1790   16.7775 C   0  0  0  0  0  0  0  0  0  0  0  0
    9.4188   -7.2399   18.6803 C   0  0  0  0  0  0  0  0  0  0  0  0
    7.6380   -7.4790   17.0506 C   0  0  0  0  0  0  0  0  0  0  0  0
   10.8734   -4.7411   22.1255 N   0  0  0  0  0  0  0  0  0  0  0  0
   10.3093   -5.1964   19.4042 C   0  0  0  0  0  0  0  0  0  0  0  0
    9.1867   -0.0792   25.3105 N   0  0  0  0  0  0  0  0  0  0  0  0
   10.4925   -3.3534   17.6675 N   0  0  0  0  0  0  0  0  0  0  0  0
   10.7306   -3.7342   21.3752 C   0  0  0  0  0  0  0  0  0  0  0  0
    8.6341   -6.6306   17.4948 C   0  0  0  0  0  0  0  0  0  0  0  0
    9.9448   -2.4348   25.7700 C   0  0  0  0  0  0  0  0  0  0  0  0
   10.7537   -3.9105   19.9460 C   0  0  0  0  0  0  0  0  0  0  0  0
  1  8  1  0
  1  9  2  0
  1 12  4  0
  1 14  4  0
  1 17  1  0
  2  3  4  0
  2 22  3  0
  2 24  4  0
  2 25  1  0
  3 20  4  0
  3 22  4  0
  4  8  4  0
  4 11  4  0
  4 21  4  0
  5 11  4  0
  6 13  2  0
  6 16  4  0
  6 18  4  0
  7 22  4  0
  7 26  4  0
  8 10  4  0
  8 20  2  0
  8 25  4  0
  9 14  3  0
  9 16  4  0
  9 22  4  0
 10 20  4  0
 10 21  4  0
 11 25  4  0
 12 16  3  0
 13 17  4  0
 13 20  4  0
 13 25  1  0
 14 16  1  0
 14 19  4  0
 14 21  4  0
 15 18  4  0
 18 24  1  0
 19 23  2  0
 20 26  4  0
 21 22  1  0
 21 23  2  0
 21 26  4  0
 23 26  1  0
M  END
$$$$

 Created by Python create_sdf_string function

 26 33  0  0  0  0  0  0  0  0999 V2000
   10.4286   -2.8063   23.3199 C   0  0  0  0  0  0  0  0  0  0  0  0
    9.0784   -5.3644   17.0768 C   0  0  0  0  0  0  0  0  0  0  0  0
    9.7687   -4.6815   18.0077 C   0  0  0  0  0  0  0  0  0  0  0  0
    8.9935   -0.2017   26.5128 C   0  0  0  0  0  0  0  0  0  0  0  0
    6.5720   -9.1074   15.6126 N   0  0  0  0  0  0  0  0  0  0  0  0
    6.3108   -7.2712   17.4562 C   0  0  0  0  0  0  0  0  0  0  0  0
   10.9967   -3.0509   18.9419 P   0  0  0  0  0  0  0  0  0  0  0  0
    9.9952   -2.0496   24.5675 C   0  0  0  0  0  0  0  0  0  0  0  0
    5.4895   -8.9736   15.8376 C   0  0  0  0  0  0  0  0  0  0  0  0
    9.5575   -0.7669   24.1996 C   0  0  0  0  0  0  0  0  0  0  0  0
    9.6897   -1.5936   26.8591 C   0  0  0  0  0  0  0  0  0  0  0  0
   10.3876   -2.6696   21.8527 C   0  0  0  0  0  0  0  0  0  0  0  0
   10.1996   -6.2184   19.6923 C   0  0  0  0  0  0  0  0  0  0  0  0
   10.7774   -4.3032   23.5525 O   0  0  0  0  0  0  0  0  0  0  0  0
    7.6876   -8.5286   15.8450 C   0  0  0  0  0  0  0  0  0  0  0  0
    5.3609   -8.2654   16.8645 C   0  0  0  0  0  0  0  0  0  0  0  0
    9.4924   -7.0306   18.7811 C   0  0  0  0  0  0  0  0  0  0  0  0
    7.5632   -7.5723   17.0389 C   0  0  0  0  0  0  0  0  0  0  0  0
   11.0816   -4.7202   22.4555 N   0  0  0  0  0  0  0  0  0  0  0  0
   10.1975   -5.1917   19.2390 C   0  0  0  0  0  0  0  0  0  0  0  0
    9.2192    0.1888   24.9797 N   0  0  0  0  0  0  0  0  0  0  0  0
   10.3007   -3.5269   17.8323 N   0  0  0  0  0  0  0  0  0  0  0  0
   10.6187   -3.8438   21.4063 C   0  0  0  0  0  0  0  0  0  0  0  0
    8.5586   -6.7574   17.7994 C   0  0  0  0  0  0  0  0  0  0  0  0
    9.8714   -2.3932   25.9286 C   0  0  0  0  0  0  0  0  0  0  0  0
   10.4886   -4.0216   19.9023 C   0  0  0  0  0  0  0  0  0  0  0  0
  1  8  1  0
  1 12  4  0
  1 14  4  0
  1 25  2  0
  2  3  4  0
  2 24  4  0
  3 17  4  0
  3 20  4  0
  3 22  4  0
  4 11  4  0
  4 20  1  0
  4 21  4  0
  5  9  4  0
  6 16  4  0
  6 18  4  0
  7 22  4  0
  7 26  4  0
  8 10  4  0
  8 25  4  0
 10 21  4  0
 11 25  4  0
 12 23  4  0
 13 17  4  0
 13 20  4  0
 14 19  4  0
 15 18  4  0
 17 24  4  0
 18 24  1  0
 19 23  4  0
 20 23  3  0
 20 26  4  0
 23 25  4  0
 23 26  1  0
M  END
$$$$

 Created by Python create_sdf_string function

 26 39  0  0  0  0  0  0  0  0999 V2000
   10.4458   -2.8769   23.4752 C   0  0  0  0  0  0  0  0  0  0  0  0
    8.9724   -5.5045   17.1759 C   0  0  0  0  0  0  0  0  0  0  0  0
    9.6820   -4.6715   18.0466 C   0  0  0  0  0  0  0  0  0  0  0  0
    9.0315   -0.3269   26.4719 C   0  0  0  0  0  0  0  0  0  0  0  0
    6.6567   -9.0169   15.4444 N   0  0  0  0  0  0  0  0  0  0  0  0
    6.4049   -7.5269   17.5283 C   0  0  0  0  0  0  0  0  0  0  0  0
   10.9300   -3.0276   18.9388 C   0  0  0  0  0  0  0  0  0  0  0  0
    9.8761   -2.0507   24.3522 C   0  0  0  0  0  0  0  0  0  0  0  0
    5.3354   -8.8477   16.1065 C   0  0  0  0  0  0  0  0  0  0  0  0
    9.5156   -0.6778   24.1768 C   0  0  0  0  0  0  0  0  0  0  0  0
    9.5358   -1.5587   26.6871 C   0  0  0  0  0  0  0  0  0  0  0  0
   10.4325   -2.5139   22.0497 C   0  0  0  0  0  0  0  0  0  0  0  0
   10.0168   -6.6643   19.5931 C   0  0  0  0  0  0  0  0  0  0  0  0
   10.7736   -4.0991   23.4081 O   0  0  0  0  0  0  0  0  0  0  0  0
    7.9095   -8.5098   15.8704 C   0  0  0  0  0  0  0  0  0  0  0  0
    5.4386   -8.1540   16.9724 C   0  0  0  0  0  0  0  0  0  0  0  0
    9.4457   -7.2727   18.5724 C   0  0  0  0  0  0  0  0  0  0  0  0
    7.5566   -7.4354   16.9929 C   0  0  0  0  0  0  0  0  0  0  0  0
   10.9376   -4.6860   22.3455 S   0  0  0  0  0  0  0  0  0  0  0  0
   10.1293   -5.0638   19.2103 C   0  0  0  0  0  0  0  0  0  0  0  0
    8.8955    0.1654   25.1612 N   0  0  0  0  0  0  0  0  0  0  0  0
   10.2591   -3.3685   17.8747 N   0  0  0  0  0  0  0  0  0  0  0  0
   10.7299   -3.9458   21.5488 C   0  0  0  0  0  0  0  0  0  0  0  0
    8.6700   -6.9209   17.6485 C   0  0  0  0  0  0  0  0  0  0  0  0
    9.9754   -2.4423   25.7623 C   0  0  0  0  0  0  0  0  0  0  0  0
   10.4810   -4.2095   19.8592 C   0  0  0  0  0  0  0  0  0  0  0  0
  1  3  4  0
  1  8  4  0
  1 12  4  0
  2  3  4  0
  2 24  4  0
  3  7  1  0
  3 20  4  0
  3 22  4  0
  4 11  4  0
  4 21  4  0
  5  9  4  0
  5 15  4  0
  6 12  2  0
  6 16  4  0
  6 18  4  0
  7 22  4  0
  7 23  1  0
  7 26  4  0
  8 10  4  0
  8 25  4  0
  9 16  4  0
  9 19  2  0
 10 21  4  0
 11 25  4  0
 12 23  4  0
 13 16  2  0
 13 17  4  0
 13 20  4  0
 14 19  4  0
 14 24  3  0
 15 18  4  0
 16 17  3  0
 16 24  2  0
 17 24  4  0
 17 25  3  0
 18 24  1  0
 19 23  4  0
 20 26  4  0
 23 26  1  0
M  END
$$$$

 Created by Python create_sdf_string function

 26 35  0  0  0  0  0  0  0  0999 V2000
   10.3271   -2.9451   23.5127 C   0  0  0  0  0  0  0  0  0  0  0  0
    8.9281   -5.5545   17.2670 C   0  0  0  0  0  0  0  0  0  0  0  0
    9.6218   -4.8002   17.8253 C   0  0  0  0  0  0  0  0  0  0  0  0
    9.0745   -0.4226   26.5136 C   0  0  0  0  0  0  0  0  0  0  0  0
    6.6538   -9.0483   15.3550 N   0  0  0  0  0  0  0  0  0  0  0  0
    6.4213   -7.6068   17.6211 C   0  0  0  0  0  0  0  0  0  0  0  0
   10.6371   -3.1490   19.0243 C   0  0  0  0  0  0  0  0  0  0  0  0
   10.0915   -2.0580   24.5396 C   0  0  0  0  0  0  0  0  0  0  0  0
    5.5547   -8.9150   15.8847 C   0  0  0  0  0  0  0  0  0  0  0  0
    9.4049   -0.7418   24.1206 C   0  0  0  0  0  0  0  0  0  0  0  0
   10.4209   -2.7062   22.1428 C   0  0  0  0  0  0  0  0  0  0  0  0
   10.2929   -6.5446   19.5842 C   0  0  0  0  0  0  0  0  0  0  0  0
   10.6638   -4.1984   23.6209 O   0  0  0  0  0  0  0  0  0  0  0  0
    7.8304   -8.3919   15.9597 C   0  0  0  0  0  0  0  0  0  0  0  0
    5.3568   -8.2664   16.9931 C   0  0  0  0  0  0  0  0  0  0  0  0
    9.2571   -7.3451   18.6369 C   0  0  0  0  0  0  0  0  0  0  0  0
    7.6793   -7.6755   17.1677 C   0  0  0  0  0  0  0  0  0  0  0  0
   10.8407   -4.8792   22.3237 N   0  0  0  0  0  0  0  0  0  0  0  0
   10.1144   -5.1947   19.3267 C   0  0  0  0  0  0  0  0  0  0  0  0
    8.9991    0.0832   25.1894 N   0  0  0  0  0  0  0  0  0  0  0  0
   10.2394   -3.5121   17.8756 N   0  0  0  0  0  0  0  0  0  0  0  0
   10.4911   -3.7541   21.3686 C   0  0  0  0  0  0  0  0  0  0  0  0
    8.6113   -6.7763   17.6613 C   0  0  0  0  0  0  0  0  0  0  0  0
    9.8790   -2.5498   25.7003 C   0  0  0  0  0  0  0  0  0  0  0  0
   10.5880   -4.1105   19.9406 C   0  0  0  0  0  0  0  0  0  0  0  0
    9.5817   -1.4502   26.6822 He  0  0  0  0  0  0  0  0  0  0  0  0
  1 11  4  0
  1 13  4  0
  2  3  4  0
  3 19  4  0
  3 21  4  0
  4 20  4  0
  5  9  4  0
  5 14  4  0
  6  9  2  0
  6 15  4  0
  6 17  4  0
  6 22  3  0
  7 18  1  0
  7 21  4  0
  7 25  4  0
  8 10  4  0
  8 24  4  0
  9 15  4  0
  9 18  3  0
 10 20  4  0
 11 22  4  0
 12 16  4  0
 12 17  3  0
 12 19  4  0
 12 25  3  0
 13 18  4  0
 13 25  3  0
 14 17  4  0
 16 21  3  0
 16 23  2  0
 17 19  3  0
 17 23  1  0
 18 22  4  0
 19 25  4  0
 22 25  1  0
M  END
$$$$

 Created by Python create_sdf_string function

 26 33  0  0  0  0  0  0  0  0999 V2000
   10.3453   -2.9870   23.3243 C   0  0  0  0  0  0  0  0  0  0  0  0
    8.7837   -5.6419   17.2080 C   0  0  0  0  0  0  0  0  0  0  0  0
    9.7543   -4.9225   17.9634 C   0  0  0  0  0  0  0  0  0  0  0  0
    9.0487   -0.3272   26.4189 C   0  0  0  0  0  0  0  0  0  0  0  0
    6.7515   -9.1523   15.4642 N   0  0  0  0  0  0  0  0  0  0  0  0
    6.4351   -7.6338   17.6403 C   0  0  0  0  0  0  0  0  0  0  0  0
   10.4932   -2.8919   19.1847 C   0  0  0  0  0  0  0  0  0  0  0  0
    9.9306   -2.1064   24.4271 C   0  0  0  0  0  0  0  0  0  0  0  0
    5.4914   -9.0241   15.8047 C   0  0  0  0  0  0  0  0  0  0  0  0
    9.4563   -0.6935   24.2507 C   0  0  0  0  0  0  0  0  0  0  0  0
    9.6065   -1.6267   26.8123 C   0  0  0  0  0  0  0  0  0  0  0  0
   10.4158   -2.7375   22.1541 C   0  0  0  0  0  0  0  0  0  0  0  0
    9.9748   -6.4939   19.3810 C   0  0  0  0  0  0  0  0  0  0  0  0
   10.6798   -4.2486   23.6095 O   0  0  0  0  0  0  0  0  0  0  0  0
    7.7139   -8.2425   15.8942 C   0  0  0  0  0  0  0  0  0  0  0  0
    5.5403   -8.5185   17.1177 C   0  0  0  0  0  0  0  0  0  0  0  0
    9.3060   -7.3446   18.8219 C   0  0  0  0  0  0  0  0  0  0  0  0
    7.6233   -7.6894   17.1425 C   0  0  0  0  0  0  0  0  0  0  0  0
   10.6919   -4.9051   22.2525 N   0  0  0  0  0  0  0  0  0  0  0  0
   10.3825   -5.2880   19.3578 C   0  0  0  0  0  0  0  0  0  0  0  0
    9.0054    0.0294   25.2234 N   0  0  0  0  0  0  0  0  0  0  0  0
   10.5482   -3.8963   21.3131 C   0  0  0  0  0  0  0  0  0  0  0  0
    9.9713   -2.4221   25.8558 C   0  0  0  0  0  0  0  0  0  0  0  0
   10.4097   -4.1181   20.0710 C   0  0  0  0  0  0  0  0  0  0  0  0
   10.1616   -3.6022   17.9423 He  0  0  0  0  0  0  0  0  0  0  0  0
    8.6453   -6.8171   17.4618 He  0  0  0  0  0  0  0  0  0  0  0  0
  1  8  1  0
  1 12  4  0
  1 14  4  0
  2  3  4  0
  2 10  4  0
  3 20  4  0
  4  9  3  0
  4 11  4  0
  4 21  4  0
  5  9  4  0
  5 11  1  0
  5 15  4  0
  6 15  1  0
  6 16  4  0
  6 18  4  0
  7 13  2  0
  7 24  4  0
  8 10  4  0
  8 23  4  0
  9 16  4  0
  9 21  3  0
 10 21  4  0
 11 23  4  0
 12 22  4  0
 13 17  4  0
 13 20  4  0
 14 19  4  0
 15 18  4  0
 17 23  3  0
 18 21  3  0
 19 22  4  0
 20 24  4  0
 22 24  1  0
M  END
$$$$

 Created by Python create_sdf_string function

 26 42  0  0  0  0  0  0  0  0999 V2000
   10.3715   -2.9267   23.3566 C   0  0  0  0  0  0  0  0  0  0  0  0
    9.0738   -5.6010   17.1445 C   0  0  0  0  0  0  0  0  0  0  0  0
    9.7155   -4.8077   18.0468 C   0  0  0  0  0  0  0  0  0  0  0  0
    8.9719   -0.2628   26.5235 C   0  0  0  0  0  0  0  0  0  0  0  0
    6.7319   -8.9837   15.3879 N   0  0  0  0  0  0  0  0  0  0  0  0
    6.4942   -7.7229   17.4742 C   0  0  0  0  0  0  0  0  0  0  0  0
   10.5154   -2.9612   19.0602 C   0  0  0  0  0  0  0  0  0  0  0  0
    9.9209   -2.0533   24.5179 C   0  0  0  0  0  0  0  0  0  0  0  0
    5.7424   -9.1101   15.9473 C   0  0  0  0  0  0  0  0  0  0  0  0
    9.3469   -0.8821   24.1775 C   0  0  0  0  0  0  0  0  0  0  0  0
    9.4711   -1.5265   26.8380 C   0  0  0  0  0  0  0  0  0  0  0  0
   10.3405   -2.7066   22.1373 C   0  0  0  0  0  0  0  0  0  0  0  0
   10.0986   -6.5541   19.5233 C   0  0  0  0  0  0  0  0  0  0  0  0
    7.6995   -8.2514   15.8273 C   0  0  0  0  0  0  0  0  0  0  0  0
    5.4753   -8.3730   17.0529 C   0  0  0  0  0  0  0  0  0  0  0  0
    9.3773   -7.2905   18.7265 B   0  0  0  0  0  0  0  0  0  0  0  0
    7.6980   -7.6219   17.0109 C   0  0  0  0  0  0  0  0  0  0  0  0
   10.8150   -4.7580   22.4103 N   0  0  0  0  0  0  0  0  0  0  0  0
   10.1393   -5.1728   19.3011 C   0  0  0  0  0  0  0  0  0  0  0  0
    8.9474    0.0418   25.2192 N   0  0  0  0  0  0  0  0  0  0  0  0
    9.9504   -3.5373   18.1068 N   0  0  0  0  0  0  0  0  0  0  0  0
   10.6270   -3.7960   21.4872 C   0  0  0  0  0  0  0  0  0  0  0  0
    8.6939   -6.9457   17.6515 C   0  0  0  0  0  0  0  0  0  0  0  0
    9.7989   -2.4763   25.8519 C   0  0  0  0  0  0  0  0  0  0  0  0
   10.3454   -4.1500   19.9071 C   0  0  0  0  0  0  0  0  0  0  0  0
   10.6021   -4.2210   23.5773 He  0  0  0  0  0  0  0  0  0  0  0  0
  1  8  1  0
  1 12  4  0
  1 20  1  0
  2  3  4  0
  2 23  4  0
  3 19  4  0
  3 21  4  0
  4  7  2  0
  4 11  4  0
  4 20  4  0
  5  9  4  0
  5 14  4  0
  5 22  4  0
  6 15  4  0
  6 17  4  0
  7  9  4  0
  7 16  1  0
  7 21  4  0
  7 25  4  0
  8 10  4  0
  8 15  3  0
  8 24  4  0
  9 15  4  0
  9 23  2  0
 10 16  2  0
 10 20  4  0
 10 21  3  0
 11 18  4  0
 11 24  4  0
 12 25  1  0
 13 16  4  0
 13 19  4  0
 14 15  2  0
 14 17  4  0
 14 21  3  0
 15 18  4  0
 16 23  4  0
 17 23  1  0
 18 22  4  0
 19 25  4  0
 21 24  2  0
 22 25  1  0
M  END
$$$$

 Created by Python create_sdf_string function

 26 29  0  0  0  0  0  0  0  0999 V2000
    9.1104   -5.6834   17.3246 C   0  0  0  0  0  0  0  0  0  0  0  0
    9.7534   -4.7000   18.0403 C   0  0  0  0  0  0  0  0  0  0  0  0
    9.0241   -0.3380   26.4481 C   0  0  0  0  0  0  0  0  0  0  0  0
    6.8127   -9.0032   15.4473 N   0  0  0  0  0  0  0  0  0  0  0  0
    6.3510   -7.6910   17.4432 C   0  0  0  0  0  0  0  0  0  0  0  0
    9.8227   -2.0188   24.4603 C   0  0  0  0  0  0  0  0  0  0  0  0
    5.6769   -9.0499   15.9300 C   0  0  0  0  0  0  0  0  0  0  0  0
    9.5015   -0.8232   24.3076 C   0  0  0  0  0  0  0  0  0  0  0  0
    9.4216   -1.5939   26.8412 C   0  0  0  0  0  0  0  0  0  0  0  0
   10.4751   -2.6140   22.1785 C   0  0  0  0  0  0  0  0  0  0  0  0
   10.1882   -6.6054   19.5055 C   0  0  0  0  0  0  0  0  0  0  0  0
   10.7285   -4.2049   23.6221 N   0  0  0  0  0  0  0  0  0  0  0  0
    7.7482   -8.2156   15.8319 C   0  0  0  0  0  0  0  0  0  0  0  0
    5.4535   -8.3036   17.1669 C   0  0  0  0  0  0  0  0  0  0  0  0
    9.3713   -7.3953   18.5659 C   0  0  0  0  0  0  0  0  0  0  0  0
    7.7763   -7.5767   17.0232 C   0  0  0  0  0  0  0  0  0  0  0  0
   10.8099   -4.8715   22.3319 N   0  0  0  0  0  0  0  0  0  0  0  0
   10.0475   -5.1457   19.2953 C   0  0  0  0  0  0  0  0  0  0  0  0
    8.9252   -0.0169   25.2812 C   0  0  0  0  0  0  0  0  0  0  0  0
   10.0081   -3.5470   17.8087 N   0  0  0  0  0  0  0  0  0  0  0  0
   10.6539   -3.8607   21.3855 C   0  0  0  0  0  0  0  0  0  0  0  0
    8.8069   -6.8400   17.6853 C   0  0  0  0  0  0  0  0  0  0  0  0
    9.9734   -2.3722   25.9969 C   0  0  0  0  0  0  0  0  0  0  0  0
   10.2185   -4.0528   20.2087 C   0  0  0  0  0  0  0  0  0  0  0  0
   10.2710   -2.8945   23.3796 He  0  0  0  0  0  0  0  0  0  0  0  0
   10.5489   -3.0689   19.1217 He  0  0  0  0  0  0  0  0  0  0  0  0
  1 22  4  0
  2 18  4  0
  2 20  4  0
  2 23  1  0
  3  9  4  0
  3 19  4  0
  4  7  4  0
  4 13  4  0
  4 20  1  0
  5 14  4  0
  5 16  4  0
  6  8  4  0
  6 12  2  0
  6 23  4  0
  7 14  4  0
  8 19  4  0
  9 23  4  0
  9 24  4  0
 10 21  4  0
 11 15  4  0
 11 18  4  0
 13 16  4  0
 13 19  1  0
 15 20  2  0
 15 22  4  0
 16 22  1  0
 17 21  4  0
 18 24  4  0
 21 24  1  0
M  END
$$$$

 Created by Python create_sdf_string function

 26 29  0  0  0  0  0  0  0  0999 V2000
   10.4438   -2.8880   23.4732 C   0  0  0  0  0  0  0  0  0  0  0  0
    9.0456   -5.6091   17.0977 C   0  0  0  0  0  0  0  0  0  0  0  0
    9.7111   -4.8773   18.0475 C   0  0  0  0  0  0  0  0  0  0  0  0
    8.9979   -0.2928   26.6203 C   0  0  0  0  0  0  0  0  0  0  0  0
    6.4407   -7.5205   17.5210 C   0  0  0  0  0  0  0  0  0  0  0  0
   10.5686   -2.8772   19.2047 N   0  0  0  0  0  0  0  0  0  0  0  0
    9.8567   -2.0010   24.5626 C   0  0  0  0  0  0  0  0  0  0  0  0
    5.5631   -8.9697   15.9693 C   0  0  0  0  0  0  0  0  0  0  0  0
    9.4456   -0.8610   24.1654 C   0  0  0  0  0  0  0  0  0  0  0  0
    9.5275   -1.5366   26.9186 C   0  0  0  0  0  0  0  0  0  0  0  0
   10.3588   -2.6984   21.9612 C   0  0  0  0  0  0  0  0  0  0  0  0
   10.1853   -6.5842   19.7261 C   0  0  0  0  0  0  0  0  0  0  0  0
   10.6300   -4.2096   23.5765 N   0  0  0  0  0  0  0  0  0  0  0  0
    7.7663   -8.2804   15.9473 C   0  0  0  0  0  0  0  0  0  0  0  0
    5.3048   -8.3571   17.1664 C   0  0  0  0  0  0  0  0  0  0  0  0
   10.7403   -4.8590   22.3252 N   0  0  0  0  0  0  0  0  0  0  0  0
   10.0353   -5.2692   19.2688 C   0  0  0  0  0  0  0  0  0  0  0  0
    8.8912    0.1322   25.2479 C   0  0  0  0  0  0  0  0  0  0  0  0
    9.9998   -3.6066   17.8583 N   0  0  0  0  0  0  0  0  0  0  0  0
   10.5332   -3.8697   21.3362 C   0  0  0  0  0  0  0  0  0  0  0  0
    8.6685   -6.8448   17.5691 C   0  0  0  0  0  0  0  0  0  0  0  0
    9.8786   -2.4659   25.9727 C   0  0  0  0  0  0  0  0  0  0  0  0
    6.8922   -8.9603   15.4254 He  0  0  0  0  0  0  0  0  0  0  0  0
    9.3913   -7.4447   18.7906 He  0  0  0  0  0  0  0  0  0  0  0  0
    7.7552   -7.6161   17.1467 He  0  0  0  0  0  0  0  0  0  0  0  0
   10.5332   -4.0376   20.1078 He  0  0  0  0  0  0  0  0  0  0  0  0
  1  7  1  0
  1 11  4  0
  1 13  4  0
  2  3  4  0
  2 21  4  0
  3 17  4  0
  3 19  4  0
  4 10  4  0
  4 18  4  0
  5  8  4  0
  5 12  4  0
  5 13  4  0
  5 15  4  0
  5 19  4  0
  6 19  4  0
  7  9  4  0
  7 22  4  0
  8 15  4  0
  8 18  1  0
  9 13  3  0
  9 18  4  0
 10 11  1  0
 10 22  4  0
 11 17  3  0
 11 20  4  0
 12 17  4  0
 13 16  4  0
 15 20  4  0
 16 20  4  0
M  END
$$$$

 Created by Python create_sdf_string function

 26 37  0  0  0  0  0  0  0  0999 V2000
   10.3153   -3.0102   23.4650 C   0  0  0  0  0  0  0  0  0  0  0  0
    8.9243   -5.5259   17.1720 C   0  0  0  0  0  0  0  0  0  0  0  0
    9.8747   -4.8642   18.0053 C   0  0  0  0  0  0  0  0  0  0  0  0
    9.0105   -0.3304   26.4894 C   0  0  0  0  0  0  0  0  0  0  0  0
    6.9140   -9.0519   15.4091 N   0  0  0  0  0  0  0  0  0  0  0  0
    6.5863   -7.6154   17.6055 C   0  0  0  0  0  0  0  0  0  0  0  0
   10.5628   -3.0413   19.0658 N   0  0  0  0  0  0  0  0  0  0  0  0
    9.9205   -1.9856   24.4813 C   0  0  0  0  0  0  0  0  0  0  0  0
    5.5325   -9.0731   16.0621 C   0  0  0  0  0  0  0  0  0  0  0  0
    9.4687   -0.7034   24.3113 C   0  0  0  0  0  0  0  0  0  0  0  0
    9.4382   -1.6322   26.7844 C   0  0  0  0  0  0  0  0  0  0  0  0
   10.2958   -2.7383   22.0534 C   0  0  0  0  0  0  0  0  0  0  0  0
   10.0626   -6.6868   19.7999 C   0  0  0  0  0  0  0  0  0  0  0  0
   10.5907   -4.1583   23.7248 Cl  0  0  0  0  0  0  0  0  0  0  0  0
    7.7384   -8.4327   15.8728 C   0  0  0  0  0  0  0  0  0  0  0  0
    5.4277   -8.2650   17.1346 C   0  0  0  0  0  0  0  0  0  0  0  0
    9.4348   -7.4006   18.8053 C   0  0  0  0  0  0  0  0  0  0  0  0
    7.7061   -7.4518   17.1190 C   0  0  0  0  0  0  0  0  0  0  0  0
   10.7855   -4.7951   22.2728 N   0  0  0  0  0  0  0  0  0  0  0  0
   10.0887   -5.1812   19.3042 C   0  0  0  0  0  0  0  0  0  0  0  0
    8.9993    0.0939   25.2455 C   0  0  0  0  0  0  0  0  0  0  0  0
   10.0814   -3.5532   18.0030 N   0  0  0  0  0  0  0  0  0  0  0  0
   10.6869   -3.7854   21.4577 C   0  0  0  0  0  0  0  0  0  0  0  0
    8.6845   -6.8990   17.7612 C   0  0  0  0  0  0  0  0  0  0  0  0
    9.9678   -2.3629   25.9063 C   0  0  0  0  0  0  0  0  0  0  0  0
   10.4572   -3.9609   20.1039 C   0  0  0  0  0  0  0  0  0  0  0  0
  1  4  2  0
  1  8  1  0
  1 12  4  0
  1 14  4  0
  2  3  4  0
  2 24  4  0
  3 20  4  0
  3 22  4  0
  4 11  4  0
  4 21  4  0
  5 15  4  0
  6 10  4  0
  6 18  4  0
  7 12  3  0
  7 22  4  0
  7 26  4  0
  8 10  4  0
  8 25  4  0
  9 13  3  0
  9 16  4  0
 10 21  1  0
 11 25  4  0
 12 18  1  0
 12 19  3  0
 12 23  4  0
 13 17  4  0
 13 20  1  0
 14 19  4  0
 15 18  4  0
 15 23  1  0
 17 19  2  0
 17 24  4  0
 18 24  1  0
 19 23  4  0
 20 26  4  0
 21 22  4  0
 23 26  1  0
M  END
$$$$

 Created by Python create_sdf_string function

 26 35  0  0  0  0  0  0  0  0999 V2000
   10.2081   -2.9319   23.3905 C   0  0  0  0  0  0  0  0  0  0  0  0
    9.0413   -5.5582   17.2828 C   0  0  0  0  0  0  0  0  0  0  0  0
    9.7150   -4.6720   18.0214 C   0  0  0  0  0  0  0  0  0  0  0  0
    8.9340   -0.3277   26.5328 C   0  0  0  0  0  0  0  0  0  0  0  0
    6.9152   -9.0450   15.3991 C   0  0  0  0  0  0  0  0  0  0  0  0
    6.3897   -7.5098   17.5712 C   0  0  0  0  0  0  0  0  0  0  0  0
   10.5333   -3.0320   19.1215 C   0  0  0  0  0  0  0  0  0  0  0  0
    9.9181   -2.0322   24.5720 C   0  0  0  0  0  0  0  0  0  0  0  0
    5.5300   -9.1835   16.0742 C   0  0  0  0  0  0  0  0  0  0  0  0
    9.5388   -0.6507   24.1601 C   0  0  0  0  0  0  0  0  0  0  0  0
    9.5111   -1.5722   26.8292 C   0  0  0  0  0  0  0  0  0  0  0  0
   10.3206   -2.6832   22.2064 C   0  0  0  0  0  0  0  0  0  0  0  0
    9.9884   -6.5501   19.7243 C   0  0  0  0  0  0  0  0  0  0  0  0
   10.6392   -4.1404   23.5566 N   0  0  0  0  0  0  0  0  0  0  0  0
    7.7800   -8.2907   15.8327 C   0  0  0  0  0  0  0  0  0  0  0  0
    5.3845   -8.3495   17.1406 C   0  0  0  0  0  0  0  0  0  0  0  0
    9.3124   -7.4393   18.8773 C   0  0  0  0  0  0  0  0  0  0  0  0
    7.6522   -7.6790   17.1244 C   0  0  0  0  0  0  0  0  0  0  0  0
   10.9465   -4.8247   22.3386 N   0  0  0  0  0  0  0  0  0  0  0  0
   10.0473   -5.2398   19.3097 C   0  0  0  0  0  0  0  0  0  0  0  0
    9.0323    0.1173   25.2271 C   0  0  0  0  0  0  0  0  0  0  0  0
   10.0665   -3.5762   17.9010 N   0  0  0  0  0  0  0  0  0  0  0  0
   10.5452   -3.7792   21.4178 C   0  0  0  0  0  0  0  0  0  0  0  0
    8.6629   -6.8195   17.6970 C   0  0  0  0  0  0  0  0  0  0  0  0
    9.8728   -2.4035   25.8258 C   0  0  0  0  0  0  0  0  0  0  0  0
   10.5133   -4.0773   20.0801 C   0  0  0  0  0  0  0  0  0  0  0  0
  1  8  1  0
  1 12  4  0
  1 14  4  0
  2  3  4  0
  2 24  4  0
  3 20  4  0
  3 22  4  0
  4 11  4  0
  4 20  3  0
  4 21  4  0
  5  9  4  0
  5 15  4  0
  5 18  3  0
  6 16  4  0
  6 18  4  0
  7 20  3  0
  7 22  4  0
  8 10  4  0
  8 17  1  0
  8 25  4  0
  9 16  4  0
  9 23  4  0
 10 21  4  0
 11 25  4  0
 12 23  4  0
 12 24  4  0
 13 17  4  0
 13 20  4  0
 14 19  4  0
 15 18  4  0
 17 24  4  0
 18 24  1  0
 19 23  4  0
 20 26  4  0
 23 26  1  0
M  END
$$$$

 Created by Python create_sdf_string function

 26 33  0  0  0  0  0  0  0  0999 V2000
   10.2904   -2.8739   23.4772 C   0  0  0  0  0  0  0  0  0  0  0  0
    8.9674   -5.6787   17.2901 C   0  0  0  0  0  0  0  0  0  0  0  0
    9.7080   -4.7294   18.0620 C   0  0  0  0  0  0  0  0  0  0  0  0
    8.9765   -0.3841   26.6132 C   0  0  0  0  0  0  0  0  0  0  0  0
    6.8554   -9.0906   15.4664 C   0  0  0  0  0  0  0  0  0  0  0  0
   10.6175   -2.9571   19.2095 C   0  0  0  0  0  0  0  0  0  0  0  0
    9.8649   -1.9850   24.5125 C   0  0  0  0  0  0  0  0  0  0  0  0
    5.5795   -9.0443   16.0279 C   0  0  0  0  0  0  0  0  0  0  0  0
    9.5837   -0.7482   24.1929 C   0  0  0  0  0  0  0  0  0  0  0  0
    9.4499   -1.5313   26.7546 C   0  0  0  0  0  0  0  0  0  0  0  0
   10.2748   -2.6521   22.1179 C   0  0  0  0  0  0  0  0  0  0  0  0
    9.9813   -6.6393   19.6101 C   0  0  0  0  0  0  0  0  0  0  0  0
   10.6272   -4.2534   23.7166 N   0  0  0  0  0  0  0  0  0  0  0  0
    7.8475   -8.3252   16.0556 C   0  0  0  0  0  0  0  0  0  0  0  0
    5.3792   -8.4634   17.1331 C   0  0  0  0  0  0  0  0  0  0  0  0
    9.3059   -7.2850   18.8879 C   0  0  0  0  0  0  0  0  0  0  0  0
    7.5377   -7.5877   17.1737 C   0  0  0  0  0  0  0  0  0  0  0  0
   10.8238   -4.8554   22.3769 N   0  0  0  0  0  0  0  0  0  0  0  0
   10.1215   -5.2934   19.3405 C   0  0  0  0  0  0  0  0  0  0  0  0
    9.0299    0.2465   25.2545 C   0  0  0  0  0  0  0  0  0  0  0  0
   10.1171   -3.4713   17.9138 N   0  0  0  0  0  0  0  0  0  0  0  0
   10.6034   -3.9048   21.3591 C   0  0  0  0  0  0  0  0  0  0  0  0
    8.6337   -6.8145   17.8156 C   0  0  0  0  0  0  0  0  0  0  0  0
    9.8543   -2.4282   25.8578 C   0  0  0  0  0  0  0  0  0  0  0  0
   10.4644   -4.1162   20.1437 C   0  0  0  0  0  0  0  0  0  0  0  0
    6.3046   -7.6566   17.7115 He  0  0  0  0  0  0  0  0  0  0  0  0
  1  7  1  0
  1 11  4  0
  1 13  4  0
  2  3  4  0
  2 23  4  0
  3 19  1  0
  3 21  4  0
  3 24  1  0
  4  7  3  0
  4 10  4  0
  4 20  4  0
  5  8  4  0
  5 14  4  0
  6 12  1  0
  6 15  2  0
  6 21  4  0
  6 25  4  0
  7  9  4  0
  7 24  4  0
  8 15  4  0
  9 20  4  0
 10 24  4  0
 11 22  4  0
 12 16  4  0
 12 19  4  0
 12 21  2  0
 13 18  4  0
 14 17  4  0
 16 23  4  0
 17 23  1  0
 18 22  4  0
 19 25  4  0
 22 25  1  0
M  END
$$$$

 Created by Python create_sdf_string function

 26 32  0  0  0  0  0  0  0  0999 V2000
   10.2894   -2.8803   23.4956 C   0  0  0  0  0  0  0  0  0  0  0  0
    9.0665   -5.5560   17.3377 C   0  0  0  0  0  0  0  0  0  0  0  0
    9.6498   -4.8088   18.0401 C   0  0  0  0  0  0  0  0  0  0  0  0
    9.1018   -0.3195   26.5126 C   0  0  0  0  0  0  0  0  0  0  0  0
    6.7886   -8.9943   15.4424 C   0  0  0  0  0  0  0  0  0  0  0  0
    6.2935   -7.5852   17.6041 C   0  0  0  0  0  0  0  0  0  0  0  0
   10.6051   -3.0755   19.1644 C   0  0  0  0  0  0  0  0  0  0  0  0
    9.9070   -1.9449   24.5891 C   0  0  0  0  0  0  0  0  0  0  0  0
    5.6284   -9.0676   16.0068 C   0  0  0  0  0  0  0  0  0  0  0  0
    9.6196   -0.6873   24.1300 C   0  0  0  0  0  0  0  0  0  0  0  0
    9.4919   -1.5642   26.8891 C   0  0  0  0  0  0  0  0  0  0  0  0
   10.3068   -2.6356   22.1233 C   0  0  0  0  0  0  0  0  0  0  0  0
   10.1085   -6.6672   19.8026 C   0  0  0  0  0  0  0  0  0  0  0  0
   10.6227   -4.1414   23.6952 N   0  0  0  0  0  0  0  0  0  0  0  0
    7.7829   -8.2792   16.0189 C   0  0  0  0  0  0  0  0  0  0  0  0
    5.3709   -8.3089   17.1468 C   0  0  0  0  0  0  0  0  0  0  0  0
    9.2438   -7.3389   18.8945 Cl  0  0  0  0  0  0  0  0  0  0  0  0
    7.5153   -7.7081   17.2052 C   0  0  0  0  0  0  0  0  0  0  0  0
   10.8071   -4.7498   22.4240 N   0  0  0  0  0  0  0  0  0  0  0  0
   10.0640   -5.2415   19.3324 C   0  0  0  0  0  0  0  0  0  0  0  0
    9.1121    0.1377   25.2716 C   0  0  0  0  0  0  0  0  0  0  0  0
   10.1554   -3.5119   17.9070 N   0  0  0  0  0  0  0  0  0  0  0  0
   10.6414   -3.8446   21.4234 C   0  0  0  0  0  0  0  0  0  0  0  0
    8.6042   -6.8229   17.7380 C   0  0  0  0  0  0  0  0  0  0  0  0
    9.8001   -2.4041   25.8177 C   0  0  0  0  0  0  0  0  0  0  0  0
   10.5299   -4.1005   20.0565 C   0  0  0  0  0  0  0  0  0  0  0  0
  1  8  1  0
  1 12  4  0
  1 14  4  0
  2  3  4  0
  2 11  2  0
  2 21  3  0
  2 24  4  0
  3 20  4  0
  3 22  4  0
  4 11  4  0
  4 21  4  0
  5  9  4  0
  5 15  4  0
  5 16  2  0
  6 16  4  0
  6 18  4  0
  7 22  4  0
  7 26  4  0
  8 10  4  0
  9 16  4  0
 10 21  4  0
 11 25  4  0
 12 23  4  0
 13 17  4  0
 13 20  4  0
 14 19  4  0
 15 18  4  0
 17 24  4  0
 18 24  1  0
 19 23  4  0
 20 26  4  0
 23 26  1  0
M  END
$$$$

 Created by Python create_sdf_string function

 26 31  0  0  0  0  0  0  0  0999 V2000
   10.2852   -2.8323   23.4972 C   0  0  0  0  0  0  0  0  0  0  0  0
    9.0205   -5.6014   17.2991 C   0  0  0  0  0  0  0  0  0  0  0  0
    9.7501   -4.8338   18.0746 C   0  0  0  0  0  0  0  0  0  0  0  0
    9.0839   -0.3796   26.4918 C   0  0  0  0  0  0  0  0  0  0  0  0
    6.8709   -8.9702   15.4374 C   0  0  0  0  0  0  0  0  0  0  0  0
    6.3398   -7.5686   17.6367 C   0  0  0  0  0  0  0  0  0  0  0  0
   10.5893   -3.1308   19.2084 C   0  0  0  0  0  0  0  0  0  0  0  0
    9.9065   -1.9180   24.4994 C   0  0  0  0  0  0  0  0  0  0  0  0
    5.6365   -9.0735   16.0141 C   0  0  0  0  0  0  0  0  0  0  0  0
    9.5206   -0.6888   24.2018 C   0  0  0  0  0  0  0  0  0  0  0  0
    9.4713   -1.5960   26.8939 C   0  0  0  0  0  0  0  0  0  0  0  0
   10.3157   -2.6025   22.1045 C   0  0  0  0  0  0  0  0  0  0  0  0
    9.9939   -6.5820   19.7232 C   0  0  0  0  0  0  0  0  0  0  0  0
   10.6883   -4.1354   23.5902 N   0  0  0  0  0  0  0  0  0  0  0  0
    7.8217   -8.2385   15.9751 C   0  0  0  0  0  0  0  0  0  0  0  0
    5.2873   -8.3486   17.1197 C   0  0  0  0  0  0  0  0  0  0  0  0
    9.2819   -7.2972   18.8665 C   0  0  0  0  0  0  0  0  0  0  0  0
    7.5807   -7.5342   17.0969 C   0  0  0  0  0  0  0  0  0  0  0  0
   10.7483   -4.7181   22.4457 N   0  0  0  0  0  0  0  0  0  0  0  0
   10.1429   -5.2260   19.3622 C   0  0  0  0  0  0  0  0  0  0  0  0
    9.2206    0.1693   25.1598 C   0  0  0  0  0  0  0  0  0  0  0  0
   10.2055   -3.5052   17.8008 N   0  0  0  0  0  0  0  0  0  0  0  0
   10.5442   -3.8960   21.4581 C   0  0  0  0  0  0  0  0  0  0  0  0
    8.6416   -6.8779   17.7721 C   0  0  0  0  0  0  0  0  0  0  0  0
    9.8626   -2.3930   25.8332 C   0  0  0  0  0  0  0  0  0  0  0  0
   10.5132   -4.0646   20.0960 C   0  0  0  0  0  0  0  0  0  0  0  0
  1  8  1  0
  1 12  4  0
  1 14  4  0
  2  3  4  0
  2 24  4  0
  3 20  4  0
  3 22  4  0
  4 11  4  0
  4 21  4  0
  5  9  4  0
  5 15  4  0
  6 16  4  0
  6 18  1  0
  7 22  4  0
  7 26  4  0
  8 10  4  0
  8 25  4  0
  9 16  4  0
 10 21  4  0
 11 25  4  0
 12 23  4  0
 13 17  4  0
 13 20  4  0
 14 19  4  0
 15 18  4  0
 17 24  4  0
 18 21  2  0
 18 24  1  0
 19 23  4  0
 20 26  4  0
 23 26  1  0
M  END
$$$$

 Created by Python create_sdf_string function

 26 35  0  0  0  0  0  0  0  0999 V2000
   10.2492   -2.8455   23.5137 C   0  0  0  0  0  0  0  0  0  0  0  0
    9.0022   -5.5799   17.3369 C   0  0  0  0  0  0  0  0  0  0  0  0
    9.8693   -4.8481   18.1202 C   0  0  0  0  0  0  0  0  0  0  0  0
    9.1729   -0.3306   26.5254 C   0  0  0  0  0  0  0  0  0  0  0  0
    6.8549   -9.0256   15.3956 C   0  0  0  0  0  0  0  0  0  0  0  0
    6.2448   -7.5776   17.6397 C   0  0  0  0  0  0  0  0  0  0  0  0
   10.6387   -3.0978   19.2099 C   0  0  0  0  0  0  0  0  0  0  0  0
    9.9730   -2.0063   24.4778 C   0  0  0  0  0  0  0  0  0  0  0  0
    5.5791   -9.0278   16.0526 C   0  0  0  0  0  0  0  0  0  0  0  0
    9.5823   -0.7141   24.2274 C   0  0  0  0  0  0  0  0  0  0  0  0
    9.4283   -1.5928   26.8693 C   0  0  0  0  0  0  0  0  0  0  0  0
   10.3236   -2.6940   22.0529 C   0  0  0  0  0  0  0  0  0  0  0  0
    9.9689   -6.5667   19.7341 C   0  0  0  0  0  0  0  0  0  0  0  0
   10.6457   -4.0793   23.6361 N   0  0  0  0  0  0  0  0  0  0  0  0
    7.8730   -8.2301   16.0003 C   0  0  0  0  0  0  0  0  0  0  0  0
    5.3118   -8.2827   17.1532 C   0  0  0  0  0  0  0  0  0  0  0  0
    9.2337   -7.3556   18.8063 C   0  0  0  0  0  0  0  0  0  0  0  0
    7.6325   -7.5986   17.1551 C   0  0  0  0  0  0  0  0  0  0  0  0
   10.7773   -4.8252   22.4160 N   0  0  0  0  0  0  0  0  0  0  0  0
   10.1579   -5.2147   19.3696 C   0  0  0  0  0  0  0  0  0  0  0  0
    9.1793    0.1255   25.1596 C   0  0  0  0  0  0  0  0  0  0  0  0
   10.1614   -3.5141   17.8684 N   0  0  0  0  0  0  0  0  0  0  0  0
   10.4784   -3.7951   21.4604 C   0  0  0  0  0  0  0  0  0  0  0  0
    8.6222   -6.8793   17.7222 C   0  0  0  0  0  0  0  0  0  0  0  0
    9.9331   -2.4267   25.7552 C   0  0  0  0  0  0  0  0  0  0  0  0
   10.4542   -4.0787   20.2108 C   0  0  0  0  0  0  0  0  0  0  0  0
  1  8  1  0
  1 12  4  0
  1 14  4  0
  2  3  4  0
  2 24  4  0
  3 20  4  0
  3 22  4  0
  4 11  4  0
  4 21  4  0
  5  9  4  0
  5 10  3  0
  5 15  4  0
  6  9  3  0
  6 16  4  0
  6 18  4  0
  7 22  4  0
  7 26  4  0
  8 10  4  0
  8 11  4  0
  8 17  2  0
  8 25  4  0
  9 16  4  0
 10 21  4  0
 11 25  4  0
 12 23  4  0
 13 17  4  0
 13 20  4  0
 14 19  4  0
 15 18  4  0
 17 24  4  0
 18 24  1  0
 19 23  4  0
 20 25  2  0
 20 26  4  0
 23 26  1  0
M  END
$$$$

 Created by Python create_sdf_string function

 26 33  0  0  0  0  0  0  0  0999 V2000
   10.2716   -2.8284   23.4377 C   0  0  0  0  0  0  0  0  0  0  0  0
    9.0249   -5.6175   17.3452 C   0  0  0  0  0  0  0  0  0  0  0  0
    9.7744   -4.7824   18.1075 C   0  0  0  0  0  0  0  0  0  0  0  0
    9.1254   -0.2899   26.5071 C   0  0  0  0  0  0  0  0  0  0  0  0
    6.7825   -8.9913   15.4855 C   0  0  0  0  0  0  0  0  0  0  0  0
    6.3156   -7.5938   17.6794 C   0  0  0  0  0  0  0  0  0  0  0  0
   10.6201   -3.0576   19.1956 C   0  0  0  0  0  0  0  0  0  0  0  0
    9.8617   -1.9423   24.4769 C   0  0  0  0  0  0  0  0  0  0  0  0
    5.6452   -9.0124   16.0196 C   0  0  0  0  0  0  0  0  0  0  0  0
    9.5444   -0.7190   24.1297 C   0  0  0  0  0  0  0  0  0  0  0  0
    9.4942   -1.6233   26.8904 C   0  0  0  0  0  0  0  0  0  0  0  0
   10.2922   -2.6427   22.0778 N   0  0  0  0  0  0  0  0  0  0  0  0
   10.0112   -6.5373   19.7404 C   0  0  0  0  0  0  0  0  0  0  0  0
   10.7007   -4.0207   23.6617 N   0  0  0  0  0  0  0  0  0  0  0  0
    7.8045   -8.2546   16.0368 C   0  0  0  0  0  0  0  0  0  0  0  0
    5.2560   -8.3196   17.1175 C   0  0  0  0  0  0  0  0  0  0  0  0
    9.2937   -7.3457   18.8607 Cl  0  0  0  0  0  0  0  0  0  0  0  0
    7.6317   -7.5970   17.1235 C   0  0  0  0  0  0  0  0  0  0  0  0
   10.7321   -4.7436   22.3876 N   0  0  0  0  0  0  0  0  0  0  0  0
   10.1442   -5.2407   19.4058 C   0  0  0  0  0  0  0  0  0  0  0  0
    9.2077    0.1396   25.2548 C   0  0  0  0  0  0  0  0  0  0  0  0
   10.1735   -3.5674   17.9539 N   0  0  0  0  0  0  0  0  0  0  0  0
   10.4488   -3.8026   21.4925 C   0  0  0  0  0  0  0  0  0  0  0  0
    8.6674   -6.8639   17.7430 C   0  0  0  0  0  0  0  0  0  0  0  0
    9.9596   -2.5231   25.8644 C   0  0  0  0  0  0  0  0  0  0  0  0
   10.4744   -4.0555   20.1181 C   0  0  0  0  0  0  0  0  0  0  0  0
  1  8  1  0
  1 12  4  0
  1 14  4  0
  2  3  4  0
  2 24  4  0
  3 20  4  0
  3 22  4  0
  4 11  4  0
  4 21  4  0
  5  9  4  0
  5 15  4  0
  6 16  4  0
  6 18  4  0
  7 22  4  0
  7 26  4  0
  8 10  4  0
  8 25  4  0
  9 16  4  0
  9 26  3  0
 10 21  4  0
 10 22  4  0
 11 25  4  0
 12 13  4  0
 12 23  4  0
 13 17  4  0
 13 20  4  0
 14 19  4  0
 15 18  4  0
 17 24  4  0
 18 24  1  0
 19 23  4  0
 20 26  4  0
 23 26  1  0
M  END
$$$$

 Created by Python create_sdf_string function

 26 30  0  0  0  0  0  0  0  0999 V2000
   10.2545   -2.8753   23.3667 C   0  0  0  0  0  0  0  0  0  0  0  0
    8.9934   -5.6218   17.3316 C   0  0  0  0  0  0  0  0  0  0  0  0
    9.7567   -4.8361   18.1127 C   0  0  0  0  0  0  0  0  0  0  0  0
    9.1638   -0.3347   26.5571 C   0  0  0  0  0  0  0  0  0  0  0  0
    6.7421   -9.0026   15.4905 C   0  0  0  0  0  0  0  0  0  0  0  0
    6.3078   -7.6005   17.7357 C   0  0  0  0  0  0  0  0  0  0  0  0
   10.6139   -2.9878   19.2241 C   0  0  0  0  0  0  0  0  0  0  0  0
    9.9380   -1.9641   24.5425 C   0  0  0  0  0  0  0  0  0  0  0  0
    5.5769   -9.0423   16.0155 C   0  0  0  0  0  0  0  0  0  0  0  0
    9.5718   -0.6914   24.1631 C   0  0  0  0  0  0  0  0  0  0  0  0
    9.4630   -1.5877   26.8984 C   0  0  0  0  0  0  0  0  0  0  0  0
   10.2711   -2.5398   22.1600 N   0  0  0  0  0  0  0  0  0  0  0  0
   10.0051   -6.5463   19.7365 C   0  0  0  0  0  0  0  0  0  0  0  0
   10.7009   -4.0680   23.6594 N   0  0  0  0  0  0  0  0  0  0  0  0
    7.7801   -8.2427   15.9935 C   0  0  0  0  0  0  0  0  0  0  0  0
    5.3272   -8.3275   17.0497 C   0  0  0  0  0  0  0  0  0  0  0  0
    9.2864   -7.3724   18.9122 C   0  0  0  0  0  0  0  0  0  0  0  0
    7.5910   -7.5412   17.1195 C   0  0  0  0  0  0  0  0  0  0  0  0
   10.7741   -4.7121   22.3866 O   0  0  0  0  0  0  0  0  0  0  0  0
   10.0899   -5.2457   19.3579 C   0  0  0  0  0  0  0  0  0  0  0  0
    9.1208    0.1471   25.1574 C   0  0  0  0  0  0  0  0  0  0  0  0
   10.1974   -3.5308   17.9346 N   0  0  0  0  0  0  0  0  0  0  0  0
   10.5277   -3.8037   21.4643 C   0  0  0  0  0  0  0  0  0  0  0  0
    8.6028   -6.8904   17.7455 C   0  0  0  0  0  0  0  0  0  0  0  0
    9.9375   -2.4728   25.9156 C   0  0  0  0  0  0  0  0  0  0  0  0
   10.4671   -4.0613   20.0851 C   0  0  0  0  0  0  0  0  0  0  0  0
  1  8  1  0
  1 12  4  0
  1 14  4  0
  2  3  4  0
  2 24  4  0
  3 20  4  0
  3 22  4  0
  4 11  4  0
  4 21  4  0
  5  9  4  0
  5 15  4  0
  6 16  4  0
  6 18  4  0
  7 22  4  0
  7 26  4  0
  8 10  4  0
  8 25  4  0
  9 16  4  0
 10 21  4  0
 11 25  4  0
 12 23  4  0
 13 17  4  0
 13 20  4  0
 14 19  4  0
 15 18  4  0
 17 24  4  0
 18 24  1  0
 19 23  4  0
 20 26  4  0
 23 26  1  0
M  END
$$$$

 Created by Python create_sdf_string function

 26 30  0  0  0  0  0  0  0  0999 V2000
   10.2612   -2.8740   23.4017 C   0  0  0  0  0  0  0  0  0  0  0  0
    9.0105   -5.5841   17.3670 C   0  0  0  0  0  0  0  0  0  0  0  0
    9.7328   -4.8142   18.0598 C   0  0  0  0  0  0  0  0  0  0  0  0
    9.1527   -0.3076   26.5550 C   0  0  0  0  0  0  0  0  0  0  0  0
    6.7614   -9.0154   15.4858 C   0  0  0  0  0  0  0  0  0  0  0  0
    6.2889   -7.5852   17.7030 C   0  0  0  0  0  0  0  0  0  0  0  0
   10.5708   -3.0500   19.2065 C   0  0  0  0  0  0  0  0  0  0  0  0
    9.9003   -1.9733   24.5488 C   0  0  0  0  0  0  0  0  0  0  0  0
    5.5839   -9.0537   15.9893 C   0  0  0  0  0  0  0  0  0  0  0  0
    9.4969   -0.6810   24.1700 C   0  0  0  0  0  0  0  0  0  0  0  0
    9.4813   -1.5755   26.8364 C   0  0  0  0  0  0  0  0  0  0  0  0
   10.2606   -2.5932   22.1003 N   0  0  0  0  0  0  0  0  0  0  0  0
    9.9981   -6.5425   19.7412 C   0  0  0  0  0  0  0  0  0  0  0  0
   10.6645   -4.1160   23.6751 N   0  0  0  0  0  0  0  0  0  0  0  0
    7.7281   -8.2622   16.0055 C   0  0  0  0  0  0  0  0  0  0  0  0
    5.3281   -8.2900   17.1133 C   0  0  0  0  0  0  0  0  0  0  0  0
    9.2648   -7.3663   18.9093 C   0  0  0  0  0  0  0  0  0  0  0  0
    7.5635   -7.5618   17.1524 C   0  0  0  0  0  0  0  0  0  0  0  0
   10.7924   -4.7114   22.4090 O   0  0  0  0  0  0  0  0  0  0  0  0
   10.1054   -5.2107   19.4166 C   0  0  0  0  0  0  0  0  0  0  0  0
    9.0877    0.1986   25.1961 C   0  0  0  0  0  0  0  0  0  0  0  0
   10.1803   -3.5037   17.9392 N   0  0  0  0  0  0  0  0  0  0  0  0
   10.5364   -3.8131   21.5029 C   0  0  0  0  0  0  0  0  0  0  0  0
    8.5655   -6.8810   17.8168 C   0  0  0  0  0  0  0  0  0  0  0  0
    9.9135   -2.4530   25.8562 C   0  0  0  0  0  0  0  0  0  0  0  0
   10.4629   -4.0290   20.1293 C   0  0  0  0  0  0  0  0  0  0  0  0
  1  8  1  0
  1 12  4  0
  1 14  4  0
  2  3  4  0
  2 24  4  0
  3 20  4  0
  3 22  4  0
  4 11  4  0
  4 21  4  0
  5  9  4  0
  5 15  4  0
  6 16  4  0
  6 18  4  0
  7 22  4  0
  7 26  4  0
  8 10  4  0
  8 25  4  0
  9 16  4  0
 10 21  4  0
 11 25  4  0
 12 23  4  0
 13 17  4  0
 13 20  4  0
 14 19  4  0
 15 18  4  0
 17 24  4  0
 18 24  1  0
 19 23  4  0
 20 26  4  0
 23 26  1  0
M  END
$$$$

 Created by Python create_sdf_string function

 26 31  0  0  0  0  0  0  0  0999 V2000
   10.2752   -2.8950   23.4298 C   0  0  0  0  0  0  0  0  0  0  0  0
    8.9833   -5.6195   17.3669 C   0  0  0  0  0  0  0  0  0  0  0  0
    9.7318   -4.7985   18.1502 C   0  0  0  0  0  0  0  0  0  0  0  0
    9.1079   -0.3177   26.5093 C   0  0  0  0  0  0  0  0  0  0  0  0
    6.7907   -8.9976   15.4976 C   0  0  0  0  0  0  0  0  0  0  0  0
    6.2993   -7.5960   17.7432 C   0  0  0  0  0  0  0  0  0  0  0  0
   10.5539   -3.0466   19.1548 C   0  0  0  0  0  0  0  0  0  0  0  0
    9.8983   -1.9537   24.5118 C   0  0  0  0  0  0  0  0  0  0  0  0
    5.5450   -9.0274   16.0249 C   0  0  0  0  0  0  0  0  0  0  0  0
    9.5086   -0.7005   24.1693 C   0  0  0  0  0  0  0  0  0  0  0  0
    9.5185   -1.5780   26.8929 C   0  0  0  0  0  0  0  0  0  0  0  0
   10.2643   -2.6216   22.1400 N   0  0  0  0  0  0  0  0  0  0  0  0
   10.0220   -6.5190   19.7831 C   0  0  0  0  0  0  0  0  0  0  0  0
   10.6522   -4.1406   23.6429 N   0  0  0  0  0  0  0  0  0  0  0  0
    7.7219   -8.2456   16.0476 C   0  0  0  0  0  0  0  0  0  0  0  0
    5.3388   -8.2657   17.0936 C   0  0  0  0  0  0  0  0  0  0  0  0
    9.2288   -7.3383   18.9262 C   0  0  0  0  0  0  0  0  0  0  0  0
    7.5618   -7.5413   17.1646 C   0  0  0  0  0  0  0  0  0  0  0  0
   10.7580   -4.7174   22.4240 O   0  0  0  0  0  0  0  0  0  0  0  0
   10.1203   -5.1977   19.4278 C   0  0  0  0  0  0  0  0  0  0  0  0
    9.1225    0.1919   25.1767 C   0  0  0  0  0  0  0  0  0  0  0  0
   10.1714   -3.5164   17.9673 N   0  0  0  0  0  0  0  0  0  0  0  0
   10.5105   -3.7990   21.5269 C   0  0  0  0  0  0  0  0  0  0  0  0
    8.5886   -6.8557   17.7819 C   0  0  0  0  0  0  0  0  0  0  0  0
    9.9031   -2.4550   25.8488 C   0  0  0  0  0  0  0  0  0  0  0  0
   10.4539   -4.0270   20.1570 C   0  0  0  0  0  0  0  0  0  0  0  0
  1  8  1  0
  1 12  4  0
  1 14  4  0
  2  3  4  0
  2 24  4  0
  3 20  4  0
  3 22  4  0
  4 11  4  0
  4 21  4  0
  5  9  4  0
  5 15  4  0
  6 16  4  0
  6 18  4  0
  7 22  4  0
  7 26  4  0
  8 10  4  0
  8 25  4  0
  9 16  4  0
 10 21  4  0
 11 25  4  0
 12 23  4  0
 13 17  4  0
 13 20  4  0
 14 19  4  0
 15 17  4  0
 15 18  4  0
 17 24  4  0
 18 24  1  0
 19 23  4  0
 20 26  4  0
 23 26  1  0
M  END
$$$$

 Created by Python create_sdf_string function

 26 28  0  0  0  0  0  0  0  0999 V2000
   10.2635   -2.8651   23.4376 C   0  0  0  0  0  0  0  0  0  0  0  0
    9.0159   -5.6000   17.3733 C   0  0  0  0  0  0  0  0  0  0  0  0
    9.7231   -4.8188   18.1553 C   0  0  0  0  0  0  0  0  0  0  0  0
    9.1239   -0.2958   26.5336 C   0  0  0  0  0  0  0  0  0  0  0  0
    6.7874   -8.9792   15.4925 C   0  0  0  0  0  0  0  0  0  0  0  0
    6.2854   -7.6204   17.7091 C   0  0  0  0  0  0  0  0  0  0  0  0
   10.5338   -3.0243   19.1469 C   0  0  0  0  0  0  0  0  0  0  0  0
    9.8590   -1.9912   24.5210 C   0  0  0  0  0  0  0  0  0  0  0  0
    5.5656   -8.9895   16.0290 C   0  0  0  0  0  0  0  0  0  0  0  0
    9.5426   -0.6768   24.1808 C   0  0  0  0  0  0  0  0  0  0  0  0
    9.5046   -1.5901   26.8941 C   0  0  0  0  0  0  0  0  0  0  0  0
   10.0497   -6.5562   19.8015 C   0  0  0  0  0  0  0  0  0  0  0  0
   10.6443   -4.1541   23.6491 N   0  0  0  0  0  0  0  0  0  0  0  0
    7.7608   -8.2439   16.0303 C   0  0  0  0  0  0  0  0  0  0  0  0
    5.3168   -8.2731   17.0922 C   0  0  0  0  0  0  0  0  0  0  0  0
    9.2229   -7.3380   18.9227 C   0  0  0  0  0  0  0  0  0  0  0  0
    7.5446   -7.5800   17.1809 C   0  0  0  0  0  0  0  0  0  0  0  0
   10.7548   -4.7526   22.3962 O   0  0  0  0  0  0  0  0  0  0  0  0
   10.1124   -5.2166   19.4432 C   0  0  0  0  0  0  0  0  0  0  0  0
    9.1220    0.1654   25.1833 C   0  0  0  0  0  0  0  0  0  0  0  0
   10.1614   -3.5015   17.9406 N   0  0  0  0  0  0  0  0  0  0  0  0
   10.5377   -3.7778   21.5108 C   0  0  0  0  0  0  0  0  0  0  0  0
    8.5335   -6.8537   17.8398 C   0  0  0  0  0  0  0  0  0  0  0  0
    9.9108   -2.4744   25.8692 C   0  0  0  0  0  0  0  0  0  0  0  0
   10.4682   -4.0105   20.1440 C   0  0  0  0  0  0  0  0  0  0  0  0
   10.2661   -2.5881   22.1162 He  0  0  0  0  0  0  0  0  0  0  0  0
  1  8  1  0
  1 13  4  0
  1 16  2  0
  2  3  4  0
  2 23  4  0
  3 19  4  0
  3 21  4  0
  4 11  4  0
  4 20  4  0
  5  9  4  0
  5 14  4  0
  6 15  4  0
  6 17  4  0
  7 21  4  0
  7 25  4  0
  8 12  3  0
  8 24  4  0
  9 15  4  0
 10 20  4  0
 12 16  4  0
 12 19  4  0
 13 18  4  0
 14 17  4  0
 16 23  4  0
 17 23  1  0
 18 22  4  0
 19 25  4  0
 22 25  1  0
M  END
$$$$

 Created by Python create_sdf_string function

 26 32  0  0  0  0  0  0  0  0999 V2000
   10.2610   -2.8725   23.4358 C   0  0  0  0  0  0  0  0  0  0  0  0
    9.0029   -5.6210   17.3539 C   0  0  0  0  0  0  0  0  0  0  0  0
    9.7254   -4.8103   18.1656 C   0  0  0  0  0  0  0  0  0  0  0  0
    9.1133   -0.3057   26.5475 C   0  0  0  0  0  0  0  0  0  0  0  0
    6.7739   -8.9844   15.4822 C   0  0  0  0  0  0  0  0  0  0  0  0
    6.2518   -7.6485   17.7404 C   0  0  0  0  0  0  0  0  0  0  0  0
   10.5341   -3.0097   19.1693 C   0  0  0  0  0  0  0  0  0  0  0  0
    9.8833   -1.9878   24.5296 C   0  0  0  0  0  0  0  0  0  0  0  0
    5.5546   -8.9916   15.9941 C   0  0  0  0  0  0  0  0  0  0  0  0
    9.5363   -0.6944   24.1572 C   0  0  0  0  0  0  0  0  0  0  0  0
    9.4941   -1.5829   26.8932 C   0  0  0  0  0  0  0  0  0  0  0  0
   10.2777   -2.6252   22.0907 N   0  0  0  0  0  0  0  0  0  0  0  0
   10.0292   -6.5385   19.7892 C   0  0  0  0  0  0  0  0  0  0  0  0
   10.6223   -4.1518   23.6374 N   0  0  0  0  0  0  0  0  0  0  0  0
    7.7655   -8.2727   16.0127 C   0  0  0  0  0  0  0  0  0  0  0  0
    5.2979   -8.2790   17.1075 C   0  0  0  0  0  0  0  0  0  0  0  0
    9.2404   -7.3498   18.9380 C   0  0  0  0  0  0  0  0  0  0  0  0
    7.5519   -7.5888   17.2124 C   0  0  0  0  0  0  0  0  0  0  0  0
   10.7351   -4.7282   22.3943 O   0  0  0  0  0  0  0  0  0  0  0  0
   10.0999   -5.2384   19.4214 C   0  0  0  0  0  0  0  0  0  0  0  0
    9.1187    0.1634   25.2013 C   0  0  0  0  0  0  0  0  0  0  0  0
   10.1581   -3.5427   17.9155 N   0  0  0  0  0  0  0  0  0  0  0  0
   10.5111   -3.7902   21.4739 C   0  0  0  0  0  0  0  0  0  0  0  0
    8.5943   -6.8641   17.8556 C   0  0  0  0  0  0  0  0  0  0  0  0
    9.8981   -2.4405   25.8553 C   0  0  0  0  0  0  0  0  0  0  0  0
   10.4590   -4.0252   20.1334 C   0  0  0  0  0  0  0  0  0  0  0  0
  1  8  1  0
  1 12  4  0
  1 14  4  0
  2  3  4  0
  2 24  4  0
  3 20  4  0
  3 22  4  0
  4 11  4  0
  4 21  4  0
  5  9  4  0
  5 15  4  0
  6 16  4  0
  6 18  4  0
  7 22  4  0
  7 26  4  0
  8 10  4  0
  8 25  4  0
  9 16  4  0
 10 15  3  0
 10 21  4  0
 11 25  4  0
 12 23  4  0
 13 17  4  0
 13 20  4  0
 14 19  4  0
 15 18  4  0
 17 24  4  0
 18 24  1  0
 19 23  4  0
 20 26  4  0
 23 25  3  0
 23 26  1  0
M  END
$$$$

 Created by Python create_sdf_string function

 26 30  0  0  0  0  0  0  0  0999 V2000
   10.2525   -2.8884   23.4522 C   0  0  0  0  0  0  0  0  0  0  0  0
    9.0186   -5.6416   17.3619 C   0  0  0  0  0  0  0  0  0  0  0  0
    9.7571   -4.8452   18.1291 C   0  0  0  0  0  0  0  0  0  0  0  0
    9.1152   -0.2969   26.5221 C   0  0  0  0  0  0  0  0  0  0  0  0
    6.7529   -8.9742   15.4775 C   0  0  0  0  0  0  0  0  0  0  0  0
    6.2747   -7.6402   17.7374 C   0  0  0  0  0  0  0  0  0  0  0  0
   10.5590   -3.0139   19.1638 C   0  0  0  0  0  0  0  0  0  0  0  0
    9.8992   -1.9881   24.5045 C   0  0  0  0  0  0  0  0  0  0  0  0
    5.5429   -8.9704   16.0033 C   0  0  0  0  0  0  0  0  0  0  0  0
    9.5226   -0.6854   24.1720 C   0  0  0  0  0  0  0  0  0  0  0  0
    9.4760   -1.6051   26.8673 C   0  0  0  0  0  0  0  0  0  0  0  0
   10.3065   -2.5996   22.1153 N   0  0  0  0  0  0  0  0  0  0  0  0
   10.0212   -6.5344   19.8011 C   0  0  0  0  0  0  0  0  0  0  0  0
   10.6203   -4.1692   23.6238 N   0  0  0  0  0  0  0  0  0  0  0  0
    7.7646   -8.2617   16.0480 C   0  0  0  0  0  0  0  0  0  0  0  0
    5.3012   -8.2867   17.1159 C   0  0  0  0  0  0  0  0  0  0  0  0
    9.2276   -7.3445   18.9636 C   0  0  0  0  0  0  0  0  0  0  0  0
    7.5506   -7.5995   17.2082 C   0  0  0  0  0  0  0  0  0  0  0  0
   10.7307   -4.7346   22.4252 O   0  0  0  0  0  0  0  0  0  0  0  0
   10.0845   -5.2343   19.4470 C   0  0  0  0  0  0  0  0  0  0  0  0
    9.1173    0.1617   25.2022 C   0  0  0  0  0  0  0  0  0  0  0  0
   10.1462   -3.5414   17.9224 N   0  0  0  0  0  0  0  0  0  0  0  0
   10.4894   -3.7813   21.4792 C   0  0  0  0  0  0  0  0  0  0  0  0
    8.5888   -6.8587   17.8410 C   0  0  0  0  0  0  0  0  0  0  0  0
    9.8864   -2.4418   25.8406 C   0  0  0  0  0  0  0  0  0  0  0  0
   10.4274   -4.0035   20.1230 C   0  0  0  0  0  0  0  0  0  0  0  0
  1  8  1  0
  1 12  4  0
  1 14  4  0
  2  3  4  0
  2 24  4  0
  3 20  4  0
  3 22  4  0
  4 11  4  0
  4 21  4  0
  5  9  4  0
  5 15  4  0
  6 16  4  0
  6 18  4  0
  7 22  4  0
  7 26  4  0
  8 10  4  0
  8 25  4  0
  9 16  4  0
 10 21  4  0
 11 25  4  0
 12 23  4  0
 13 17  4  0
 13 20  4  0
 14 19  4  0
 15 18  4  0
 17 24  4  0
 18 24  1  0
 19 23  4  0
 20 26  4  0
 23 26  1  0
M  END
$$$$

 Created by Python create_sdf_string function

 26 30  0  0  0  0  0  0  0  0999 V2000
   10.2706   -2.8856   23.4560 C   0  0  0  0  0  0  0  0  0  0  0  0
    9.0223   -5.6403   17.3622 C   0  0  0  0  0  0  0  0  0  0  0  0
    9.7451   -4.8502   18.1533 C   0  0  0  0  0  0  0  0  0  0  0  0
    9.1311   -0.2995   26.5088 C   0  0  0  0  0  0  0  0  0  0  0  0
    6.7562   -8.9645   15.4758 C   0  0  0  0  0  0  0  0  0  0  0  0
    6.2996   -7.6359   17.7432 C   0  0  0  0  0  0  0  0  0  0  0  0
   10.5504   -3.0179   19.1343 C   0  0  0  0  0  0  0  0  0  0  0  0
    9.8912   -1.9886   24.5191 C   0  0  0  0  0  0  0  0  0  0  0  0
    5.5430   -8.9718   16.0151 C   0  0  0  0  0  0  0  0  0  0  0  0
    9.5279   -0.6924   24.1798 C   0  0  0  0  0  0  0  0  0  0  0  0
    9.4957   -1.6167   26.8619 C   0  0  0  0  0  0  0  0  0  0  0  0
   10.3026   -2.5830   22.1238 N   0  0  0  0  0  0  0  0  0  0  0  0
   10.0071   -6.5534   19.8076 C   0  0  0  0  0  0  0  0  0  0  0  0
   10.6115   -4.1644   23.6335 N   0  0  0  0  0  0  0  0  0  0  0  0
    7.7420   -8.2641   16.0578 C   0  0  0  0  0  0  0  0  0  0  0  0
    5.2965   -8.2940   17.1223 C   0  0  0  0  0  0  0  0  0  0  0  0
    9.2177   -7.3410   18.9707 C   0  0  0  0  0  0  0  0  0  0  0  0
    7.5449   -7.5959   17.2046 C   0  0  0  0  0  0  0  0  0  0  0  0
   10.0945   -5.2353   19.4511 C   0  0  0  0  0  0  0  0  0  0  0  0
    9.1384    0.1628   25.1958 C   0  0  0  0  0  0  0  0  0  0  0  0
   10.1342   -3.5644   17.9326 N   0  0  0  0  0  0  0  0  0  0  0  0
   10.4860   -3.7689   21.4761 C   0  0  0  0  0  0  0  0  0  0  0  0
    8.6044   -6.8607   17.8255 C   0  0  0  0  0  0  0  0  0  0  0  0
    9.8932   -2.4571   25.8282 C   0  0  0  0  0  0  0  0  0  0  0  0
   10.4269   -3.9977   20.1287 C   0  0  0  0  0  0  0  0  0  0  0  0
   10.7165   -4.7164   22.4081 He  0  0  0  0  0  0  0  0  0  0  0  0
  1  8  1  0
  1 12  4  0
  1 14  4  0
  2  3  4  0
  2 23  4  0
  3 19  4  0
  3 21  4  0
  3 24  2  0
  4  7  1  0
  4 11  4  0
  4 20  4  0
  5  9  4  0
  5 15  4  0
  6 16  4  0
  6 18  4  0
  7 21  4  0
  7 25  4  0
  8 10  4  0
  8 24  4  0
  9 16  4  0
 10 20  4  0
 11 24  2  0
 12 22  4  0
 13 17  4  0
 13 19  4  0
 15 18  4  0
 17 23  4  0
 18 23  1  0
 19 25  4  0
 22 25  1  0
M  END
$$$$

 Created by Python create_sdf_string function

 26 30  0  0  0  0  0  0  0  0999 V2000
   10.2688   -2.8821   23.4514 C   0  0  0  0  0  0  0  0  0  0  0  0
    9.0174   -5.6451   17.3580 C   0  0  0  0  0  0  0  0  0  0  0  0
    9.7399   -4.8475   18.1490 C   0  0  0  0  0  0  0  0  0  0  0  0
    9.1262   -0.2864   26.5147 C   0  0  0  0  0  0  0  0  0  0  0  0
    6.7494   -8.9604   15.4760 C   0  0  0  0  0  0  0  0  0  0  0  0
    6.3000   -7.6355   17.7450 C   0  0  0  0  0  0  0  0  0  0  0  0
   10.5527   -3.0320   19.1378 C   0  0  0  0  0  0  0  0  0  0  0  0
    9.8960   -1.9774   24.4921 C   0  0  0  0  0  0  0  0  0  0  0  0
    5.5454   -8.9651   16.0136 C   0  0  0  0  0  0  0  0  0  0  0  0
    9.5267   -0.6792   24.1551 C   0  0  0  0  0  0  0  0  0  0  0  0
    9.4948   -1.6074   26.8389 C   0  0  0  0  0  0  0  0  0  0  0  0
   10.2910   -2.5838   22.1163 N   0  0  0  0  0  0  0  0  0  0  0  0
   10.0026   -6.5415   19.8260 C   0  0  0  0  0  0  0  0  0  0  0  0
   10.6039   -4.1603   23.6249 N   0  0  0  0  0  0  0  0  0  0  0  0
    7.7394   -8.2622   16.0648 C   0  0  0  0  0  0  0  0  0  0  0  0
    5.3108   -8.2962   17.1333 C   0  0  0  0  0  0  0  0  0  0  0  0
    9.2132   -7.3513   18.9731 C   0  0  0  0  0  0  0  0  0  0  0  0
    7.5397   -7.5937   17.2075 C   0  0  0  0  0  0  0  0  0  0  0  0
   10.7146   -4.7235   22.3986 O   0  0  0  0  0  0  0  0  0  0  0  0
   10.0826   -5.2169   19.4547 C   0  0  0  0  0  0  0  0  0  0  0  0
    9.1371    0.1759   25.1824 C   0  0  0  0  0  0  0  0  0  0  0  0
   10.1366   -3.5570   17.9262 N   0  0  0  0  0  0  0  0  0  0  0  0
   10.4953   -3.7751   21.4789 C   0  0  0  0  0  0  0  0  0  0  0  0
    8.5966   -6.8640   17.8293 C   0  0  0  0  0  0  0  0  0  0  0  0
    9.8905   -2.4348   25.7937 C   0  0  0  0  0  0  0  0  0  0  0  0
   10.4322   -4.0009   20.1239 C   0  0  0  0  0  0  0  0  0  0  0  0
  1  8  1  0
  1 12  4  0
  1 14  4  0
  2  3  4  0
  2 24  4  0
  3 20  4  0
  3 22  4  0
  4 11  4  0
  4 21  4  0
  5  9  4  0
  5 15  4  0
  6 16  4  0
  6 18  4  0
  7 22  4  0
  7 26  4  0
  8 10  4  0
  8 25  4  0
  9 16  4  0
 10 21  4  0
 11 25  4  0
 12 23  4  0
 13 17  4  0
 13 20  4  0
 14 19  4  0
 15 18  4  0
 17 24  4  0
 18 24  1  0
 19 23  4  0
 20 26  4  0
 23 26  1  0
M  END
$$$$

 Created by Python create_sdf_string function

 26 55  0  0  0  0  0  0  0  0999 V2000
   10.5006   -2.8647   23.5856 N   0  0  0  0  0  0  0  0  0  0  0  0
    9.0549   -4.9891   17.3518 C   0  0  0  0  0  0  0  0  0  0  0  0
    9.6164    0.2737   25.9807 C   0  0  0  0  0  0  0  0  0  0  0  0
    9.3399   -8.3508   16.2244 Cl  0  0  0  0  0  0  0  0  0  0  0  0
   10.4096   -2.6376   19.5361 C   0  0  0  0  0  0  0  0  0  0  0  0
   10.0524   -2.1923   25.2020 C   0  0  0  0  0  0  0  0  0  0  0  0
    8.2618   -8.3252   16.6602 F   0  0  0  0  0  0  0  0  0  0  0  0
    9.1330   -0.5150   24.3169 C   0  0  0  0  0  0  0  0  0  0  0  0
    9.2382   -2.1736   27.2283 C   0  0  0  0  0  0  0  0  0  0  0  0
   10.9400   -4.4195   23.2476 N   0  0  0  0  0  0  0  0  0  0  0  0
    7.4781   -8.4330   15.1336 C   0  0  0  0  0  0  0  0  0  0  0  0
    8.8349   -6.3467   16.1200 I   0  0  0  0  0  0  0  0  0  0  0  0
    8.0900   -7.7126   18.5199 C   0  0  0  0  0  0  0  0  0  0  0  0
    7.3137  -10.3152   15.5247 P   0  0  0  0  0  0  0  0  0  0  0  0
   10.6971   -4.2999   21.8887 N   0  0  0  0  0  0  0  0  0  0  0  0
    9.6819   -5.4852   19.6479 C   0  0  0  0  0  0  0  0  0  0  0  0
    9.1582   -0.1896   24.6685 C   0  0  0  0  0  0  0  0  0  0  0  0
   10.4672   -3.2521   18.1469 N   0  0  0  0  0  0  0  0  0  0  0  0
    9.8965   -2.3617   25.5836 C   0  0  0  0  0  0  0  0  0  0  0  0
   10.4089   -4.2758   20.3701 C   0  0  0  0  0  0  0  0  0  0  0  0
    9.3790   -4.4793   18.0487 He  0  0  0  0  0  0  0  0  0  0  0  0
    7.4404   -7.4480   16.7285 He  0  0  0  0  0  0  0  0  0  0  0  0
   10.8664   -2.8531   21.2423 He  0  0  0  0  0  0  0  0  0  0  0  0
    9.6091   -6.2880   19.1004 He  0  0  0  0  0  0  0  0  0  0  0  0
   10.6870   -3.2604   22.2552 He  0  0  0  0  0  0  0  0  0  0  0  0
    8.1614   -7.4504   17.3367 He  0  0  0  0  0  0  0  0  0  0  0  0
  1  6  4  0
  1  7  4  0
  1 12  1  0
  1 14  3  0
  2 14  4  0
  3  6  1  0
  3  9  4  0
  3 14  1  0
  3 16  2  0
  3 17  4  0
  4  8  3  0
  4 11  2  0
  4 13  2  0
  4 19  3  0
  5 12  2  0
  5 18  2  0
  5 20  4  0
  6  8  4  0
  6 11  3  0
  6 14  1  0
  6 15  2  0
  6 16  3  0
  7  8  2  0
  7  9  4  0
  7 10  1  0
  7 13  2  0
  7 14  1  0
  7 17  3  0
  7 18  2  0
  7 19  1  0
  8 10  3  0
  8 12  1  0
  8 17  4  0
  8 19  2  0
  9 10  2  0
  9 14  2  0
  9 19  4  0
 10 15  4  0
 10 18  3  0
 10 20  1  0
 11 12  4  0
 11 15  3  0
 11 19  2  0
 12 13  1  0
 12 18  1  0
 12 19  2  0
 13 15  3  0
 14 15  2  0
 14 16  2  0
 14 17  4  0
 14 20  1  0
 15 17  3  0
 16 20  4  0
 17 20  4  0
 19 20  2  0
M  END
$$$$

 Created by Python create_sdf_string function

 26 69  0  0  0  0  0  0  0  0999 V2000
   10.5175   -3.5644   23.4782 C   0  0  0  0  0  0  0  0  0  0  0  0
    9.3178   -5.2775   16.8057 C   0  0  0  0  0  0  0  0  0  0  0  0
   10.2536   -4.6774   17.6935 C   0  0  0  0  0  0  0  0  0  0  0  0
    9.3298   -0.2053   25.7965 C   0  0  0  0  0  0  0  0  0  0  0  0
    7.8620   -8.6993   16.8371 Se  0  0  0  0  0  0  0  0  0  0  0  0
   10.7250   -3.1868   19.8973 C   0  0  0  0  0  0  0  0  0  0  0  0
   10.2241   -1.8145   24.3845 C   0  0  0  0  0  0  0  0  0  0  0  0
    6.6794   -7.8659   16.0066 O   0  0  0  0  0  0  0  0  0  0  0  0
    9.9048   -0.4927   24.1136 B   0  0  0  0  0  0  0  0  0  0  0  0
   10.7489   -2.9715   21.4666 C   0  0  0  0  0  0  0  0  0  0  0  0
   10.2385   -7.2013   19.9677 C   0  0  0  0  0  0  0  0  0  0  0  0
    8.8286   -7.5354   15.1960 C   0  0  0  0  0  0  0  0  0  0  0  0
    8.5750   -7.2287   17.5777 C   0  0  0  0  0  0  0  0  0  0  0  0
    6.4630   -7.5771   13.1129 N   0  0  0  0  0  0  0  0  0  0  0  0
   10.7675   -5.5760   22.7602 N   0  0  0  0  0  0  0  0  0  0  0  0
   10.3592   -4.9524   19.2267 C   0  0  0  0  0  0  0  0  0  0  0  0
    9.4397    0.1682   25.3057 C   0  0  0  0  0  0  0  0  0  0  0  0
   10.3721   -2.7703   17.0600 N   0  0  0  0  0  0  0  0  0  0  0  0
   10.6562   -4.0045   21.2894 C   0  0  0  0  0  0  0  0  0  0  0  0
    8.1025   -6.7631   17.2194 C   0  0  0  0  0  0  0  0  0  0  0  0
    9.6927   -2.4455   25.2396 C   0  0  0  0  0  0  0  0  0  0  0  0
   10.2594   -3.8731   20.2560 C   0  0  0  0  0  0  0  0  0  0  0  0
    8.6729   -7.3072   16.7891 He  0  0  0  0  0  0  0  0  0  0  0  0
    9.6227   -1.6618   26.2701 He  0  0  0  0  0  0  0  0  0  0  0  0
   10.7752   -3.3687   23.6061 He  0  0  0  0  0  0  0  0  0  0  0  0
    9.7098   -6.8344   15.0354 He  0  0  0  0  0  0  0  0  0  0  0  0
  1  7  3  0
  1  8  1  0
  1 10  4  0
  1 12  4  0
  1 14  3  0
  1 18  3  0
  1 21  4  0
  1 22  3  0
  2  8  4  0
  3 11  1  0
  3 16  4  0
  3 17  3  0
  3 18  4  0
  3 20  2  0
  4  6  3  0
  4 12  2  0
  4 17  4  0
  4 22  3  0
  5  7  4  0
  5  9  1  0
  5 12  2  0
  5 14  3  0
  5 15  3  0
  5 16  4  0
  5 18  2  0
  5 20  4  0
  5 22  3  0
  6  8  1  0
  6 12  3  0
  6 15  1  0
  6 18  4  0
  6 19  1  0
  6 20  2  0
  7  8  1  0
  7  9  4  0
  7 10  3  0
  7 21  2  0
  8 11  2  0
  8 14  3  0
  8 15  4  0
  8 16  1  0
  8 17  4  0
  8 19  4  0
  8 21  2  0
  9 10  2  0
  9 14  1  0
  9 17  4  0
  9 20  2  0
 10 12  3  0
 10 13  3  0
 10 14  4  0
 10 15  1  0
 10 17  1  0
 10 22  4  0
 11 19  4  0
 11 21  2  0
 12 13  2  0
 12 14  1  0
 12 15  2  0
 12 20  1  0
 13 15  3  0
 13 20  4  0
 14 16  4  0
 14 17  2  0
 14 20  1  0
 15 19  4  0
 16 22  4  0
 18 22  1  0
 19 22  1  0
M  END
$$$$

 Created by Python create_sdf_string function

 26 29  0  0  0  0  0  0  0  0999 V2000
    9.6104   -5.0099   16.4633 C   0  0  0  0  0  0  0  0  0  0  0  0
   10.4992   -4.4397   18.6622 C   0  0  0  0  0  0  0  0  0  0  0  0
    9.4855   -0.1671   25.7863 C   0  0  0  0  0  0  0  0  0  0  0  0
    9.8214   -2.0596   23.9991 C   0  0  0  0  0  0  0  0  0  0  0  0
   10.3926   -0.0621   23.4973 P   0  0  0  0  0  0  0  0  0  0  0  0
    9.7234   -1.3476   26.6429 N   0  0  0  0  0  0  0  0  0  0  0  0
   11.3252   -2.4535   22.0931 C   0  0  0  0  0  0  0  0  0  0  0  0
   10.2529   -6.1074   19.9968 C   0  0  0  0  0  0  0  0  0  0  0  0
   10.5569   -4.5402   23.9977 O   0  0  0  0  0  0  0  0  0  0  0  0
    6.9438   -7.0733   16.2824 S   0  0  0  0  0  0  0  0  0  0  0  0
   10.0245   -4.8075   22.8542 N   0  0  0  0  0  0  0  0  0  0  0  0
   10.7119   -5.7336   19.0529 C   0  0  0  0  0  0  0  0  0  0  0  0
    9.8529   -0.3184   24.8525 Cl  0  0  0  0  0  0  0  0  0  0  0  0
   10.8245   -2.7649   17.8003 N   0  0  0  0  0  0  0  0  0  0  0  0
    8.5720   -7.1122   17.4668 N   0  0  0  0  0  0  0  0  0  0  0  0
    8.9099   -2.7649   25.3483 C   0  0  0  0  0  0  0  0  0  0  0  0
   10.4584   -2.3803   23.7607 He  0  0  0  0  0  0  0  0  0  0  0  0
    6.1093   -8.0047   16.5084 He  0  0  0  0  0  0  0  0  0  0  0  0
    8.7446   -7.3310   18.0099 He  0  0  0  0  0  0  0  0  0  0  0  0
   11.0941   -3.2691   18.7381 He  0  0  0  0  0  0  0  0  0  0  0  0
    7.2513   -9.8969   17.2748 He  0  0  0  0  0  0  0  0  0  0  0  0
    8.1893   -7.3929   15.8310 He  0  0  0  0  0  0  0  0  0  0  0  0
    8.7354   -6.9300   15.7841 He  0  0  0  0  0  0  0  0  0  0  0  0
    9.0393   -6.4966   17.4462 He  0  0  0  0  0  0  0  0  0  0  0  0
   10.4995   -3.7311   20.9298 He  0  0  0  0  0  0  0  0  0  0  0  0
   10.8952   -4.3400   19.5999 He  0  0  0  0  0  0  0  0  0  0  0  0
  1  2  4  0
  1  9  2  0
  1 11  1  0
  1 12  2  0
  1 14  3  0
  2  4  2  0
  2  5  3  0
  2  7  4  0
  2 10  1  0
  2 12  4  0
  3  6  4  0
  3 10  3  0
  3 12  3  0
  3 13  4  0
  3 14  2  0
  4  5  4  0
  4 16  4  0
  5  6  2  0
  6  8  1  0
  6 11  4  0
  6 16  4  0
  7 14  4  0
  8 10  4  0
  8 12  4  0
  9 16  2  0
 10 15  3  0
 11 16  1  0
 12 14  1  0
 14 15  3  0
M  END
$$$$

 Created by Python create_sdf_string function

 26 45  0  0  0  0  0  0  0  0999 V2000
   10.7711   -2.3400   23.4255 C   0  0  0  0  0  0  0  0  0  0  0  0
    9.9443   -5.4273   16.8590 N   0  0  0  0  0  0  0  0  0  0  0  0
   10.5612   -5.0798   17.4453 C   0  0  0  0  0  0  0  0  0  0  0  0
    8.9440    0.1772   26.3586 C   0  0  0  0  0  0  0  0  0  0  0  0
    8.6645   -8.6330   18.4664 O   0  0  0  0  0  0  0  0  0  0  0  0
   11.2421   -3.1984   19.0412 C   0  0  0  0  0  0  0  0  0  0  0  0
   10.3855   -1.5789   24.4047 N   0  0  0  0  0  0  0  0  0  0  0  0
    9.0951   -1.5717   26.4612 N   0  0  0  0  0  0  0  0  0  0  0  0
   11.4770   -3.2124   21.5717 C   0  0  0  0  0  0  0  0  0  0  0  0
   10.3780   -5.4263   20.4364 C   0  0  0  0  0  0  0  0  0  0  0  0
   10.2892   -3.5864   23.5821 O   0  0  0  0  0  0  0  0  0  0  0  0
    8.9360   -6.7827   16.7169 S   0  0  0  0  0  0  0  0  0  0  0  0
   10.3358   -5.2903   22.6154 N   0  0  0  0  0  0  0  0  0  0  0  0
    9.1804   -0.2989   25.6836 N   0  0  0  0  0  0  0  0  0  0  0  0
   11.4524   -3.9205   17.8909 N   0  0  0  0  0  0  0  0  0  0  0  0
   10.5582   -3.6001   21.7062 C   0  0  0  0  0  0  0  0  0  0  0  0
    8.1509   -7.2412   17.9782 N   0  0  0  0  0  0  0  0  0  0  0  0
    9.4608   -2.3369   25.5934 C   0  0  0  0  0  0  0  0  0  0  0  0
   10.6115   -3.9579   19.6112 C   0  0  0  0  0  0  0  0  0  0  0  0
    7.0374   -8.1404   17.4341 He  0  0  0  0  0  0  0  0  0  0  0  0
    5.6717   -9.9064   17.6488 He  0  0  0  0  0  0  0  0  0  0  0  0
   10.0411   -0.7117   23.9008 He  0  0  0  0  0  0  0  0  0  0  0  0
    8.0039   -7.4983   14.6812 He  0  0  0  0  0  0  0  0  0  0  0  0
    6.4176   -5.3025   16.2206 He  0  0  0  0  0  0  0  0  0  0  0  0
    5.0259   -7.9052   18.1791 He  0  0  0  0  0  0  0  0  0  0  0  0
   10.2459   -6.3206   19.1767 He  0  0  0  0  0  0  0  0  0  0  0  0
  1  4  3  0
  1  7  4  0
  1 11  4  0
  1 13  4  0
  1 19  3  0
  2  5  2  0
  2 10  1  0
  2 14  4  0
  2 16  4  0
  2 17  1  0
  3  7  4  0
  3 15  4  0
  4  6  4  0
  4  8  4  0
  4  9  2  0
  4 12  3  0
  4 13  3  0
  4 14  4  0
  5  6  1  0
  5  7  1  0
  5  8  1  0
  5 17  4  0
  5 18  3  0
  6  9  1  0
  6 14  4  0
  6 15  4  0
  6 16  2  0
  6 18  3  0
  6 19  4  0
  7 10  4  0
  7 17  2  0
  8 12  1  0
  9 12  4  0
  9 18  2  0
 10 15  3  0
 10 17  3  0
 11 13  4  0
 11 15  1  0
 13 15  1  0
 13 16  4  0
 14 18  2  0
 15 16  2  0
 15 19  3  0
 16 19  1  0
 17 18  3  0
M  END
$$$$

 Created by Python create_sdf_string function

 26 42  0  0  0  0  0  0  0  0999 V2000
   10.6082   -2.2483   23.8798 C   0  0  0  0  0  0  0  0  0  0  0  0
    9.9043   -6.0339   17.0268 N   0  0  0  0  0  0  0  0  0  0  0  0
    9.9726   -4.8742   18.0390 F   0  0  0  0  0  0  0  0  0  0  0  0
    8.6107    0.3070   25.8493 C   0  0  0  0  0  0  0  0  0  0  0  0
    6.4962   -7.6074   18.5965 C   0  0  0  0  0  0  0  0  0  0  0  0
   11.0272   -3.6346   19.5597 O   0  0  0  0  0  0  0  0  0  0  0  0
   10.5804   -1.1758   23.7869 C   0  0  0  0  0  0  0  0  0  0  0  0
   10.1204   -0.4515   24.2383 C   0  0  0  0  0  0  0  0  0  0  0  0
    8.6837   -1.1377   26.1707 N   0  0  0  0  0  0  0  0  0  0  0  0
   11.2635   -2.3307   22.7135 C   0  0  0  0  0  0  0  0  0  0  0  0
   10.4128   -5.4682   19.8456 C   0  0  0  0  0  0  0  0  0  0  0  0
   10.4720   -3.8090   23.6935 O   0  0  0  0  0  0  0  0  0  0  0  0
    8.9781   -6.3523   15.6140 C   0  0  0  0  0  0  0  0  0  0  0  0
    9.0524    0.4415   24.5014 N   0  0  0  0  0  0  0  0  0  0  0  0
   10.6235   -4.1337   17.5048 N   0  0  0  0  0  0  0  0  0  0  0  0
    8.7060   -7.2758   17.5338 C   0  0  0  0  0  0  0  0  0  0  0  0
    9.0737   -2.0410   25.8385 I   0  0  0  0  0  0  0  0  0  0  0  0
   11.6805   -3.6815   20.6645 C   0  0  0  0  0  0  0  0  0  0  0  0
    6.7682  -10.2052   18.6594 He  0  0  0  0  0  0  0  0  0  0  0  0
    5.6303  -10.4499   16.2967 He  0  0  0  0  0  0  0  0  0  0  0  0
    8.1284   -8.0309   17.5045 He  0  0  0  0  0  0  0  0  0  0  0  0
    5.9912   -6.4939   16.5947 He  0  0  0  0  0  0  0  0  0  0  0  0
    6.8748   -6.7568   18.0057 He  0  0  0  0  0  0  0  0  0  0  0  0
   11.0572   -3.7040   21.9093 He  0  0  0  0  0  0  0  0  0  0  0  0
    9.8365   -5.6096   18.2050 He  0  0  0  0  0  0  0  0  0  0  0  0
   10.1064   -3.0323   21.0151 He  0  0  0  0  0  0  0  0  0  0  0  0
  1  7  2  0
  1  8  3  0
  1 10  4  0
  1 12  4  0
  2  3  1  0
  2  5  4  0
  2  9  1  0
  2 12  4  0
  2 13  1  0
  2 14  2  0
  3 15  4  0
  4  7  1  0
  4  9  4  0
  4 11  4  0
  4 14  4  0
  4 15  4  0
  5  8  2  0
  5 10  1  0
  5 17  3  0
  6  7  1  0
  6  8  3  0
  6 12  2  0
  6 15  4  0
  6 18  4  0
  7  9  4  0
  7 17  4  0
  8 14  4  0
  9 12  1  0
  9 17  4  0
 10 13  3  0
 10 18  4  0
 11 13  4  0
 11 16  4  0
 11 18  4  0
 12 13  2  0
 12 15  4  0
 12 16  3  0
 13 14  4  0
 13 16  1  0
 14 15  1  0
 16 17  3  0
 16 18  3  0
M  END
$$$$

 Created by Python create_sdf_string function

 26 41  0  0  0  0  0  0  0  0999 V2000
   10.0808   -3.0995   23.2727 C   0  0  0  0  0  0  0  0  0  0  0  0
   10.2445   -5.9136   16.4306 N   0  0  0  0  0  0  0  0  0  0  0  0
   10.0962   -5.7632   18.0343 C   0  0  0  0  0  0  0  0  0  0  0  0
    8.5019    0.3397   25.8048 C   0  0  0  0  0  0  0  0  0  0  0  0
    6.2668   -8.1092   17.2878 C   0  0  0  0  0  0  0  0  0  0  0  0
    9.8377   -0.8677   23.7193 C   0  0  0  0  0  0  0  0  0  0  0  0
    7.0449  -10.6680   15.4478 N   0  0  0  0  0  0  0  0  0  0  0  0
    8.8378    0.1295   23.7883 C   0  0  0  0  0  0  0  0  0  0  0  0
    8.4513   -0.9779   26.2044 N   0  0  0  0  0  0  0  0  0  0  0  0
    9.9384   -5.6867   19.9728 C   0  0  0  0  0  0  0  0  0  0  0  0
    8.3756   -6.7967   16.9885 N   0  0  0  0  0  0  0  0  0  0  0  0
    6.2286   -7.2846   17.7390 Cl  0  0  0  0  0  0  0  0  0  0  0  0
    5.1010   -7.0478   16.8640 Cl  0  0  0  0  0  0  0  0  0  0  0  0
   10.3132   -3.9645   22.6912 N   0  0  0  0  0  0  0  0  0  0  0  0
   10.1404   -5.8253   18.5487 C   0  0  0  0  0  0  0  0  0  0  0  0
    9.0848    0.6695   24.8873 N   0  0  0  0  0  0  0  0  0  0  0  0
   10.2882   -4.2189   17.9465 N   0  0  0  0  0  0  0  0  0  0  0  0
    8.4845   -7.1496   18.1593 C   0  0  0  0  0  0  0  0  0  0  0  0
   10.8591   -3.4890   20.3196 C   0  0  0  0  0  0  0  0  0  0  0  0
    6.7193   -8.9260   17.1989 He  0  0  0  0  0  0  0  0  0  0  0  0
   11.2668   -2.9412   18.8791 He  0  0  0  0  0  0  0  0  0  0  0  0
   10.7321   -2.3712   22.1666 He  0  0  0  0  0  0  0  0  0  0  0  0
   10.5351   -3.5816   23.8316 He  0  0  0  0  0  0  0  0  0  0  0  0
    9.0540   -6.6098   16.2033 He  0  0  0  0  0  0  0  0  0  0  0  0
   10.6578   -3.6182   21.5157 He  0  0  0  0  0  0  0  0  0  0  0  0
    9.8341   -2.6416   25.5803 He  0  0  0  0  0  0  0  0  0  0  0  0
  1  6  1  0
  1 11  2  0
  1 12  4  0
  1 13  3  0
  3  5  1  0
  3 15  4  0
  3 17  4  0
  3 18  3  0
  4  9  4  0
  4 11  2  0
  4 12  2  0
  4 16  4  0
  5  7  1  0
  5 15  3  0
  5 17  1  0
  5 18  3  0
  6  7  1  0
  6  8  4  0
  6 12  3  0
  7  9  2  0
  7 11  1  0
  7 13  4  0
  7 16  4  0
  8 12  3  0
  8 16  4  0
  9 12  2  0
  9 13  3  0
 10 15  4  0
 10 19  4  0
 11 12  4  0
 11 15  4  0
 11 17  2  0
 12 19  1  0
 13 16  1  0
 14 17  2  0
 15 17  3  0
 15 18  1  0
 15 19  1  0
 16 17  3  0
 17 18  1  0
 17 19  3  0
M  END
$$$$

 Created by Python create_sdf_string function

 26 34  0  0  0  0  0  0  0  0999 V2000
   10.9063   -2.3725   23.0775 C   0  0  0  0  0  0  0  0  0  0  0  0
   10.0165   -4.8436   17.7969 C   0  0  0  0  0  0  0  0  0  0  0  0
    8.7488    0.5085   25.8578 C   0  0  0  0  0  0  0  0  0  0  0  0
    7.3867   -8.1434   17.8209 S   0  0  0  0  0  0  0  0  0  0  0  0
   10.9239   -2.6797   19.2349 S   0  0  0  0  0  0  0  0  0  0  0  0
    8.1993   -2.0216   26.4623 N   0  0  0  0  0  0  0  0  0  0  0  0
   10.2954   -2.0866   21.1418 N   0  0  0  0  0  0  0  0  0  0  0  0
   10.5632   -4.9604   20.2208 C   0  0  0  0  0  0  0  0  0  0  0  0
   10.7981   -3.2139   23.9443 N   0  0  0  0  0  0  0  0  0  0  0  0
    7.5035   -8.5274   17.9963 O   0  0  0  0  0  0  0  0  0  0  0  0
    8.6481   -7.0681   16.1893 C   0  0  0  0  0  0  0  0  0  0  0  0
   10.1159   -5.5849   18.6519 C   0  0  0  0  0  0  0  0  0  0  0  0
    9.4282    0.8455   25.1226 N   0  0  0  0  0  0  0  0  0  0  0  0
   10.5127   -3.9550   17.2646 N   0  0  0  0  0  0  0  0  0  0  0  0
    9.1095   -6.8027   18.9932 C   0  0  0  0  0  0  0  0  0  0  0  0
    9.1701   -1.6880   25.7679 O   0  0  0  0  0  0  0  0  0  0  0  0
   11.3604   -3.6667   20.6625 C   0  0  0  0  0  0  0  0  0  0  0  0
    9.5590   -5.1942   17.0583 He  0  0  0  0  0  0  0  0  0  0  0  0
    7.5651   -7.9639   15.5609 He  0  0  0  0  0  0  0  0  0  0  0  0
    9.6316   -0.7394   23.4511 He  0  0  0  0  0  0  0  0  0  0  0  0
    6.5021   -9.5465   15.1602 He  0  0  0  0  0  0  0  0  0  0  0  0
    9.3266   -0.5640   24.0213 He  0  0  0  0  0  0  0  0  0  0  0  0
    8.2215   -7.9199   16.8114 He  0  0  0  0  0  0  0  0  0  0  0  0
    4.7217   -8.0459   16.3670 He  0  0  0  0  0  0  0  0  0  0  0  0
   11.2362   -4.5147   21.8246 He  0  0  0  0  0  0  0  0  0  0  0  0
   10.6563   -4.4014   21.8362 He  0  0  0  0  0  0  0  0  0  0  0  0
  1  2  2  0
  1  9  4  0
  1 10  4  0
  1 12  1  0
  2  4  4  0
  2 12  4  0
  3  4  1  0
  3  6  4  0
  3  7  2  0
  3 10  1  0
  3 13  2  0
  4  7  1  0
  4  9  2  0
  4 12  1  0
  4 13  4  0
  4 16  1  0
  4 17  2  0
  5 11  3  0
  5 14  2  0
  5 17  4  0
  6 17  4  0
  7  8  3  0
  7  9  1  0
  7 10  1  0
  8 17  4  0
  9 14  1  0
 10 12  3  0
 10 14  2  0
 10 15  4  0
 10 16  1  0
 10 17  3  0
 12 15  1  0
 12 17  2  0
 14 15  1  0
M  END
$$$$

 Created by Python create_sdf_string function

 26 47  0  0  0  0  0  0  0  0999 V2000
   10.5653   -2.5338   23.4071 C   0  0  0  0  0  0  0  0  0  0  0  0
   10.1577   -5.2280   18.0659 C   0  0  0  0  0  0  0  0  0  0  0  0
    7.9979    0.3051   26.1025 P   0  0  0  0  0  0  0  0  0  0  0  0
    7.4300   -8.7565   18.2399 N   0  0  0  0  0  0  0  0  0  0  0  0
   10.7980   -3.4844   18.9476 C   0  0  0  0  0  0  0  0  0  0  0  0
    9.1377   -1.4160   23.4066 C   0  0  0  0  0  0  0  0  0  0  0  0
    9.9278    0.1251   24.0184 C   0  0  0  0  0  0  0  0  0  0  0  0
    8.5501   -1.3640   25.4825 Se  0  0  0  0  0  0  0  0  0  0  0  0
   10.5130   -2.6770   21.6465 C   0  0  0  0  0  0  0  0  0  0  0  0
   11.4529   -4.8172   19.8585 C   0  0  0  0  0  0  0  0  0  0  0  0
    6.5239   -8.5757   18.2805 N   0  0  0  0  0  0  0  0  0  0  0  0
    9.0175   -6.5164   16.2864 C   0  0  0  0  0  0  0  0  0  0  0  0
    6.2188   -8.9375   17.2451 N   0  0  0  0  0  0  0  0  0  0  0  0
   11.2051   -4.1068   22.7747 O   0  0  0  0  0  0  0  0  0  0  0  0
    9.3327   -5.9081   18.9937 C   0  0  0  0  0  0  0  0  0  0  0  0
    8.7843    0.9962   24.3914 N   0  0  0  0  0  0  0  0  0  0  0  0
   10.1210   -4.4176   17.8402 C   0  0  0  0  0  0  0  0  0  0  0  0
   11.2778   -3.4376   21.5858 C   0  0  0  0  0  0  0  0  0  0  0  0
   10.5941   -4.0779   20.2558 C   0  0  0  0  0  0  0  0  0  0  0  0
    9.9170   -5.7513   16.6767 He  0  0  0  0  0  0  0  0  0  0  0  0
    7.6187   -7.8515   15.4258 He  0  0  0  0  0  0  0  0  0  0  0  0
    5.3262   -8.8604   16.1572 He  0  0  0  0  0  0  0  0  0  0  0  0
   10.5694   -4.0504   23.8717 He  0  0  0  0  0  0  0  0  0  0  0  0
    8.1516   -7.3479   14.8406 He  0  0  0  0  0  0  0  0  0  0  0  0
    9.3742   -6.9399   19.0302 He  0  0  0  0  0  0  0  0  0  0  0  0
    9.1253   -1.9519   25.3898 He  0  0  0  0  0  0  0  0  0  0  0  0
  1  4  3  0
  1  6  1  0
  1  9  4  0
  2 11  4  0
  2 12  3  0
  2 15  4  0
  2 17  4  0
  3  4  2  0
  3  8  1  0
  3 10  4  0
  3 12  2  0
  3 13  1  0
  3 16  4  0
  4  5  3  0
  4  7  4  0
  4  8  3  0
  4 11  4  0
  4 13  4  0
  4 16  4  0
  5  7  2  0
  5 11  2  0
  5 14  1  0
  5 17  4  0
  5 19  4  0
  6  7  4  0
  6 13  3  0
  6 19  4  0
  8 12  2  0
  8 18  4  0
  9 13  1  0
  9 18  3  0
 10 11  4  0
 10 15  4  0
 11 13  3  0
 11 15  3  0
 11 17  3  0
 11 19  2  0
 12 13  3  0
 12 14  3  0
 12 17  3  0
 12 18  1  0
 13 15  2  0
 13 16  4  0
 13 18  1  0
 14 18  4  0
 15 16  2  0
 16 17  4  0
M  END
$$$$

 Created by Python create_sdf_string function

 26 57  0  0  0  0  0  0  0  0999 V2000
   10.5202   -2.3905   22.6298 C   0  0  0  0  0  0  0  0  0  0  0  0
    9.2411   -5.8378   16.1080 F   0  0  0  0  0  0  0  0  0  0  0  0
    9.6160   -5.5231   17.9895 C   0  0  0  0  0  0  0  0  0  0  0  0
    7.7310   -8.3528   13.5055 C   0  0  0  0  0  0  0  0  0  0  0  0
    5.2024   -6.6830   15.9815 C   0  0  0  0  0  0  0  0  0  0  0  0
   10.4201   -3.2590   19.3525 C   0  0  0  0  0  0  0  0  0  0  0  0
    9.5994   -1.6541   24.2585 C   0  0  0  0  0  0  0  0  0  0  0  0
    9.9217   -0.1796   23.3833 C   0  0  0  0  0  0  0  0  0  0  0  0
    7.9460   -0.8304   25.5899 P   0  0  0  0  0  0  0  0  0  0  0  0
   10.5352   -2.2223   22.4309 N   0  0  0  0  0  0  0  0  0  0  0  0
   10.5843   -5.0624   19.8452 Se  0  0  0  0  0  0  0  0  0  0  0  0
    8.6845   -7.1152   16.3958 Se  0  0  0  0  0  0  0  0  0  0  0  0
    8.5045   -6.4944   16.7141 Cl  0  0  0  0  0  0  0  0  0  0  0  0
    6.9223   -8.8320   18.9276 N   0  0  0  0  0  0  0  0  0  0  0  0
    9.7376   -5.3207   19.0340 F   0  0  0  0  0  0  0  0  0  0  0  0
    8.8743    0.7511   25.1860 N   0  0  0  0  0  0  0  0  0  0  0  0
   10.3333   -3.5099   17.9789 N   0  0  0  0  0  0  0  0  0  0  0  0
   11.4573   -3.5620   21.6469 C   0  0  0  0  0  0  0  0  0  0  0  0
    9.1467   -7.2884   19.4463 F   0  0  0  0  0  0  0  0  0  0  0  0
    9.2829   -1.5091   25.6380 C   0  0  0  0  0  0  0  0  0  0  0  0
   11.1217   -4.1066   20.3924 C   0  0  0  0  0  0  0  0  0  0  0  0
    8.2508   -0.0310   25.8139 He  0  0  0  0  0  0  0  0  0  0  0  0
    7.3173   -8.9127   15.7804 He  0  0  0  0  0  0  0  0  0  0  0  0
   10.4784   -3.5414   23.6934 He  0  0  0  0  0  0  0  0  0  0  0  0
    7.0798   -9.0294   17.2633 He  0  0  0  0  0  0  0  0  0  0  0  0
   11.7207   -4.2363   22.4288 He  0  0  0  0  0  0  0  0  0  0  0  0
  1  6  1  0
  1 15  3  0
  1 17  3  0
  2  3  1  0
  2 13  4  0
  2 16  1  0
  2 17  3  0
  3  5  3  0
  3  9  4  0
  3 12  1  0
  3 14  2  0
  3 17  4  0
  3 21  3  0
  4  7  1  0
  4  8  3  0
  4  9  2  0
  4 18  1  0
  4 19  2  0
  4 20  4  0
  4 21  3  0
  5  8  3  0
  5  9  4  0
  5 11  4  0
  5 12  4  0
  5 13  4  0
  5 14  4  0
  5 17  2  0
  5 19  3  0
  6 12  4  0
  6 13  2  0
  6 14  3  0
  6 17  4  0
  6 19  3  0
  7  8  4  0
  7 10  3  0
  7 13  2  0
  7 20  4  0
  8 12  4  0
  8 16  4  0
  9 11  2  0
  9 12  2  0
  9 19  1  0
 10 12  3  0
 10 19  1  0
 10 21  1  0
 11 14  3  0
 11 17  1  0
 11 21  4  0
 12 19  3  0
 13 16  2  0
 14 15  4  0
 14 18  1  0
 15 19  1  0
 16 18  3  0
 17 18  4  0
 17 19  4  0
 18 21  1  0
M  END
$$$$

 Created by Python create_sdf_string function

 26 47  0  0  0  0  0  0  0  0999 V2000
   10.4413   -2.3193   23.3467 C   0  0  0  0  0  0  0  0  0  0  0  0
    8.9928    0.3214   25.2822 B   0  0  0  0  0  0  0  0  0  0  0  0
    8.2997   -6.3997   14.2754 F   0  0  0  0  0  0  0  0  0  0  0  0
   10.6524   -3.3275   18.7738 C   0  0  0  0  0  0  0  0  0  0  0  0
   10.1429   -0.7703   24.8021 C   0  0  0  0  0  0  0  0  0  0  0  0
    8.1437   -9.4545   17.1000 F   0  0  0  0  0  0  0  0  0  0  0  0
    9.9897   -0.0399   23.8201 C   0  0  0  0  0  0  0  0  0  0  0  0
    8.4788   -0.6917   27.0514 Cl  0  0  0  0  0  0  0  0  0  0  0  0
   10.0249   -1.9126   21.9539 N   0  0  0  0  0  0  0  0  0  0  0  0
    8.6848   -7.9576   16.0390 P   0  0  0  0  0  0  0  0  0  0  0  0
   11.6392   -4.4871   22.7093 O   0  0  0  0  0  0  0  0  0  0  0  0
    9.5691   -5.2407   19.2939 C   0  0  0  0  0  0  0  0  0  0  0  0
    8.8770    0.8743   24.3564 C   0  0  0  0  0  0  0  0  0  0  0  0
   10.7241   -3.9067   17.5776 O   0  0  0  0  0  0  0  0  0  0  0  0
   11.2434   -3.1677   22.1045 C   0  0  0  0  0  0  0  0  0  0  0  0
    8.9567   -1.9283   25.5914 C   0  0  0  0  0  0  0  0  0  0  0  0
   10.5426   -3.7883   19.5330 C   0  0  0  0  0  0  0  0  0  0  0  0
    8.4961   -5.7307   16.6136 He  0  0  0  0  0  0  0  0  0  0  0  0
    9.3844   -5.5846   18.0494 He  0  0  0  0  0  0  0  0  0  0  0  0
    7.3231   -5.6255   16.4512 He  0  0  0  0  0  0  0  0  0  0  0  0
    9.9257   -4.8013   20.6777 He  0  0  0  0  0  0  0  0  0  0  0  0
   10.9947   -3.5302   24.1368 He  0  0  0  0  0  0  0  0  0  0  0  0
    7.1578   -9.5624   16.7154 He  0  0  0  0  0  0  0  0  0  0  0  0
    8.0662   -6.8581   16.5626 He  0  0  0  0  0  0  0  0  0  0  0  0
    5.6394   -7.0333   16.8700 He  0  0  0  0  0  0  0  0  0  0  0  0
    9.5601   -7.0474   19.4607 He  0  0  0  0  0  0  0  0  0  0  0  0
  1  2  4  0
  1  5  1  0
  1  9  4  0
  1 16  2  0
  2  6  4  0
  2  8  4  0
  2  9  3  0
  2 15  3  0
  3  4  1  0
  3  6  3  0
  3  8  2  0
  3  9  1  0
  3 11  1  0
  3 12  4  0
  3 14  3  0
  3 15  1  0
  3 16  2  0
  4  7  2  0
  4 10  3  0
  4 12  1  0
  4 13  2  0
  4 14  4  0
  5  7  4  0
  5 10  3  0
  5 16  4  0
  6 12  2  0
  6 14  3  0
  6 16  3  0
  6 17  2  0
  7 12  3  0
  7 14  2  0
  7 15  1  0
  8 10  3  0
  8 13  3  0
  8 16  4  0
  9 15  4  0
  9 16  3  0
 10 11  1  0
 10 13  3  0
 10 14  3  0
 10 15  1  0
 10 17  4  0
 11 14  2  0
 11 17  2  0
 12 14  3  0
 12 16  3  0
 14 15  4  0
M  END
$$$$

 Created by Python create_sdf_string function

 26 54  0  0  0  0  0  0  0  0999 V2000
    9.2169   -6.0739   16.3536 C   0  0  0  0  0  0  0  0  0  0  0  0
    9.8638   -5.1629   18.1670 C   0  0  0  0  0  0  0  0  0  0  0  0
    9.1459    0.3714   25.7687 N   0  0  0  0  0  0  0  0  0  0  0  0
    8.0306   -8.1485   15.1866 O   0  0  0  0  0  0  0  0  0  0  0  0
    7.2033   -4.0364   16.9252 Se  0  0  0  0  0  0  0  0  0  0  0  0
   11.2820   -3.2939   19.6164 C   0  0  0  0  0  0  0  0  0  0  0  0
   10.5995   -1.0765   24.8042 C   0  0  0  0  0  0  0  0  0  0  0  0
   10.4242   -2.4542   22.4727 N   0  0  0  0  0  0  0  0  0  0  0  0
   10.3708   -5.4664   19.7995 C   0  0  0  0  0  0  0  0  0  0  0  0
   10.6482   -4.2239   23.7121 S   0  0  0  0  0  0  0  0  0  0  0  0
    8.2819   -6.7472   16.4202 C   0  0  0  0  0  0  0  0  0  0  0  0
   11.6685   -4.0706   22.7065 O   0  0  0  0  0  0  0  0  0  0  0  0
    9.9817   -5.5984   18.6336 C   0  0  0  0  0  0  0  0  0  0  0  0
    9.8312    0.7457   24.6518 C   0  0  0  0  0  0  0  0  0  0  0  0
   10.4412   -3.5302   18.1603 C   0  0  0  0  0  0  0  0  0  0  0  0
   10.5517   -3.6937   22.1791 C   0  0  0  0  0  0  0  0  0  0  0  0
    9.3956   -7.3854   18.9819 F   0  0  0  0  0  0  0  0  0  0  0  0
    9.2915   -2.1361   25.8149 C   0  0  0  0  0  0  0  0  0  0  0  0
   10.6047   -3.9244   20.2832 P   0  0  0  0  0  0  0  0  0  0  0  0
   10.6819   -1.8333   23.5930 He  0  0  0  0  0  0  0  0  0  0  0  0
    7.8405   -9.4909   16.5484 He  0  0  0  0  0  0  0  0  0  0  0  0
    9.3692   -0.0746   23.4582 He  0  0  0  0  0  0  0  0  0  0  0  0
    8.4527   -0.3560   26.1408 He  0  0  0  0  0  0  0  0  0  0  0  0
    8.6615   -9.1021   16.6861 He  0  0  0  0  0  0  0  0  0  0  0  0
    6.4500   -9.4115   15.5671 He  0  0  0  0  0  0  0  0  0  0  0  0
    7.4287   -6.2480   17.6288 He  0  0  0  0  0  0  0  0  0  0  0  0
  1  2  1  0
  1  4  2  0
  1  6  3  0
  1  9  3  0
  1 11  4  0
  1 13  2  0
  2  3  4  0
  2  5  3  0
  2  7  4  0
  2 10  1  0
  2 15  3  0
  2 17  4  0
  3  4  1  0
  3  5  4  0
  3  6  2  0
  3 14  4  0
  4  5  4  0
  4  6  3  0
  4  9  2  0
  4 10  2  0
  4 11  3  0
  4 12  1  0
  4 13  1  0
  4 17  4  0
  4 19  1  0
  5  7  2  0
  5 10  1  0
  5 15  4  0
  5 16  3  0
  5 18  1  0
  6 13  2  0
  6 15  4  0
  6 19  4  0
  7 10  4  0
  7 16  4  0
  7 18  4  0
  8 14  4  0
  8 16  4  0
  9 12  1  0
  9 13  4  0
  9 15  3  0
  9 19  4  0
 10 11  2  0
 10 12  4  0
 10 17  3  0
 11 13  4  0
 12 13  3  0
 12 16  4  0
 13 17  1  0
 14 16  4  0
 15 17  4  0
 15 18  1  0
 16 17  2  0
 16 19  1  0
M  END
$$$$

 Created by Python create_sdf_string function

 26 33  0  0  0  0  0  0  0  0999 V2000
   10.2141   -2.4147   23.5105 C   0  0  0  0  0  0  0  0  0  0  0  0
    9.1611   -5.7175   16.8789 Br  0  0  0  0  0  0  0  0  0  0  0  0
    9.9859   -4.7545   17.2663 C   0  0  0  0  0  0  0  0  0  0  0  0
    8.5002    0.5553   25.0470 N   0  0  0  0  0  0  0  0  0  0  0  0
    7.8518   -7.9245   15.0473 C   0  0  0  0  0  0  0  0  0  0  0  0
    8.7558   -5.0590   15.8082 N   0  0  0  0  0  0  0  0  0  0  0  0
    9.7983   -1.5362   24.1026 C   0  0  0  0  0  0  0  0  0  0  0  0
    9.9017    0.0460   23.4101 C   0  0  0  0  0  0  0  0  0  0  0  0
    9.2221   -0.3848   25.9700 C   0  0  0  0  0  0  0  0  0  0  0  0
    9.9853   -2.0210   22.4760 O   0  0  0  0  0  0  0  0  0  0  0  0
    9.5929   -5.4571   19.6098 C   0  0  0  0  0  0  0  0  0  0  0  0
   11.6185   -3.6334   23.8096 N   0  0  0  0  0  0  0  0  0  0  0  0
    8.7274   -9.3837   17.3828 C   0  0  0  0  0  0  0  0  0  0  0  0
    9.6618    1.0623   25.0393 C   0  0  0  0  0  0  0  0  0  0  0  0
   10.7790   -3.9495   18.9604 C   0  0  0  0  0  0  0  0  0  0  0  0
   10.0253   -6.7569   18.9216 F   0  0  0  0  0  0  0  0  0  0  0  0
    9.1791   -1.5133   25.2559 C   0  0  0  0  0  0  0  0  0  0  0  0
   10.6165   -3.5343   20.0116 He  0  0  0  0  0  0  0  0  0  0  0  0
    7.7748   -8.4211   16.0037 He  0  0  0  0  0  0  0  0  0  0  0  0
    8.1661   -9.9209   15.6086 He  0  0  0  0  0  0  0  0  0  0  0  0
    8.2789   -6.4647   16.5003 He  0  0  0  0  0  0  0  0  0  0  0  0
    7.6878   -7.7710   18.0149 He  0  0  0  0  0  0  0  0  0  0  0  0
   10.7388   -5.0516   23.1898 He  0  0  0  0  0  0  0  0  0  0  0  0
    9.7515   -5.6821   19.2276 He  0  0  0  0  0  0  0  0  0  0  0  0
   11.1208   -3.7143   21.4630 He  0  0  0  0  0  0  0  0  0  0  0  0
   11.1701   -3.6971   20.3107 He  0  0  0  0  0  0  0  0  0  0  0  0
  1  2  4  0
  1  4  2  0
  1  7  1  0
  1 10  4  0
  2 16  3  0
  3  5  2  0
  3  7  2  0
  3 15  4  0
  4  5  1  0
  4  6  1  0
  4  7  1  0
  4  9  3  0
  4 10  1  0
  4 13  2  0
  4 14  4  0
  5  8  1  0
  5 11  2  0
  6  7  4  0
  6  9  2  0
  6 11  3  0
  6 15  1  0
  6 16  2  0
  6 17  4  0
  7  8  4  0
  7 11  1  0
  7 13  4  0
  7 17  4  0
  8 14  4  0
  9 16  3  0
  9 17  4  0
 12 16  4  0
 13 14  1  0
 13 17  1  0
M  END
$$$$

 Created by Python create_sdf_string function

 26 35  0  0  0  0  0  0  0  0999 V2000
    8.6610   -5.3544   17.3500 C   0  0  0  0  0  0  0  0  0  0  0  0
   10.2868   -4.6859   17.6107 C   0  0  0  0  0  0  0  0  0  0  0  0
    8.7929    1.2744   25.2304 N   0  0  0  0  0  0  0  0  0  0  0  0
    8.2436   -7.3029   15.4448 P   0  0  0  0  0  0  0  0  0  0  0  0
    8.9086   -6.3780   15.8640 C   0  0  0  0  0  0  0  0  0  0  0  0
   10.0511   -1.1139   24.2248 C   0  0  0  0  0  0  0  0  0  0  0  0
    9.7644   -0.2017   24.1544 C   0  0  0  0  0  0  0  0  0  0  0  0
   10.6738   -2.3786   21.9085 N   0  0  0  0  0  0  0  0  0  0  0  0
   10.3221   -5.5055   19.8939 C   0  0  0  0  0  0  0  0  0  0  0  0
    9.3726   -6.3856   16.4986 C   0  0  0  0  0  0  0  0  0  0  0  0
    7.8790   -7.4529   17.4344 P   0  0  0  0  0  0  0  0  0  0  0  0
   11.0652   -4.1353   23.0882 N   0  0  0  0  0  0  0  0  0  0  0  0
   10.1903   -5.8807   19.3117 C   0  0  0  0  0  0  0  0  0  0  0  0
    9.4729    0.6139   24.5006 P   0  0  0  0  0  0  0  0  0  0  0  0
   10.2697   -3.4164   17.7963 C   0  0  0  0  0  0  0  0  0  0  0  0
   10.9254   -3.1001   21.7476 C   0  0  0  0  0  0  0  0  0  0  0  0
    9.3650   -7.4309   18.8251 F   0  0  0  0  0  0  0  0  0  0  0  0
    8.6344   -1.2707   25.7452 C   0  0  0  0  0  0  0  0  0  0  0  0
   10.2035   -3.6435   20.2276 C   0  0  0  0  0  0  0  0  0  0  0  0
   10.0573   -2.2545   23.6979 He  0  0  0  0  0  0  0  0  0  0  0  0
   10.9085   -3.4201   19.0477 He  0  0  0  0  0  0  0  0  0  0  0  0
    7.5304   -7.7964   15.4976 He  0  0  0  0  0  0  0  0  0  0  0  0
    8.9391   -0.7460   26.2607 He  0  0  0  0  0  0  0  0  0  0  0  0
   10.7657   -3.2972   24.3951 He  0  0  0  0  0  0  0  0  0  0  0  0
    6.8264   -7.4496   17.3207 He  0  0  0  0  0  0  0  0  0  0  0  0
    8.0370   -9.1572   14.6248 He  0  0  0  0  0  0  0  0  0  0  0  0
  1  4  1  0
  1  5  4  0
  1 10  4  0
  1 16  4  0
  2  5  3  0
  2  8  3  0
  2 13  3  0
  2 15  4  0
  3  5  4  0
  3  6  4  0
  3 15  1  0
  4  7  4  0
  4  8  2  0
  4 11  1  0
  4 12  3  0
  4 13  4  0
  4 17  3  0
  5 11  2  0
  5 17  1  0
  5 18  2  0
  6  7  4  0
  6 18  4  0
  7 14  4  0
  8 13  2  0
  8 15  3  0
  9 13  4  0
  9 16  3  0
  9 19  4  0
 11 12  4  0
 12 16  4  0
 14 16  3  0
 14 17  1  0
 15 18  2  0
 15 19  1  0
 16 19  1  0
M  END
$$$$

 Created by Python create_sdf_string function

 26 39  0  0  0  0  0  0  0  0999 V2000
    9.6661   -2.2717   23.6726 C   0  0  0  0  0  0  0  0  0  0  0  0
    8.9073   -4.7937   16.6944 C   0  0  0  0  0  0  0  0  0  0  0  0
   10.0662   -5.2374   17.5039 C   0  0  0  0  0  0  0  0  0  0  0  0
    8.5754    0.8883   25.9354 N   0  0  0  0  0  0  0  0  0  0  0  0
   10.3259   -3.4663   18.6436 C   0  0  0  0  0  0  0  0  0  0  0  0
    9.5488   -1.5323   24.0110 C   0  0  0  0  0  0  0  0  0  0  0  0
    9.4235   -0.2856   23.4620 C   0  0  0  0  0  0  0  0  0  0  0  0
    8.7871    0.2616   26.8695 C   0  0  0  0  0  0  0  0  0  0  0  0
   10.5375   -1.8065   22.5217 N   0  0  0  0  0  0  0  0  0  0  0  0
   10.8189   -5.7444   20.3042 C   0  0  0  0  0  0  0  0  0  0  0  0
   10.6112   -3.3834   24.0484 O   0  0  0  0  0  0  0  0  0  0  0  0
    9.0546   -8.5507   15.9102 Cl  0  0  0  0  0  0  0  0  0  0  0  0
    9.3575   -6.1413   16.8089 C   0  0  0  0  0  0  0  0  0  0  0  0
   11.5441   -3.2876   22.6485 P   0  0  0  0  0  0  0  0  0  0  0  0
   10.3282   -5.1307   18.8934 C   0  0  0  0  0  0  0  0  0  0  0  0
   10.5147   -4.3330   17.7513 F   0  0  0  0  0  0  0  0  0  0  0  0
   10.9184   -3.3696   22.4499 Cl  0  0  0  0  0  0  0  0  0  0  0  0
    9.4020   -7.0541   18.7101 F   0  0  0  0  0  0  0  0  0  0  0  0
   11.0919   -3.5853   20.2016 C   0  0  0  0  0  0  0  0  0  0  0  0
    8.1703   -7.9799   16.6301 He  0  0  0  0  0  0  0  0  0  0  0  0
    9.3136   -4.9947   15.6737 He  0  0  0  0  0  0  0  0  0  0  0  0
    8.1807   -9.1984   15.0712 He  0  0  0  0  0  0  0  0  0  0  0  0
    7.2920   -6.8916   17.4031 He  0  0  0  0  0  0  0  0  0  0  0  0
    8.5054   -6.5853   17.0351 He  0  0  0  0  0  0  0  0  0  0  0  0
    9.3527    1.2793   25.1927 He  0  0  0  0  0  0  0  0  0  0  0  0
    9.5970   -1.3713   25.9409 He  0  0  0  0  0  0  0  0  0  0  0  0
  1  2  2  0
  1  5  2  0
  1  7  2  0
  1  8  2  0
  1  9  4  0
  1 11  4  0
  2  5  3  0
  2  7  3  0
  2 13  4  0
  2 17  4  0
  3  9  3  0
  3 11  3  0
  3 12  4  0
  3 16  4  0
  4  8  4  0
  4 14  3  0
  5 16  4  0
  5 19  1  0
  6  7  4  0
  6 14  4  0
  6 15  4  0
  6 17  2  0
  6 18  4  0
  8 11  2  0
  8 19  2  0
  9 15  2  0
 10 11  4  0
 10 15  4  0
 10 19  4  0
 11 12  1  0
 12 13  2  0
 12 17  4  0
 12 19  2  0
 13 19  2  0
 14 17  4  0
 14 19  2  0
 15 18  1  0
 16 19  3  0
 17 19  1  0
M  END
$$$$

 Created by Python create_sdf_string function

 26 38  0  0  0  0  0  0  0  0999 V2000
    9.2846   -5.5161   17.0971 O   0  0  0  0  0  0  0  0  0  0  0  0
    8.5278    0.4172   25.9138 N   0  0  0  0  0  0  0  0  0  0  0  0
    8.1110   -8.5109   16.1553 I   0  0  0  0  0  0  0  0  0  0  0  0
   11.1758   -3.1879   19.8734 C   0  0  0  0  0  0  0  0  0  0  0  0
    9.7219   -1.3283   24.3703 C   0  0  0  0  0  0  0  0  0  0  0  0
    8.2818   -8.1319   15.8168 O   0  0  0  0  0  0  0  0  0  0  0  0
    9.6404   -0.1067   24.2766 C   0  0  0  0  0  0  0  0  0  0  0  0
    8.5578   -0.4715   26.0481 C   0  0  0  0  0  0  0  0  0  0  0  0
   10.4882   -2.5969   22.5178 N   0  0  0  0  0  0  0  0  0  0  0  0
   11.1957   -5.0053   20.4765 C   0  0  0  0  0  0  0  0  0  0  0  0
   10.3656   -3.3103   24.1162 C   0  0  0  0  0  0  0  0  0  0  0  0
    6.3755   -5.8162   18.0427 I   0  0  0  0  0  0  0  0  0  0  0  0
   11.2043   -3.8892   23.0047 O   0  0  0  0  0  0  0  0  0  0  0  0
    8.9780    1.0814   24.5329 Cl  0  0  0  0  0  0  0  0  0  0  0  0
   10.3137   -4.1612   18.4108 C   0  0  0  0  0  0  0  0  0  0  0  0
    8.8437   -1.3954   25.7403 C   0  0  0  0  0  0  0  0  0  0  0  0
   10.4377   -3.8149   20.7307 C   0  0  0  0  0  0  0  0  0  0  0  0
   10.4959   -2.2291   22.9178 He  0  0  0  0  0  0  0  0  0  0  0  0
   10.1027   -5.0337   18.0547 He  0  0  0  0  0  0  0  0  0  0  0  0
    8.2076   -6.7183   14.6429 He  0  0  0  0  0  0  0  0  0  0  0  0
    7.3026   -7.4545   17.0514 He  0  0  0  0  0  0  0  0  0  0  0  0
    9.0408   -6.1237   15.9997 He  0  0  0  0  0  0  0  0  0  0  0  0
    7.6752   -5.9352   18.0712 He  0  0  0  0  0  0  0  0  0  0  0  0
    9.9013   -5.7007   19.2011 He  0  0  0  0  0  0  0  0  0  0  0  0
   10.6456   -2.8949   21.9519 He  0  0  0  0  0  0  0  0  0  0  0  0
   10.0686   -7.1686   19.2258 He  0  0  0  0  0  0  0  0  0  0  0  0
  1  2  3  0
  1  5  4  0
  1  7  1  0
  1 12  2  0
  1 16  2  0
  2  3  2  0
  2  6  2  0
  2  8  4  0
  2 14  2  0
  3  5  1  0
  3  7  4  0
  3  8  1  0
  3 10  4  0
  3 14  3  0
  3 17  2  0
  4 17  4  0
  5  6  1  0
  5  7  2  0
  5  8  2  0
  5 12  3  0
  6 10  1  0
  6 13  1  0
  6 16  2  0
  7  9  2  0
  7 12  4  0
  7 14  4  0
  7 17  1  0
  8 16  4  0
 10 17  4  0
 11 12  1  0
 11 13  4  0
 11 14  3  0
 11 15  1  0
 12 16  1  0
 12 17  3  0
 13 14  4  0
 14 16  4  0
 15 16  2  0
M  END
$$$$

 Created by Python create_sdf_string function

 26 62  0  0  0  0  0  0  0  0999 V2000
   10.4178   -1.9687   23.7811 C   0  0  0  0  0  0  0  0  0  0  0  0
    9.4516   -5.2802   17.3117 O   0  0  0  0  0  0  0  0  0  0  0  0
   10.5236   -4.9198   17.8738 C   0  0  0  0  0  0  0  0  0  0  0  0
    8.3039    1.1006   25.9360 C   0  0  0  0  0  0  0  0  0  0  0  0
   10.3382   -8.7631   16.1472 Se  0  0  0  0  0  0  0  0  0  0  0  0
    6.6458   -6.6734   13.6308 F   0  0  0  0  0  0  0  0  0  0  0  0
   11.1046   -2.7783   19.8123 C   0  0  0  0  0  0  0  0  0  0  0  0
   10.0847   -1.3238   25.1125 C   0  0  0  0  0  0  0  0  0  0  0  0
    6.9489   -8.3598   16.3022 F   0  0  0  0  0  0  0  0  0  0  0  0
    9.7940    0.3348   24.5390 C   0  0  0  0  0  0  0  0  0  0  0  0
    7.7520   -0.4897   26.6795 C   0  0  0  0  0  0  0  0  0  0  0  0
   10.2750   -2.1302   21.9405 N   0  0  0  0  0  0  0  0  0  0  0  0
   11.0075   -3.2844   24.4568 N   0  0  0  0  0  0  0  0  0  0  0  0
    6.6542   -7.8383   16.4522 N   0  0  0  0  0  0  0  0  0  0  0  0
    9.3254   -5.9602   16.6686 C   0  0  0  0  0  0  0  0  0  0  0  0
    7.6679   -5.8743   18.8448 N   0  0  0  0  0  0  0  0  0  0  0  0
   10.9861   -4.3623   22.5524 Cl  0  0  0  0  0  0  0  0  0  0  0  0
   10.4248   -6.0614   19.0257 C   0  0  0  0  0  0  0  0  0  0  0  0
    8.9844    0.9229   24.8668 C   0  0  0  0  0  0  0  0  0  0  0  0
    9.8274   -3.8071   18.6979 C   0  0  0  0  0  0  0  0  0  0  0  0
   10.0757   -7.1409   19.1699 O   0  0  0  0  0  0  0  0  0  0  0  0
    9.1969   -1.3546   25.4916 C   0  0  0  0  0  0  0  0  0  0  0  0
   10.4240   -3.7512   20.4280 C   0  0  0  0  0  0  0  0  0  0  0  0
    9.9960   -5.2542   20.3479 He  0  0  0  0  0  0  0  0  0  0  0  0
    7.5788   -6.6516   16.5666 He  0  0  0  0  0  0  0  0  0  0  0  0
   11.1211   -3.3618   21.5885 He  0  0  0  0  0  0  0  0  0  0  0  0
  1  4  4  0
  1  5  4  0
  1  6  4  0
  1 12  4  0
  1 13  4  0
  1 16  4  0
  1 22  1  0
  2  3  1  0
  2  5  2  0
  2  7  3  0
  2  9  4  0
  2 11  4  0
  2 14  3  0
  2 15  1  0
  2 16  1  0
  2 22  4  0
  2 23  1  0
  3  7  2  0
  3 14  3  0
  3 18  4  0
  3 19  4  0
  3 20  4  0
  4  5  1  0
  4  6  4  0
  4 11  4  0
  4 13  4  0
  4 18  1  0
  4 22  4  0
  5  6  4  0
  5 11  1  0
  5 23  3  0
  6  8  1  0
  6 16  1  0
  6 21  2  0
  6 23  1  0
  7  9  2  0
  7 17  3  0
  7 23  4  0
  8  9  1  0
  8 10  4  0
  8 13  2  0
  8 16  3  0
  8 22  4  0
  9 10  1  0
  9 11  1  0
  9 12  3  0
  9 22  4  0
  9 23  1  0
 10 19  4  0
 11 14  3  0
 11 18  2  0
 11 22  4  0
 12 13  2  0
 12 22  3  0
 13 16  4  0
 13 17  4  0
 14 19  2  0
 14 20  2  0
 16 18  4  0
 16 21  1  0
 18 21  1  0
 22 23  1  0
M  END
$$$$

 Created by Python create_sdf_string function

 26 44  0  0  0  0  0  0  0  0999 V2000
   10.1063   -2.2490   23.3002 C   0  0  0  0  0  0  0  0  0  0  0  0
    9.3756   -5.3112   17.3463 N   0  0  0  0  0  0  0  0  0  0  0  0
   10.5559   -4.6448   17.7313 Cl  0  0  0  0  0  0  0  0  0  0  0  0
    7.7152    0.8109   25.3935 C   0  0  0  0  0  0  0  0  0  0  0  0
    6.2552   -8.1608   16.0194 Cl  0  0  0  0  0  0  0  0  0  0  0  0
    9.5802   -0.4495   24.6489 C   0  0  0  0  0  0  0  0  0  0  0  0
    9.7233    0.0662   24.6570 B   0  0  0  0  0  0  0  0  0  0  0  0
    8.4299   -0.6926   26.0224 Cl  0  0  0  0  0  0  0  0  0  0  0  0
   10.4939   -5.5832   20.5173 C   0  0  0  0  0  0  0  0  0  0  0  0
   11.0240   -2.8553   24.5899 N   0  0  0  0  0  0  0  0  0  0  0  0
    7.0717   -8.1202   15.1286 C   0  0  0  0  0  0  0  0  0  0  0  0
    8.7236   -6.0996   16.3833 N   0  0  0  0  0  0  0  0  0  0  0  0
    9.2070   -5.6523   16.2983 C   0  0  0  0  0  0  0  0  0  0  0  0
   11.2249   -4.4002   23.3860 O   0  0  0  0  0  0  0  0  0  0  0  0
   10.2972   -5.7800   19.3107 C   0  0  0  0  0  0  0  0  0  0  0  0
    8.8476    1.0286   25.0924 C   0  0  0  0  0  0  0  0  0  0  0  0
   10.9871   -3.4539   18.1046 C   0  0  0  0  0  0  0  0  0  0  0  0
   10.9004   -3.6675   21.1341 C   0  0  0  0  0  0  0  0  0  0  0  0
    9.3489   -6.7145   18.8587 O   0  0  0  0  0  0  0  0  0  0  0  0
   11.1677   -4.2763   20.4865 C   0  0  0  0  0  0  0  0  0  0  0  0
    9.0212   -7.0921   16.7515 He  0  0  0  0  0  0  0  0  0  0  0  0
   10.8311   -3.4050   19.3590 He  0  0  0  0  0  0  0  0  0  0  0  0
    6.2469   -9.1678   16.3396 He  0  0  0  0  0  0  0  0  0  0  0  0
   10.1430   -1.6197   22.4724 He  0  0  0  0  0  0  0  0  0  0  0  0
    7.5760   -7.4070   16.6244 He  0  0  0  0  0  0  0  0  0  0  0  0
    8.6343   -1.4102   25.8399 He  0  0  0  0  0  0  0  0  0  0  0  0
  1  5  2  0
  1 10  4  0
  1 14  2  0
  1 15  4  0
  1 19  4  0
  2  3  1  0
  2 12  1  0
  2 13  1  0
  2 16  4  0
  3  5  4  0
  3 11  4  0
  3 15  4  0
  3 17  4  0
  4  5  4  0
  4  8  2  0
  4 16  4  0
  5  7  1  0
  5 11  4  0
  5 13  4  0
  5 16  2  0
  5 17  3  0
  6  7  4  0
  6 10  2  0
  6 17  2  0
  7 13  4  0
  7 16  2  0
  8 11  1  0
  9 11  2  0
  9 15  4  0
  9 16  1  0
  9 19  1  0
 10 13  2  0
 11 14  3  0
 11 18  1  0
 11 19  3  0
 11 20  2  0
 13 14  3  0
 13 19  2  0
 14 18  4  0
 15 16  3  0
 15 19  1  0
 16 18  3  0
 16 19  4  0
 18 20  1  0
M  END
$$$$

 Created by Python create_sdf_string function

 26 28  0  0  0  0  0  0  0  0999 V2000
   10.0426   -1.7793   23.4798 C   0  0  0  0  0  0  0  0  0  0  0  0
    9.9611   -5.2903   17.1077 N   0  0  0  0  0  0  0  0  0  0  0  0
    7.8549    1.4907   25.2756 N   0  0  0  0  0  0  0  0  0  0  0  0
   10.3405   -2.9785   19.1517 C   0  0  0  0  0  0  0  0  0  0  0  0
    7.0872   -8.3790   16.6231 C   0  0  0  0  0  0  0  0  0  0  0  0
   10.0659   -0.4953   24.4030 C   0  0  0  0  0  0  0  0  0  0  0  0
    8.3224   -0.2986   26.1974 C   0  0  0  0  0  0  0  0  0  0  0  0
   10.7351   -5.0096   20.4711 C   0  0  0  0  0  0  0  0  0  0  0  0
   11.2614   -2.8547   23.8203 N   0  0  0  0  0  0  0  0  0  0  0  0
    9.0839   -5.8802   15.7912 C   0  0  0  0  0  0  0  0  0  0  0  0
   10.8415   -4.4362   23.2421 O   0  0  0  0  0  0  0  0  0  0  0  0
   10.5534   -4.0207   18.0873 C   0  0  0  0  0  0  0  0  0  0  0  0
   10.6516   -4.1558   21.9913 C   0  0  0  0  0  0  0  0  0  0  0  0
    8.8152   -1.3632   25.6695 C   0  0  0  0  0  0  0  0  0  0  0  0
   10.6932   -2.9283   20.8052 C   0  0  0  0  0  0  0  0  0  0  0  0
   10.4603   -4.8295   17.8081 He  0  0  0  0  0  0  0  0  0  0  0  0
    8.5711   -6.1127   18.1468 He  0  0  0  0  0  0  0  0  0  0  0  0
    6.0989   -8.3595   18.0196 He  0  0  0  0  0  0  0  0  0  0  0  0
    9.5566   -0.8343   24.2166 He  0  0  0  0  0  0  0  0  0  0  0  0
   11.2570   -2.1850   22.5142 He  0  0  0  0  0  0  0  0  0  0  0  0
    6.7600   -6.9178   16.2991 He  0  0  0  0  0  0  0  0  0  0  0  0
    7.6836   -7.5926   15.9542 He  0  0  0  0  0  0  0  0  0  0  0  0
    6.7829   -4.8428   16.9680 He  0  0  0  0  0  0  0  0  0  0  0  0
    9.8470   -5.1975   19.2563 He  0  0  0  0  0  0  0  0  0  0  0  0
    8.4819    0.9828   24.9405 He  0  0  0  0  0  0  0  0  0  0  0  0
    9.7588   -6.9540   19.4086 He  0  0  0  0  0  0  0  0  0  0  0  0
  1  5  4  0
  2  4  2  0
  2  5  3  0
  2  7  1  0
  2 10  1  0
  3  9  2  0
  3 10  1  0
  3 12  2  0
  3 15  2  0
  4  8  2  0
  4 10  2  0
  4 11  2  0
  4 12  4  0
  4 14  4  0
  4 15  4  0
  5  7  3  0
  5  9  3  0
  5 10  3  0
  5 12  3  0
  6  7  3  0
  6  8  4  0
  6 15  3  0
  7  9  3  0
  7 14  4  0
  8 14  3  0
  9 11  4  0
 11 13  4  0
 13 15  1  0
M  END
$$$$

 Created by Python create_sdf_string function

 26 35  0  0  0  0  0  0  0  0999 V2000
   10.3111   -2.1855   23.4660 C   0  0  0  0  0  0  0  0  0  0  0  0
    9.9495   -5.7855   17.1185 N   0  0  0  0  0  0  0  0  0  0  0  0
    8.3930    1.1774   25.7042 N   0  0  0  0  0  0  0  0  0  0  0  0
   10.4992   -3.3140   19.4861 F   0  0  0  0  0  0  0  0  0  0  0  0
    9.6113   -0.4884   24.1881 C   0  0  0  0  0  0  0  0  0  0  0  0
    7.7546   -6.2644   16.5837 F   0  0  0  0  0  0  0  0  0  0  0  0
    9.1752    0.6373   24.4170 C   0  0  0  0  0  0  0  0  0  0  0  0
    8.4198   -0.0949   26.2076 C   0  0  0  0  0  0  0  0  0  0  0  0
   10.5944   -2.2075   22.4750 N   0  0  0  0  0  0  0  0  0  0  0  0
   10.9294   -3.2092   24.3133 N   0  0  0  0  0  0  0  0  0  0  0  0
    9.3264   -8.3247   17.1034 F   0  0  0  0  0  0  0  0  0  0  0  0
    9.2871   -5.4488   16.2131 C   0  0  0  0  0  0  0  0  0  0  0  0
    6.4805   -7.3435   16.5117 Cl  0  0  0  0  0  0  0  0  0  0  0  0
   10.6602   -3.8315   22.9514 C   0  0  0  0  0  0  0  0  0  0  0  0
   10.3362   -4.8691   18.8745 C   0  0  0  0  0  0  0  0  0  0  0  0
   10.3006   -3.5762   18.1651 F   0  0  0  0  0  0  0  0  0  0  0  0
   10.4443   -3.2674   21.8856 C   0  0  0  0  0  0  0  0  0  0  0  0
    9.2401   -7.0784   18.9532 F   0  0  0  0  0  0  0  0  0  0  0  0
    8.3742   -0.9251   25.3789 C   0  0  0  0  0  0  0  0  0  0  0  0
   10.3991   -4.1916   20.4851 C   0  0  0  0  0  0  0  0  0  0  0  0
   10.3847   -5.2291   18.0971 He  0  0  0  0  0  0  0  0  0  0  0  0
    8.0739   -6.8386   17.3963 He  0  0  0  0  0  0  0  0  0  0  0  0
    8.5293   -8.0522   16.6421 He  0  0  0  0  0  0  0  0  0  0  0  0
   10.8700   -4.6215   20.6901 He  0  0  0  0  0  0  0  0  0  0  0  0
    7.4319   -7.1484   16.7495 He  0  0  0  0  0  0  0  0  0  0  0  0
    8.4000    0.8708   23.9647 He  0  0  0  0  0  0  0  0  0  0  0  0
  1  5  3  0
  1  6  3  0
  2  3  2  0
  2  6  2  0
  2  7  4  0
  2  8  3  0
  2  9  3  0
  2 13  3  0
  3  4  4  0
  3  8  4  0
  3 11  3  0
  3 15  4  0
  4  6  3  0
  4  7  1  0
  4 16  4  0
  4 17  3  0
  5  6  3  0
  5  7  4  0
  5 13  2  0
  5 14  3  0
  5 15  3  0
  5 19  4  0
  6 15  4  0
  7 13  1  0
  7 17  1  0
  8 14  3  0
  9 11  4  0
  9 13  4  0
 10 13  2  0
 11 13  3  0
 11 15  4  0
 12 15  4  0
 14 17  4  0
 15 18  1  0
 17 20  3  0
M  END
$$$$

 Created by Python create_sdf_string function

 26 75  0  0  0  0  0  0  0  0999 V2000
   10.4614   -2.3115   24.1208 C   0  0  0  0  0  0  0  0  0  0  0  0
    9.3208   -5.5929   17.1429 N   0  0  0  0  0  0  0  0  0  0  0  0
    9.9648   -4.8308   17.9358 C   0  0  0  0  0  0  0  0  0  0  0  0
    8.1451    1.5595   25.3387 N   0  0  0  0  0  0  0  0  0  0  0  0
    9.5010   -7.0650   18.1580 C   0  0  0  0  0  0  0  0  0  0  0  0
   10.9348   -3.5366   19.2737 C   0  0  0  0  0  0  0  0  0  0  0  0
    9.6859   -1.0700   24.2885 O   0  0  0  0  0  0  0  0  0  0  0  0
    7.2435   -6.3262   15.7611 C   0  0  0  0  0  0  0  0  0  0  0  0
    9.4641    0.3860   23.5130 C   0  0  0  0  0  0  0  0  0  0  0  0
    8.6744    0.0563   26.1845 C   0  0  0  0  0  0  0  0  0  0  0  0
   10.7831   -2.2874   22.3901 N   0  0  0  0  0  0  0  0  0  0  0  0
   10.0731   -5.2983   20.3705 C   0  0  0  0  0  0  0  0  0  0  0  0
   10.3273   -2.9141   23.8300 N   0  0  0  0  0  0  0  0  0  0  0  0
    6.7957   -7.9991   15.9018 N   0  0  0  0  0  0  0  0  0  0  0  0
    9.0205   -8.4157   18.7104 C   0  0  0  0  0  0  0  0  0  0  0  0
    9.4450   -4.9469   15.9930 C   0  0  0  0  0  0  0  0  0  0  0  0
    5.3676   -7.9349   15.6287 C   0  0  0  0  0  0  0  0  0  0  0  0
   10.8590   -3.9685   23.2744 O   0  0  0  0  0  0  0  0  0  0  0  0
   10.6451   -5.4752   18.8011 C   0  0  0  0  0  0  0  0  0  0  0  0
    8.8173    2.0210   24.4094 N   0  0  0  0  0  0  0  0  0  0  0  0
   10.5353   -3.6286   18.7669 C   0  0  0  0  0  0  0  0  0  0  0  0
   10.4093   -3.5906   22.0422 C   0  0  0  0  0  0  0  0  0  0  0  0
    9.3646   -7.2553   18.5942 F   0  0  0  0  0  0  0  0  0  0  0  0
    8.8702   -1.0609   25.8902 C   0  0  0  0  0  0  0  0  0  0  0  0
   10.3471   -3.5114   20.3049 C   0  0  0  0  0  0  0  0  0  0  0  0
    7.2452   -7.8673   15.3696 He  0  0  0  0  0  0  0  0  0  0  0  0
  1  5  2  0
  1  7  1  0
  1 11  4  0
  1 13  4  0
  1 16  3  0
  2  4  3  0
  2 16  1  0
  3 15  2  0
  3 18  2  0
  3 19  4  0
  3 21  4  0
  3 23  3  0
  3 25  1  0
  4 15  3  0
  4 20  4  0
  5  6  2  0
  5  7  1  0
  5  8  2  0
  5  9  4  0
  5 15  3  0
  5 17  4  0
  5 19  3  0
  5 21  1  0
  5 23  2  0
  5 24  4  0
  6  8  1  0
  6 11  1  0
  6 20  3  0
  6 21  4  0
  6 23  2  0
  6 25  4  0
  7  9  4  0
  7 12  3  0
  7 14  3  0
  7 15  3  0
  8 17  4  0
  8 18  3  0
  8 19  1  0
  9 14  3  0
  9 17  3  0
  9 20  4  0
  9 23  1  0
 10 14  1  0
 10 15  3  0
 10 20  1  0
 10 24  4  0
 11 14  2  0
 11 15  1  0
 11 17  2  0
 11 18  3  0
 11 24  2  0
 12 14  3  0
 12 19  4  0
 12 24  3  0
 12 25  4  0
 13 16  2  0
 13 18  1  0
 13 25  3  0
 14 19  2  0
 15 18  3  0
 15 19  3  0
 15 20  3  0
 15 21  3  0
 15 23  3  0
 16 23  2  0
 17 19  1  0
 17 20  4  0
 18 22  4  0
 19 21  1  0
 19 23  1  0
 19 25  2  0
 22 23  4  0
 22 24  1  0
 22 25  1  0
 23 24  2  0
M  END
$$$$

 Created by Python create_sdf_string function

 26 69  0  0  0  0  0  0  0  0999 V2000
    9.9905   -1.9562   24.0959 C   0  0  0  0  0  0  0  0  0  0  0  0
    9.5356   -4.9579   17.2621 N   0  0  0  0  0  0  0  0  0  0  0  0
   10.1122   -5.2775   18.2406 C   0  0  0  0  0  0  0  0  0  0  0  0
    9.2489   -8.2671   17.5291 P   0  0  0  0  0  0  0  0  0  0  0  0
    8.8591   -7.6804   16.7449 Cl  0  0  0  0  0  0  0  0  0  0  0  0
   10.9090   -3.2122   20.1835 C   0  0  0  0  0  0  0  0  0  0  0  0
    9.9658   -0.7700   24.4908 P   0  0  0  0  0  0  0  0  0  0  0  0
    8.4647   -7.7903   16.7285 C   0  0  0  0  0  0  0  0  0  0  0  0
    9.3015    0.2094   23.5217 C   0  0  0  0  0  0  0  0  0  0  0  0
    8.8618    0.6549   26.1967 C   0  0  0  0  0  0  0  0  0  0  0  0
   10.1984   -2.2266   22.5263 N   0  0  0  0  0  0  0  0  0  0  0  0
   10.0672   -5.6299   20.2150 O   0  0  0  0  0  0  0  0  0  0  0  0
   10.4303   -3.1032   24.2213 N   0  0  0  0  0  0  0  0  0  0  0  0
    7.0895   -7.5313   15.6553 C   0  0  0  0  0  0  0  0  0  0  0  0
    9.0643   -8.6453   17.3126 B   0  0  0  0  0  0  0  0  0  0  0  0
    9.4529   -5.0059   15.9272 C   0  0  0  0  0  0  0  0  0  0  0  0
   10.5177   -4.1954   22.7125 Cl  0  0  0  0  0  0  0  0  0  0  0  0
    9.6920   -6.2144   18.7595 C   0  0  0  0  0  0  0  0  0  0  0  0
    8.9020    0.9358   24.1227 S   0  0  0  0  0  0  0  0  0  0  0  0
   11.1542   -3.3958   21.5176 C   0  0  0  0  0  0  0  0  0  0  0  0
    9.2549   -7.1311   18.6749 S   0  0  0  0  0  0  0  0  0  0  0  0
    9.3026   -1.2740   25.7803 C   0  0  0  0  0  0  0  0  0  0  0  0
    8.0913    1.8006   24.6968 He  0  0  0  0  0  0  0  0  0  0  0  0
    7.8963   -6.7795   17.1016 He  0  0  0  0  0  0  0  0  0  0  0  0
   10.3440   -3.3141   18.2934 He  0  0  0  0  0  0  0  0  0  0  0  0
   11.0478   -4.4101   20.2041 He  0  0  0  0  0  0  0  0  0  0  0  0
  1  2  3  0
  1  6  2  0
  1  8  1  0
  1 13  3  0
  1 15  1  0
  1 19  4  0
  2  6  4  0
  2 11  3  0
  2 15  2  0
  2 16  1  0
  2 20  1  0
  3  4  3  0
  3  6  1  0
  3 14  3  0
  3 18  4  0
  4 11  2  0
  4 14  3  0
  4 15  1  0
  4 20  3  0
  4 21  1  0
  5  6  1  0
  5  7  2  0
  5  8  4  0
  5  9  1  0
  5 11  4  0
  5 14  3  0
  5 20  3  0
  6  7  2  0
  6 13  4  0
  7 10  4  0
  7 13  2  0
  7 15  3  0
  7 18  2  0
  7 22  4  0
  8  9  4  0
  8 10  3  0
  8 13  4  0
  8 16  1  0
  8 19  4  0
  8 20  2  0
  8 21  1  0
  8 22  4  0
  9 11  4  0
  9 14  1  0
 10 14  4  0
 10 17  4  0
 10 22  4  0
 11 14  4  0
 11 16  2  0
 11 20  4  0
 11 22  3  0
 12 14  4  0
 12 15  3  0
 12 17  1  0
 12 18  1  0
 13 15  3  0
 13 17  4  0
 13 21  2  0
 14 15  4  0
 14 16  1  0
 14 17  2  0
 14 18  2  0
 14 21  4  0
 15 17  2  0
 15 18  2  0
 16 21  1  0
 17 20  4  0
 18 21  1  0
 19 22  3  0
M  END
$$$$

 Created by Python create_sdf_string function

 26 52  0  0  0  0  0  0  0  0999 V2000
    9.9256   -2.5579   23.7755 C   0  0  0  0  0  0  0  0  0  0  0  0
    9.5471   -5.4551   17.5711 N   0  0  0  0  0  0  0  0  0  0  0  0
   10.3603   -4.6046   18.1185 Cl  0  0  0  0  0  0  0  0  0  0  0  0
    9.9813   -8.3115   17.0081 O   0  0  0  0  0  0  0  0  0  0  0  0
    8.0271   -7.9572   16.6308 Cl  0  0  0  0  0  0  0  0  0  0  0  0
   10.3743   -3.6027   19.0945 F   0  0  0  0  0  0  0  0  0  0  0  0
    9.8466    0.3590   23.3901 C   0  0  0  0  0  0  0  0  0  0  0  0
    8.8031   -0.0992   25.5409 C   0  0  0  0  0  0  0  0  0  0  0  0
   10.4194   -5.5640   20.5880 C   0  0  0  0  0  0  0  0  0  0  0  0
   10.1881   -3.0462   24.2723 N   0  0  0  0  0  0  0  0  0  0  0  0
    6.6311   -8.2733   15.4690 N   0  0  0  0  0  0  0  0  0  0  0  0
    8.3506   -8.2738   17.1954 S   0  0  0  0  0  0  0  0  0  0  0  0
    8.9540   -5.3121   16.3395 C   0  0  0  0  0  0  0  0  0  0  0  0
   10.9112   -4.4185   22.9613 C   0  0  0  0  0  0  0  0  0  0  0  0
    8.7700    1.6626   23.3768 C   0  0  0  0  0  0  0  0  0  0  0  0
   10.4212   -3.4453   18.2249 C   0  0  0  0  0  0  0  0  0  0  0  0
   10.7503   -3.6227   22.2784 O   0  0  0  0  0  0  0  0  0  0  0  0
    9.9084   -6.7248   18.7955 S   0  0  0  0  0  0  0  0  0  0  0  0
    9.5788   -1.2154   25.6695 C   0  0  0  0  0  0  0  0  0  0  0  0
   10.4763   -3.6917   20.0641 C   0  0  0  0  0  0  0  0  0  0  0  0
    8.3526    1.8334   25.1428 He  0  0  0  0  0  0  0  0  0  0  0  0
   10.4223   -0.8091   24.7058 He  0  0  0  0  0  0  0  0  0  0  0  0
    7.9924   -7.1441   18.2147 He  0  0  0  0  0  0  0  0  0  0  0  0
   10.9950   -1.8879   22.6326 He  0  0  0  0  0  0  0  0  0  0  0  0
    6.6722   -6.0711   16.7632 He  0  0  0  0  0  0  0  0  0  0  0  0
   10.6081   -5.4333   19.1484 He  0  0  0  0  0  0  0  0  0  0  0  0
  1  2  2  0
  1  4  1  0
  1  9  1  0
  1 10  4  0
  1 16  3  0
  1 18  3  0
  2  3  1  0
  2  5  4  0
  2 13  1  0
  3  4  4  0
  3  5  1  0
  3 12  3  0
  3 18  3  0
  4  6  3  0
  4  8  3  0
  4  9  4  0
  4 12  3  0
  4 18  3  0
  5  7  2  0
  5 10  4  0
  5 12  1  0
  5 15  2  0
  5 18  4  0
  6 11  3  0
  6 15  2  0
  6 16  4  0
  6 18  2  0
  6 20  4  0
  7 10  3  0
  7 15  4  0
  7 18  1  0
  7 20  2  0
  8  9  2  0
  8 11  4  0
  8 19  4  0
  9 10  2  0
  9 12  4  0
  9 20  4  0
 10 12  2  0
 10 13  4  0
 10 14  4  0
 10 16  2  0
 10 20  3  0
 11 17  1  0
 11 18  3  0
 11 19  2  0
 11 20  2  0
 12 13  1  0
 12 20  1  0
 13 19  1  0
 14 20  2  0
 17 20  1  0
M  END
$$$$

 Created by Python create_sdf_string function

 26 30  0  0  0  0  0  0  0  0999 V2000
   10.6225   -1.6563   23.6918 C   0  0  0  0  0  0  0  0  0  0  0  0
   10.7849   -5.0536   18.0778 N   0  0  0  0  0  0  0  0  0  0  0  0
   10.5715   -3.3680   19.9090 C   0  0  0  0  0  0  0  0  0  0  0  0
   10.2816    0.5713   23.6886 C   0  0  0  0  0  0  0  0  0  0  0  0
    8.3331    0.3542   25.9923 C   0  0  0  0  0  0  0  0  0  0  0  0
   10.5700   -2.3373   22.8972 F   0  0  0  0  0  0  0  0  0  0  0  0
   10.7781   -5.3579   20.0926 F   0  0  0  0  0  0  0  0  0  0  0  0
    7.8936   -8.4710   16.1190 C   0  0  0  0  0  0  0  0  0  0  0  0
    8.6722   -5.4309   16.4472 C   0  0  0  0  0  0  0  0  0  0  0  0
    7.9377   -5.8207   14.4523 C   0  0  0  0  0  0  0  0  0  0  0  0
   10.7890   -4.0067   22.9965 O   0  0  0  0  0  0  0  0  0  0  0  0
    9.9424   -5.7877   19.4813 C   0  0  0  0  0  0  0  0  0  0  0  0
    8.8712    0.9761   23.7907 C   0  0  0  0  0  0  0  0  0  0  0  0
   10.5843   -3.6557   18.1760 C   0  0  0  0  0  0  0  0  0  0  0  0
   11.0613   -3.4334   22.0637 C   0  0  0  0  0  0  0  0  0  0  0  0
   10.3704   -6.9126   18.8664 S   0  0  0  0  0  0  0  0  0  0  0  0
    9.0740   -1.1547   25.4638 C   0  0  0  0  0  0  0  0  0  0  0  0
   10.4146   -3.9784   20.6885 C   0  0  0  0  0  0  0  0  0  0  0  0
    9.8016   -5.5709   17.0152 He  0  0  0  0  0  0  0  0  0  0  0  0
    8.3817    1.5529   25.0121 He  0  0  0  0  0  0  0  0  0  0  0  0
    9.4491   -7.9159   17.9443 He  0  0  0  0  0  0  0  0  0  0  0  0
    8.0074   -7.2816   15.7825 He  0  0  0  0  0  0  0  0  0  0  0  0
   10.2001   -0.4495   23.8518 He  0  0  0  0  0  0  0  0  0  0  0  0
    7.5972   -7.3304   16.0989 He  0  0  0  0  0  0  0  0  0  0  0  0
   10.2551   -3.2458   23.5534 He  0  0  0  0  0  0  0  0  0  0  0  0
    5.9898   -8.1490   14.0837 He  0  0  0  0  0  0  0  0  0  0  0  0
  1  6  4  0
  1 10  2  0
  1 12  2  0
  2  7  4  0
  2  8  3  0
  2 12  4  0
  2 14  4  0
  2 15  2  0
  2 17  1  0
  3 10  2  0
  3 14  4  0
  3 18  4  0
  4 10  4  0
  4 11  3  0
  4 13  4  0
  5 12  1  0
  5 15  4  0
  6 14  3  0
  6 15  4  0
  7 12  4  0
  7 15  1  0
  7 18  4  0
  8 12  4  0
  8 14  4  0
  8 16  3  0
  8 17  2  0
 11 14  4  0
 12 13  4  0
 12 16  1  0
 15 18  2  0
M  END
$$$$

 Created by Python create_sdf_string function

 26 48  0  0  0  0  0  0  0  0999 V2000
    9.6961   -1.8695   23.5499 C   0  0  0  0  0  0  0  0  0  0  0  0
   10.3636   -4.9537   18.0517 O   0  0  0  0  0  0  0  0  0  0  0  0
    6.5583   -7.7555   17.4505 C   0  0  0  0  0  0  0  0  0  0  0  0
    6.9091   -7.7694   16.3282 C   0  0  0  0  0  0  0  0  0  0  0  0
   10.9840   -2.6052   18.8979 C   0  0  0  0  0  0  0  0  0  0  0  0
    7.9222   -7.3264   16.9614 C   0  0  0  0  0  0  0  0  0  0  0  0
   10.0655    0.4905   23.4730 C   0  0  0  0  0  0  0  0  0  0  0  0
    8.7755   -0.0810   25.7117 C   0  0  0  0  0  0  0  0  0  0  0  0
   10.9459   -1.9250   22.2899 Cl  0  0  0  0  0  0  0  0  0  0  0  0
   10.4480   -4.8772   20.3791 C   0  0  0  0  0  0  0  0  0  0  0  0
    9.9760   -3.0634   23.9097 N   0  0  0  0  0  0  0  0  0  0  0  0
    7.2886   -8.9705   18.0061 N   0  0  0  0  0  0  0  0  0  0  0  0
    8.8890   -5.8317   16.3272 C   0  0  0  0  0  0  0  0  0  0  0  0
   10.5926   -4.1023   22.9777 O   0  0  0  0  0  0  0  0  0  0  0  0
   10.1914   -5.6629   19.1697 P   0  0  0  0  0  0  0  0  0  0  0  0
    9.5360    1.2562   24.0837 C   0  0  0  0  0  0  0  0  0  0  0  0
   10.6289   -3.4802   18.0205 C   0  0  0  0  0  0  0  0  0  0  0  0
   10.9347   -3.6579   21.4644 C   0  0  0  0  0  0  0  0  0  0  0  0
   10.3413   -6.6920   18.6488 S   0  0  0  0  0  0  0  0  0  0  0  0
    9.2501   -0.7712   25.1469 C   0  0  0  0  0  0  0  0  0  0  0  0
   10.8275   -3.7826   20.8236 C   0  0  0  0  0  0  0  0  0  0  0  0
    9.9928   -5.2528   16.6486 He  0  0  0  0  0  0  0  0  0  0  0  0
    8.7989    1.4811   25.1515 He  0  0  0  0  0  0  0  0  0  0  0  0
    9.4537   -1.0889   23.7368 He  0  0  0  0  0  0  0  0  0  0  0  0
    6.3091   -8.1269   13.6096 He  0  0  0  0  0  0  0  0  0  0  0  0
    7.3043   -7.4715   15.2994 He  0  0  0  0  0  0  0  0  0  0  0  0
  1  4  3  0
  1  9  4  0
  1 11  4  0
  1 12  4  0
  1 17  2  0
  2  4  1  0
  2 10  3  0
  2 11  3  0
  2 12  1  0
  2 14  3  0
  2 15  4  0
  2 17  4  0
  3  4  2  0
  3  6  4  0
  3 10  2  0
  3 12  4  0
  3 13  2  0
  3 17  1  0
  3 21  2  0
  4  6  2  0
  4  7  1  0
  4 13  3  0
  4 14  2  0
  4 15  1  0
  4 19  3  0
  5  6  1  0
  5 17  4  0
  5 21  4  0
  6 10  2  0
  6 16  3  0
  6 20  2  0
  7  9  1  0
  7 16  3  0
  8 20  1  0
  9 12  4  0
  9 18  4  0
 10 14  3  0
 10 15  4  0
 10 21  4  0
 11 14  4  0
 11 17  4  0
 12 15  3  0
 12 16  4  0
 12 19  4  0
 13 18  1  0
 14 18  4  0
 15 19  4  0
 17 19  2  0
M  END
$$$$

 Created by Python create_sdf_string function

 26 51  0  0  0  0  0  0  0  0999 V2000
   10.0410   -5.0663   16.9191 N   0  0  0  0  0  0  0  0  0  0  0  0
   10.0921   -5.1155   17.6124 C   0  0  0  0  0  0  0  0  0  0  0  0
    8.7366    2.0113   25.1969 N   0  0  0  0  0  0  0  0  0  0  0  0
    7.7689   -9.0319   14.3948 P   0  0  0  0  0  0  0  0  0  0  0  0
   11.0243   -3.0299   19.4136 C   0  0  0  0  0  0  0  0  0  0  0  0
   10.1133   -0.8656   24.1806 C   0  0  0  0  0  0  0  0  0  0  0  0
    7.7575   -8.7303   14.9773 O   0  0  0  0  0  0  0  0  0  0  0  0
    9.8952    0.6501   23.4551 C   0  0  0  0  0  0  0  0  0  0  0  0
   10.9566   -1.6896   22.0281 N   0  0  0  0  0  0  0  0  0  0  0  0
   10.9431   -5.2350   20.4739 C   0  0  0  0  0  0  0  0  0  0  0  0
   10.0632   -3.0913   24.2716 N   0  0  0  0  0  0  0  0  0  0  0  0
    7.0021   -9.6869   15.4108 C   0  0  0  0  0  0  0  0  0  0  0  0
    6.3257   -8.3335   17.3984 N   0  0  0  0  0  0  0  0  0  0  0  0
    9.4930   -6.1689   16.3929 C   0  0  0  0  0  0  0  0  0  0  0  0
    8.0536   -6.0254   14.4568 C   0  0  0  0  0  0  0  0  0  0  0  0
    9.4913    1.5418   24.0768 C   0  0  0  0  0  0  0  0  0  0  0  0
   10.4749   -3.1959   17.4592 C   0  0  0  0  0  0  0  0  0  0  0  0
   10.5234   -3.3055   22.0676 C   0  0  0  0  0  0  0  0  0  0  0  0
    9.7880   -6.7573   18.5972 S   0  0  0  0  0  0  0  0  0  0  0  0
    8.9115   -1.1232   25.5162 C   0  0  0  0  0  0  0  0  0  0  0  0
   10.4051   -3.6661   20.4956 C   0  0  0  0  0  0  0  0  0  0  0  0
   10.5192   -2.5765   22.8552 He  0  0  0  0  0  0  0  0  0  0  0  0
    8.6542   -8.0175   18.3071 He  0  0  0  0  0  0  0  0  0  0  0  0
    8.6239   -0.0346   26.0618 He  0  0  0  0  0  0  0  0  0  0  0  0
   10.6475   -3.6518   22.4260 He  0  0  0  0  0  0  0  0  0  0  0  0
   10.1246   -5.1401   18.7511 He  0  0  0  0  0  0  0  0  0  0  0  0
  1  4  4  0
  1  5  3  0
  1 11  4  0
  1 12  3  0
  1 14  4  0
  2  7  2  0
  2 17  4  0
  2 18  4  0
  3  4  3  0
  3  6  4  0
  3 12  2  0
  3 16  4  0
  4  7  1  0
  4 11  2  0
  4 12  2  0
  4 13  3  0
  4 16  4  0
  5  9  4  0
  5 16  2  0
  6  8  4  0
  6 14  2  0
  6 15  3  0
  6 20  4  0
  7  8  2  0
  7 15  4  0
  7 17  4  0
  7 20  4  0
  7 21  3  0
  8  9  1  0
  8 16  4  0
  9 11  1  0
  9 12  1  0
  9 15  3  0
  9 17  4  0
  9 19  4  0
 10 11  2  0
 10 12  4  0
 10 17  1  0
 10 20  3  0
 10 21  4  0
 11 19  2  0
 12 16  3  0
 12 19  3  0
 12 20  1  0
 13 15  1  0
 13 16  1  0
 13 17  3  0
 13 19  4  0
 13 21  4  0
 18 20  4  0
 18 21  1  0
M  END
$$$$

 Created by Python create_sdf_string function

 26 60  0  0  0  0  0  0  0  0999 V2000
    9.2683   -4.4214   16.8891 N   0  0  0  0  0  0  0  0  0  0  0  0
   10.2868   -4.6251   17.5167 C   0  0  0  0  0  0  0  0  0  0  0  0
    8.1534    1.2911   24.9563 C   0  0  0  0  0  0  0  0  0  0  0  0
    8.0898   -8.5903   18.3505 F   0  0  0  0  0  0  0  0  0  0  0  0
    6.3438   -7.5867   17.2869 N   0  0  0  0  0  0  0  0  0  0  0  0
   11.0980   -2.5396   19.3921 C   0  0  0  0  0  0  0  0  0  0  0  0
    9.9638   -0.2995   24.0442 C   0  0  0  0  0  0  0  0  0  0  0  0
    6.2867   -8.4292   15.6774 C   0  0  0  0  0  0  0  0  0  0  0  0
   10.1191    0.3456   23.0488 F   0  0  0  0  0  0  0  0  0  0  0  0
    9.6219   -2.3224   22.1011 N   0  0  0  0  0  0  0  0  0  0  0  0
   10.5829   -5.0370   20.2623 C   0  0  0  0  0  0  0  0  0  0  0  0
   10.0234   -3.0259   24.2861 N   0  0  0  0  0  0  0  0  0  0  0  0
    8.5451   -8.0794   15.7135 O   0  0  0  0  0  0  0  0  0  0  0  0
    6.6385  -10.1765   18.1019 Cl  0  0  0  0  0  0  0  0  0  0  0  0
    8.5791   -6.1685   16.0194 C   0  0  0  0  0  0  0  0  0  0  0  0
    7.6109   -5.3783   16.3122 C   0  0  0  0  0  0  0  0  0  0  0  0
   10.2597   -5.5797   19.0263 C   0  0  0  0  0  0  0  0  0  0  0  0
   10.5597   -3.4292   18.0088 C   0  0  0  0  0  0  0  0  0  0  0  0
   10.3634   -3.5337   22.2668 C   0  0  0  0  0  0  0  0  0  0  0  0
    9.3755   -6.7577   18.6688 S   0  0  0  0  0  0  0  0  0  0  0  0
   10.9374   -3.7076   20.4396 O   0  0  0  0  0  0  0  0  0  0  0  0
   10.2771   -1.8712   23.4370 He  0  0  0  0  0  0  0  0  0  0  0  0
    8.4705    0.0015   26.0003 He  0  0  0  0  0  0  0  0  0  0  0  0
   10.3876   -4.1874   22.9889 He  0  0  0  0  0  0  0  0  0  0  0  0
    9.3135    1.9202   24.1474 He  0  0  0  0  0  0  0  0  0  0  0  0
    9.0959   -1.1040   24.8194 He  0  0  0  0  0  0  0  0  0  0  0  0
  1  2  2  0
  1  4  1  0
  1  8  4  0
  1 13  1  0
  1 15  4  0
  2 11  3  0
  2 16  3  0
  2 17  4  0
  2 18  4  0
  3 10  4  0
  3 13  3  0
  3 16  3  0
  3 20  2  0
  3 21  1  0
  4  5  1  0
  4  7  4  0
  4 10  4  0
  4 14  4  0
  4 15  4  0
  4 17  2  0
  4 21  2  0
  5  8  1  0
  5 10  4  0
  5 11  3  0
  5 16  1  0
  5 20  4  0
  6 13  4  0
  6 18  4  0
  6 21  4  0
  7  9  4  0
  7 12  4  0
  7 15  4  0
  8 10  3  0
  8 14  2  0
  8 16  2  0
  8 17  3  0
  8 19  2  0
  8 20  1  0
  9 13  2  0
  9 14  1  0
 10 12  4  0
 10 13  3  0
 11 14  4  0
 11 17  4  0
 11 19  4  0
 12 14  2  0
 12 16  2  0
 12 19  2  0
 12 20  3  0
 13 20  3  0
 13 21  1  0
 14 16  4  0
 14 18  3  0
 14 21  1  0
 15 16  4  0
 15 20  4  0
 16 18  3  0
 16 20  3  0
 17 20  2  0
 19 21  1  0
M  END
$$$$

 Created by Python create_sdf_string function

 26 43  0  0  0  0  0  0  0  0999 V2000
   10.0304   -1.5222   23.0947 C   0  0  0  0  0  0  0  0  0  0  0  0
    8.9620   -4.1026   16.1559 N   0  0  0  0  0  0  0  0  0  0  0  0
    9.7260   -3.9147   18.0628 C   0  0  0  0  0  0  0  0  0  0  0  0
    8.3772    1.8668   25.3323 C   0  0  0  0  0  0  0  0  0  0  0  0
   11.4104   -2.7273   19.6182 C   0  0  0  0  0  0  0  0  0  0  0  0
   10.0341   -0.7182   24.2917 C   0  0  0  0  0  0  0  0  0  0  0  0
    6.5536   -6.8469   15.8936 C   0  0  0  0  0  0  0  0  0  0  0  0
   10.1095    0.7984   23.0286 C   0  0  0  0  0  0  0  0  0  0  0  0
    8.8119    0.1167   25.4858 O   0  0  0  0  0  0  0  0  0  0  0  0
   10.5064   -2.6201   22.0416 N   0  0  0  0  0  0  0  0  0  0  0  0
   10.7431   -4.8802   20.1579 C   0  0  0  0  0  0  0  0  0  0  0  0
   10.3758   -3.1050   23.8810 N   0  0  0  0  0  0  0  0  0  0  0  0
    6.5776  -11.3258   17.8263 S   0  0  0  0  0  0  0  0  0  0  0  0
    8.5286   -5.9683   17.1092 F   0  0  0  0  0  0  0  0  0  0  0  0
    9.8096   -4.0327   22.8866 O   0  0  0  0  0  0  0  0  0  0  0  0
    9.9928   -5.4917   18.7965 C   0  0  0  0  0  0  0  0  0  0  0  0
    9.5175    1.9902   24.1236 N   0  0  0  0  0  0  0  0  0  0  0  0
   10.3244   -3.0685   21.6222 C   0  0  0  0  0  0  0  0  0  0  0  0
    9.5951   -6.8442   18.8029 S   0  0  0  0  0  0  0  0  0  0  0  0
    9.0654   -1.1319   24.8208 N   0  0  0  0  0  0  0  0  0  0  0  0
   10.9186   -4.2070   20.7358 C   0  0  0  0  0  0  0  0  0  0  0  0
    6.5369  -10.1389   17.4100 He  0  0  0  0  0  0  0  0  0  0  0  0
    5.5613   -7.2927   17.4122 He  0  0  0  0  0  0  0  0  0  0  0  0
    7.8694   -8.4381   16.2872 He  0  0  0  0  0  0  0  0  0  0  0  0
    8.3896   -7.2525   15.3366 He  0  0  0  0  0  0  0  0  0  0  0  0
   10.7362   -2.9727   18.0901 He  0  0  0  0  0  0  0  0  0  0  0  0
  1  5  2  0
  1  6  1  0
  1  8  3  0
  1 10  1  0
  1 12  4  0
  1 18  2  0
  2  3  4  0
  2  4  3  0
  2 14  4  0
  3 12  1  0
  3 14  3  0
  3 16  1  0
  4  9  4  0
  4 13  4  0
  4 17  3  0
  4 19  4  0
  5 11  2  0
  5 13  1  0
  5 21  4  0
  6  8  4  0
  6  9  2  0
  6 18  2  0
  7  8  3  0
  7 16  4  0
  7 21  4  0
  8 17  4  0
  9 13  4  0
  9 17  4  0
  9 20  4  0
  9 21  2  0
 10 18  4  0
 10 21  2  0
 11 13  2  0
 11 16  4  0
 12 15  4  0
 12 18  3  0
 13 17  1  0
 13 21  2  0
 14 19  4  0
 15 18  4  0
 15 20  1  0
 16 19  4  0
 18 21  1  0
M  END
$$$$

 Created by Python create_sdf_string function

 26 56  0  0  0  0  0  0  0  0999 V2000
    9.9198   -1.4398   23.0846 C   0  0  0  0  0  0  0  0  0  0  0  0
    9.2206   -4.3069   16.7944 N   0  0  0  0  0  0  0  0  0  0  0  0
   10.2086   -3.7489   17.4689 C   0  0  0  0  0  0  0  0  0  0  0  0
    9.0310    1.7452   24.8036 C   0  0  0  0  0  0  0  0  0  0  0  0
    5.0963   -7.2213   18.9226 C   0  0  0  0  0  0  0  0  0  0  0  0
   10.6093   -3.1255   19.4784 C   0  0  0  0  0  0  0  0  0  0  0  0
    9.7750   -0.3789   23.9297 O   0  0  0  0  0  0  0  0  0  0  0  0
    8.6546    0.2353   25.0683 C   0  0  0  0  0  0  0  0  0  0  0  0
   10.9670   -1.7382   21.9653 N   0  0  0  0  0  0  0  0  0  0  0  0
    9.7308   -5.0226   20.2732 C   0  0  0  0  0  0  0  0  0  0  0  0
   10.2246   -3.3272   23.5881 N   0  0  0  0  0  0  0  0  0  0  0  0
    7.6424   -7.9929   16.3789 C   0  0  0  0  0  0  0  0  0  0  0  0
    6.6258   -9.3280   15.9800 C   0  0  0  0  0  0  0  0  0  0  0  0
    8.9450   -5.6986   17.1700 C   0  0  0  0  0  0  0  0  0  0  0  0
    7.6892   -7.6493   16.5696 O   0  0  0  0  0  0  0  0  0  0  0  0
   10.2817   -4.4514   22.6890 O   0  0  0  0  0  0  0  0  0  0  0  0
    9.6730   -5.6973   18.9117 C   0  0  0  0  0  0  0  0  0  0  0  0
    9.7559    1.5343   23.7522 C   0  0  0  0  0  0  0  0  0  0  0  0
   10.4827   -2.9822   17.5857 C   0  0  0  0  0  0  0  0  0  0  0  0
   10.4054   -3.4876   21.7522 C   0  0  0  0  0  0  0  0  0  0  0  0
    9.3260   -6.1185   18.4049 C   0  0  0  0  0  0  0  0  0  0  0  0
    9.0969   -0.4519   24.9918 N   0  0  0  0  0  0  0  0  0  0  0  0
   10.8930   -3.7223   20.2443 C   0  0  0  0  0  0  0  0  0  0  0  0
    6.0463   -8.1945   17.3335 He  0  0  0  0  0  0  0  0  0  0  0  0
    8.2794   -7.0013   17.8080 He  0  0  0  0  0  0  0  0  0  0  0  0
    9.8747    0.8050   23.1669 He  0  0  0  0  0  0  0  0  0  0  0  0
  1  7  1  0
  1  9  2  0
  1 10  1  0
  1 11  4  0
  1 12  2  0
  1 19  3  0
  1 23  2  0
  2  3  4  0
  2  5  2  0
  2 10  3  0
  2 14  4  0
  3  5  4  0
  3 15  3  0
  3 17  4  0
  3 19  3  0
  4  8  1  0
  4 16  2  0
  4 18  4  0
  5  6  1  0
  5 14  1  0
  6 15  3  0
  6 16  2  0
  6 19  4  0
  6 23  4  0
  7  8  3  0
  7  9  3  0
  7 21  1  0
  7 22  4  0
  8 15  4  0
  9 20  4  0
  9 22  4  0
 10 12  3  0
 10 17  4  0
 10 23  4  0
 11 12  1  0
 11 16  4  0
 11 19  4  0
 11 23  1  0
 12 13  2  0
 12 15  4  0
 12 17  4  0
 12 23  4  0
 13 14  1  0
 13 17  2  0
 13 19  4  0
 13 20  2  0
 14 17  4  0
 14 21  2  0
 15 18  4  0
 15 19  1  0
 15 20  2  0
 15 21  4  0
 15 23  1  0
 16 20  4  0
 16 21  4  0
 20 23  3  0
M  END
$$$$

 Created by Python create_sdf_string function

 26 50  0  0  0  0  0  0  0  0999 V2000
   10.4784   -1.5349   23.1132 C   0  0  0  0  0  0  0  0  0  0  0  0
    9.9983   -5.1059   16.1696 N   0  0  0  0  0  0  0  0  0  0  0  0
    9.7431   -4.3112   17.3777 F   0  0  0  0  0  0  0  0  0  0  0  0
    8.7224    1.6895   24.4292 C   0  0  0  0  0  0  0  0  0  0  0  0
    4.7457   -8.9000   16.8553 C   0  0  0  0  0  0  0  0  0  0  0  0
   10.4184   -2.6649   19.4584 C   0  0  0  0  0  0  0  0  0  0  0  0
   10.3196   -0.2869   23.9084 F   0  0  0  0  0  0  0  0  0  0  0  0
   10.5680   -1.9853   22.0094 N   0  0  0  0  0  0  0  0  0  0  0  0
    9.8080   -4.9253   19.6955 C   0  0  0  0  0  0  0  0  0  0  0  0
   10.0513   -3.0422   23.5661 N   0  0  0  0  0  0  0  0  0  0  0  0
    6.3602   -6.8884   16.7864 C   0  0  0  0  0  0  0  0  0  0  0  0
    6.0504   -8.7171   14.8727 C   0  0  0  0  0  0  0  0  0  0  0  0
    9.2812   -6.1632   16.7559 C   0  0  0  0  0  0  0  0  0  0  0  0
    7.9849   -6.4309   15.7541 C   0  0  0  0  0  0  0  0  0  0  0  0
   10.2109   -3.9957   22.9942 O   0  0  0  0  0  0  0  0  0  0  0  0
    9.6435   -5.3146   18.8253 C   0  0  0  0  0  0  0  0  0  0  0  0
    9.5265    1.4469   23.5114 N   0  0  0  0  0  0  0  0  0  0  0  0
   11.3005   -3.4989   17.8560 C   0  0  0  0  0  0  0  0  0  0  0  0
    9.3352   -6.8053   18.3200 C   0  0  0  0  0  0  0  0  0  0  0  0
    8.7090   -0.3463   25.2782 N   0  0  0  0  0  0  0  0  0  0  0  0
   10.1653   -3.5781   20.9274 C   0  0  0  0  0  0  0  0  0  0  0  0
    6.2106   -7.0613   18.0105 He  0  0  0  0  0  0  0  0  0  0  0  0
    6.5351   -8.1988   17.9031 He  0  0  0  0  0  0  0  0  0  0  0  0
    9.9069    0.5305   22.4476 He  0  0  0  0  0  0  0  0  0  0  0  0
    8.8194    0.8844   25.9020 He  0  0  0  0  0  0  0  0  0  0  0  0
   10.7906   -3.0744   21.5741 He  0  0  0  0  0  0  0  0  0  0  0  0
  1  8  4  0
  1 10  4  0
  1 15  4  0
  1 16  4  0
  1 19  3  0
  1 21  4  0
  2  3  4  0
  2  9  2  0
  2 12  4  0
  2 17  3  0
  2 19  4  0
  3 12  1  0
  3 18  4  0
  4  6  4  0
  4 16  2  0
  4 17  4  0
  4 20  2  0
  5  9  2  0
  5 12  4  0
  5 17  1  0
  5 19  4  0
  5 20  1  0
  5 21  3  0
  6 17  3  0
  6 18  4  0
  7 13  3  0
  7 16  1  0
  7 20  4  0
  8  9  1  0
  8 10  1  0
  8 11  1  0
  8 12  4  0
  8 14  4  0
  8 21  1  0
  9 16  4  0
  9 21  4  0
 10 15  2  0
 10 20  2  0
 10 21  2  0
 11 12  4  0
 11 19  2  0
 13 19  4  0
 14 15  4  0
 14 17  3  0
 14 19  1  0
 14 20  4  0
 14 21  2  0
 15 21  4  0
 16 19  4  0
 18 19  4  0
M  END
$$$$

 Created by Python create_sdf_string function

 26 58  0  0  0  0  0  0  0  0999 V2000
    9.9286   -1.4730   23.2699 C   0  0  0  0  0  0  0  0  0  0  0  0
    9.7453   -4.9752   16.3440 N   0  0  0  0  0  0  0  0  0  0  0  0
    8.4178    1.7370   24.5717 Se  0  0  0  0  0  0  0  0  0  0  0  0
    5.2828   -6.8269   16.5334 Cl  0  0  0  0  0  0  0  0  0  0  0  0
   10.0985   -0.0316   23.7548 C   0  0  0  0  0  0  0  0  0  0  0  0
    5.5393   -7.3168   16.8941 F   0  0  0  0  0  0  0  0  0  0  0  0
   10.2911    0.4710   22.5875 C   0  0  0  0  0  0  0  0  0  0  0  0
    8.5006    0.8656   24.7778 C   0  0  0  0  0  0  0  0  0  0  0  0
   10.5157   -2.3918   21.4103 N   0  0  0  0  0  0  0  0  0  0  0  0
   10.0813   -4.5998   20.1967 C   0  0  0  0  0  0  0  0  0  0  0  0
   10.2964   -2.7825   23.7230 N   0  0  0  0  0  0  0  0  0  0  0  0
    7.3244   -7.2915   14.7971 C   0  0  0  0  0  0  0  0  0  0  0  0
    6.8433   -8.3487   16.8707 Br  0  0  0  0  0  0  0  0  0  0  0  0
    8.8713   -6.2803   17.1192 C   0  0  0  0  0  0  0  0  0  0  0  0
    7.2718   -6.6530   15.6091 C   0  0  0  0  0  0  0  0  0  0  0  0
    9.2117   -5.5000   18.9129 C   0  0  0  0  0  0  0  0  0  0  0  0
    8.7764    2.0616   23.9115 C   0  0  0  0  0  0  0  0  0  0  0  0
   10.3771   -3.4444   17.9360 Cl  0  0  0  0  0  0  0  0  0  0  0  0
   10.8802   -3.0051   22.2371 C   0  0  0  0  0  0  0  0  0  0  0  0
    9.5325   -6.9193   17.8652 C   0  0  0  0  0  0  0  0  0  0  0  0
   10.1471   -3.3814   20.0651 C   0  0  0  0  0  0  0  0  0  0  0  0
    9.7504   -4.6610   17.5785 He  0  0  0  0  0  0  0  0  0  0  0  0
    6.7042   -6.8934   17.0041 He  0  0  0  0  0  0  0  0  0  0  0  0
   10.7658   -2.6666   19.0774 He  0  0  0  0  0  0  0  0  0  0  0  0
   10.4218   -3.5489   22.8439 He  0  0  0  0  0  0  0  0  0  0  0  0
    9.5511   -0.7544   25.1910 He  0  0  0  0  0  0  0  0  0  0  0  0
  1  4  1  0
  1  6  3  0
  1  9  4  0
  1 10  1  0
  1 11  4  0
  1 13  4  0
  1 21  2  0
  2  6  4  0
  2  7  2  0
  2 14  4  0
  2 15  2  0
  2 19  2  0
  3  7  2  0
  3  8  4  0
  3 14  1  0
  3 15  2  0
  3 17  1  0
  3 18  2  0
  3 19  2  0
  4  7  2  0
  4 10  2  0
  4 12  2  0
  4 20  4  0
  4 21  4  0
  5  6  1  0
  5  7  4  0
  5 11  4  0
  6  7  1  0
  6  9  4  0
  6 16  1  0
  6 18  2  0
  6 19  2  0
  7 15  2  0
  7 17  4  0
  8 15  3  0
  9 10  3  0
  9 12  1  0
  9 15  2  0
  9 16  3  0
  9 19  4  0
 10 14  2  0
 10 16  4  0
 10 21  4  0
 11 15  2  0
 11 17  2  0
 12 13  4  0
 12 15  3  0
 12 16  4  0
 12 21  1  0
 13 14  3  0
 13 19  4  0
 14 15  4  0
 14 20  4  0
 15 17  3  0
 15 18  4  0
 15 19  3  0
 16 20  4  0
 19 21  1  0
M  END
$$$$

 Created by Python create_sdf_string function

 26 73  0  0  0  0  0  0  0  0999 V2000
   10.2593   -1.4347   23.4767 C   0  0  0  0  0  0  0  0  0  0  0  0
    9.3935   -4.7662   16.2880 N   0  0  0  0  0  0  0  0  0  0  0  0
    9.3293   -4.6353   17.9816 F   0  0  0  0  0  0  0  0  0  0  0  0
    8.1379    1.6941   24.4307 N   0  0  0  0  0  0  0  0  0  0  0  0
    5.1394   -8.7702   15.8934 Br  0  0  0  0  0  0  0  0  0  0  0  0
    7.2952   -6.0524   17.2998 C   0  0  0  0  0  0  0  0  0  0  0  0
   10.7794   -2.7307   19.4929 C   0  0  0  0  0  0  0  0  0  0  0  0
    9.9039   -0.2925   23.7268 S   0  0  0  0  0  0  0  0  0  0  0  0
    9.9642    0.4104   22.5364 C   0  0  0  0  0  0  0  0  0  0  0  0
    8.8520    0.5943   25.4351 C   0  0  0  0  0  0  0  0  0  0  0  0
   10.1664   -1.7554   22.0667 N   0  0  0  0  0  0  0  0  0  0  0  0
   10.0507   -5.2032   20.0601 C   0  0  0  0  0  0  0  0  0  0  0  0
   10.5510   -2.6612   24.1210 N   0  0  0  0  0  0  0  0  0  0  0  0
    6.4082   -8.5992   16.0908 O   0  0  0  0  0  0  0  0  0  0  0  0
    8.8478   -6.3322   16.5438 C   0  0  0  0  0  0  0  0  0  0  0  0
    8.3103   -7.6201   17.1577 N   0  0  0  0  0  0  0  0  0  0  0  0
    9.6615   -5.0123   18.0587 O   0  0  0  0  0  0  0  0  0  0  0  0
    8.8460    1.8713   23.5690 I   0  0  0  0  0  0  0  0  0  0  0  0
   10.6774   -3.5347   17.6589 C   0  0  0  0  0  0  0  0  0  0  0  0
   10.5134   -3.2369   21.5950 C   0  0  0  0  0  0  0  0  0  0  0  0
    9.6045   -6.8831   18.4106 P   0  0  0  0  0  0  0  0  0  0  0  0
    9.4418   -0.1559   24.8297 C   0  0  0  0  0  0  0  0  0  0  0  0
   10.8007   -3.7304   20.0901 C   0  0  0  0  0  0  0  0  0  0  0  0
    5.3753   -7.1641   15.6452 He  0  0  0  0  0  0  0  0  0  0  0  0
    8.3696   -8.0473   15.7937 He  0  0  0  0  0  0  0  0  0  0  0  0
   10.4354   -3.9189   22.3741 He  0  0  0  0  0  0  0  0  0  0  0  0
  1  5  2  0
  1  6  2  0
  1  8  3  0
  1 10  4  0
  1 11  4  0
  1 13  4  0
  1 18  4  0
  1 22  3  0
  2  3  4  0
  2 15  4  0
  2 18  2  0
  2 21  4  0
  3  5  4  0
  3  7  3  0
  3  8  4  0
  3 16  2  0
  3 17  4  0
  3 19  4  0
  4  9  4  0
  4 10  4  0
  4 14  2  0
  5  6  4  0
  5  7  1  0
  5  8  3  0
  5 10  2  0
  5 18  2  0
  5 20  1  0
  5 22  1  0
  6  8  2  0
  6  9  2  0
  6 10  4  0
  6 13  1  0
  6 19  4  0
  6 20  3  0
  7 15  1  0
  7 23  4  0
  8  9  4  0
  8 12  4  0
  8 14  1  0
  8 16  3  0
  8 22  4  0
  9 11  4  0
  9 14  4  0
  9 18  4  0
  9 21  1  0
 10 13  3  0
 10 14  4  0
 10 15  2  0
 10 16  3  0
 10 18  1  0
 10 22  2  0
 11 13  1  0
 11 16  1  0
 11 20  4  0
 11 21  2  0
 12 16  4  0
 12 17  4  0
 12 23  4  0
 13 14  1  0
 13 19  3  0
 13 20  4  0
 14 17  4  0
 14 18  3  0
 14 22  1  0
 15 18  2  0
 16 19  2  0
 16 21  3  0
 16 22  1  0
 16 23  3  0
 17 19  1  0
 17 21  4  0
 18 20  4  0
 19 23  1  0
M  END
$$$$

 Created by Python create_sdf_string function

 26 35  0  0  0  0  0  0  0  0999 V2000
   10.4192   -1.2069   23.1746 C   0  0  0  0  0  0  0  0  0  0  0  0
    9.4567   -4.7446   16.5081 N   0  0  0  0  0  0  0  0  0  0  0  0
   10.0823   -4.6678   17.6221 C   0  0  0  0  0  0  0  0  0  0  0  0
    8.0701    1.6119   24.4679 N   0  0  0  0  0  0  0  0  0  0  0  0
    7.9260   -6.0791   15.9722 C   0  0  0  0  0  0  0  0  0  0  0  0
   10.5170   -2.6781   18.6712 C   0  0  0  0  0  0  0  0  0  0  0  0
    9.8716   -0.9972   23.4627 C   0  0  0  0  0  0  0  0  0  0  0  0
    9.8936    0.5666   23.0746 C   0  0  0  0  0  0  0  0  0  0  0  0
    8.7108    0.8933   25.5346 C   0  0  0  0  0  0  0  0  0  0  0  0
   10.9527   -1.9712   21.2779 Cl  0  0  0  0  0  0  0  0  0  0  0  0
   10.6352   -4.6297   19.7651 C   0  0  0  0  0  0  0  0  0  0  0  0
   10.2911   -2.7712   24.0938 N   0  0  0  0  0  0  0  0  0  0  0  0
    9.0387   -7.8751   15.7168 O   0  0  0  0  0  0  0  0  0  0  0  0
    8.8020   -6.1226   16.7479 Br  0  0  0  0  0  0  0  0  0  0  0  0
   10.7467   -4.2223   22.5058 O   0  0  0  0  0  0  0  0  0  0  0  0
    8.7170    1.8761   23.4629 C   0  0  0  0  0  0  0  0  0  0  0  0
   10.3039   -3.1347   17.8907 C   0  0  0  0  0  0  0  0  0  0  0  0
    9.3806   -6.5244   18.6044 S   0  0  0  0  0  0  0  0  0  0  0  0
   10.6901   -3.7623   19.7441 C   0  0  0  0  0  0  0  0  0  0  0  0
    4.9654   -8.0082   16.0468 He  0  0  0  0  0  0  0  0  0  0  0  0
    4.7262   -7.3642   18.1078 He  0  0  0  0  0  0  0  0  0  0  0  0
    5.2273   -8.8418   15.8503 He  0  0  0  0  0  0  0  0  0  0  0  0
    8.2106   -7.6664   17.4431 He  0  0  0  0  0  0  0  0  0  0  0  0
    9.8249   -5.5349   18.5166 He  0  0  0  0  0  0  0  0  0  0  0  0
   10.8431   -2.8207   21.6995 He  0  0  0  0  0  0  0  0  0  0  0  0
    9.5583   -0.2530   24.8232 He  0  0  0  0  0  0  0  0  0  0  0  0
  1  7  1  0
  1 10  4  0
  1 12  4  0
  1 13  3  0
  2  3  4  0
  2  5  2  0
  2  8  4  0
  3  5  2  0
  3 17  4  0
  4  6  2  0
  4  9  4  0
  4 16  4  0
  5  7  4  0
  5  9  1  0
  5 11  3  0
  5 13  3  0
  5 14  3  0
  5 16  3  0
  5 17  1  0
  5 18  3  0
  6  8  3  0
  6 17  4  0
  6 19  3  0
  7  8  4  0
  7 18  1  0
  8 16  4  0
 11 14  3  0
 12 15  4  0
 12 16  3  0
 12 18  1  0
 13 15  1  0
 13 19  1  0
 14 18  4  0
 15 18  1  0
 15 19  1  0
M  END
$$$$

 Created by Python create_sdf_string function

 26 43  0  0  0  0  0  0  0  0999 V2000
   10.0680   -1.9377   23.3855 N   0  0  0  0  0  0  0  0  0  0  0  0
    9.0770   -4.9761   16.3764 N   0  0  0  0  0  0  0  0  0  0  0  0
   10.1361   -4.5420   17.5541 C   0  0  0  0  0  0  0  0  0  0  0  0
    8.7786    1.5429   24.4967 N   0  0  0  0  0  0  0  0  0  0  0  0
    7.9342   -6.2976   17.0453 N   0  0  0  0  0  0  0  0  0  0  0  0
   10.7462   -2.6949   18.8971 C   0  0  0  0  0  0  0  0  0  0  0  0
    9.8153   -0.2862   23.3643 C   0  0  0  0  0  0  0  0  0  0  0  0
    9.9350    0.7173   23.2086 C   0  0  0  0  0  0  0  0  0  0  0  0
    8.6504    0.9252   25.4694 C   0  0  0  0  0  0  0  0  0  0  0  0
   11.2675   -1.8726   21.9130 N   0  0  0  0  0  0  0  0  0  0  0  0
   10.4514   -4.8800   19.8717 C   0  0  0  0  0  0  0  0  0  0  0  0
   10.4906   -2.6943   24.3098 N   0  0  0  0  0  0  0  0  0  0  0  0
    8.8640   -6.4068   17.0308 C   0  0  0  0  0  0  0  0  0  0  0  0
    7.7015   -8.2574   17.2849 Cl  0  0  0  0  0  0  0  0  0  0  0  0
   10.5802   -3.3967   22.7442 O   0  0  0  0  0  0  0  0  0  0  0  0
    9.6314   -5.0088   18.3586 C   0  0  0  0  0  0  0  0  0  0  0  0
    9.3565    2.0590   23.0090 C   0  0  0  0  0  0  0  0  0  0  0  0
   10.1278   -3.3920   17.8677 C   0  0  0  0  0  0  0  0  0  0  0  0
   10.6304   -3.5866   21.1244 C   0  0  0  0  0  0  0  0  0  0  0  0
    9.4212   -6.7284   18.3266 S   0  0  0  0  0  0  0  0  0  0  0  0
    9.8454   -0.5089   25.3892 C   0  0  0  0  0  0  0  0  0  0  0  0
    5.3893   -8.0846   16.5987 He  0  0  0  0  0  0  0  0  0  0  0  0
    7.0384   -7.3079   18.4570 He  0  0  0  0  0  0  0  0  0  0  0  0
    8.4379   -7.4866   17.6373 He  0  0  0  0  0  0  0  0  0  0  0  0
    5.5407   -8.5175   15.2869 He  0  0  0  0  0  0  0  0  0  0  0  0
   10.9606   -3.7651   19.7007 He  0  0  0  0  0  0  0  0  0  0  0  0
  1  9  2  0
  1 10  4  0
  1 12  4  0
  1 21  2  0
  2  3  4  0
  2 14  2  0
  2 15  2  0
  2 17  1  0
  2 21  3  0
  3  6  1  0
  3 11  1  0
  3 18  4  0
  4  9  4  0
  4 11  2  0
  4 15  2  0
  4 17  4  0
  4 19  2  0
  5  8  1  0
  5 12  2  0
  5 14  4  0
  5 16  4  0
  6 18  4  0
  7  8  4  0
  7 13  2  0
  7 21  4  0
  8 12  2  0
  8 14  4  0
  8 17  4  0
  9 13  3  0
  9 14  1  0
  9 21  4  0
 10 18  2  0
 10 19  4  0
 11 13  1  0
 11 16  4  0
 12 15  2  0
 13 17  2  0
 13 18  3  0
 13 20  4  0
 14 16  1  0
 15 19  3  0
 16 20  4  0
 17 21  4  0
M  END
$$$$

 Created by Python create_sdf_string function

 26 48  0  0  0  0  0  0  0  0999 V2000
   10.6924   -1.9584   22.9510 O   0  0  0  0  0  0  0  0  0  0  0  0
    9.9873   -4.9060   16.7524 N   0  0  0  0  0  0  0  0  0  0  0  0
    9.7277   -4.6081   17.5047 Se  0  0  0  0  0  0  0  0  0  0  0  0
    8.7487    1.4304   24.6123 N   0  0  0  0  0  0  0  0  0  0  0  0
    6.7909   -7.5759   16.9643 C   0  0  0  0  0  0  0  0  0  0  0  0
   10.9042   -3.1073   19.0995 C   0  0  0  0  0  0  0  0  0  0  0  0
    6.1265   -8.0942   18.1304 N   0  0  0  0  0  0  0  0  0  0  0  0
   10.2762    1.1104   23.0541 C   0  0  0  0  0  0  0  0  0  0  0  0
   10.4986   -1.9496   21.9661 N   0  0  0  0  0  0  0  0  0  0  0  0
   10.2246   -5.0379   20.0476 N   0  0  0  0  0  0  0  0  0  0  0  0
   10.1529   -2.9850   24.0036 O   0  0  0  0  0  0  0  0  0  0  0  0
    7.5687   -7.9492   15.9864 C   0  0  0  0  0  0  0  0  0  0  0  0
    7.3027   -8.0047   16.4378 C   0  0  0  0  0  0  0  0  0  0  0  0
    9.0373   -6.1108   16.7121 N   0  0  0  0  0  0  0  0  0  0  0  0
    7.2865   -7.3638   16.6348 C   0  0  0  0  0  0  0  0  0  0  0  0
   10.8653   -3.4908   22.8221 O   0  0  0  0  0  0  0  0  0  0  0  0
   10.1188   -5.1188   18.7805 C   0  0  0  0  0  0  0  0  0  0  0  0
   10.4672   -3.0483   17.9905 C   0  0  0  0  0  0  0  0  0  0  0  0
   10.9395   -3.3211   21.7351 C   0  0  0  0  0  0  0  0  0  0  0  0
    9.2355   -6.5427   18.1349 S   0  0  0  0  0  0  0  0  0  0  0  0
    9.4109   -0.3831   25.0394 C   0  0  0  0  0  0  0  0  0  0  0  0
   10.6043   -3.8966   20.0574 C   0  0  0  0  0  0  0  0  0  0  0  0
    7.3049   -6.6485   16.7699 He  0  0  0  0  0  0  0  0  0  0  0  0
    9.7641   -0.2875   23.8531 He  0  0  0  0  0  0  0  0  0  0  0  0
    8.8515    0.4501   25.5743 He  0  0  0  0  0  0  0  0  0  0  0  0
    8.9970    1.4929   23.4984 He  0  0  0  0  0  0  0  0  0  0  0  0
  1  9  4  0
  1 11  4  0
  1 21  2  0
  2  3  2  0
  2  4  4  0
  2  5  4  0
  2  7  3  0
  2 14  4  0
  2 21  4  0
  3 12  4  0
  3 18  4  0
  5  6  2  0
  5 10  1  0
  5 11  1  0
  5 12  3  0
  5 15  1  0
  5 19  2  0
  5 21  1  0
  6  7  2  0
  6 12  4  0
  6 15  4  0
  6 22  4  0
  7  9  3  0
  7 12  4  0
  7 15  4  0
  7 19  4  0
  8 10  2  0
  8 15  2  0
  9 11  1  0
  9 12  1  0
  9 19  1  0
 10 12  3  0
 10 13  1  0
 10 17  4  0
 10 22  4  0
 11 12  4  0
 11 13  3  0
 11 15  2  0
 12 18  1  0
 13 14  1  0
 13 22  1  0
 14 20  1  0
 15 20  1  0
 16 19  4  0
 17 20  4  0
 19 22  1  0
 20 22  3  0
 21 22  4  0
M  END
$$$$

 Created by Python create_sdf_string function

 26 49  0  0  0  0  0  0  0  0999 V2000
   10.4162   -1.6950   23.6366 C   0  0  0  0  0  0  0  0  0  0  0  0
    9.3261   -4.3746   16.3649 N   0  0  0  0  0  0  0  0  0  0  0  0
    9.8241   -4.4665   17.3565 C   0  0  0  0  0  0  0  0  0  0  0  0
    8.6894    1.9319   25.1740 N   0  0  0  0  0  0  0  0  0  0  0  0
    7.8399   -9.2440   17.3362 C   0  0  0  0  0  0  0  0  0  0  0  0
   10.7476   -2.9566   18.9916 C   0  0  0  0  0  0  0  0  0  0  0  0
    9.5689    0.3399   22.8915 C   0  0  0  0  0  0  0  0  0  0  0  0
    8.7070    0.8225   25.5315 C   0  0  0  0  0  0  0  0  0  0  0  0
   10.2148   -4.6296   20.1885 C   0  0  0  0  0  0  0  0  0  0  0  0
   10.7015   -2.6023   23.9436 N   0  0  0  0  0  0  0  0  0  0  0  0
    6.3118   -8.6233   15.6546 C   0  0  0  0  0  0  0  0  0  0  0  0
    6.9689   -7.1135   16.5526 O   0  0  0  0  0  0  0  0  0  0  0  0
    9.0944   -6.0321   16.7119 C   0  0  0  0  0  0  0  0  0  0  0  0
   10.6402   -3.8095   22.7241 O   0  0  0  0  0  0  0  0  0  0  0  0
    9.5728   -5.0293   18.3773 C   0  0  0  0  0  0  0  0  0  0  0  0
    9.4888    1.6688   23.2174 C   0  0  0  0  0  0  0  0  0  0  0  0
   10.5512   -3.2384   17.7776 C   0  0  0  0  0  0  0  0  0  0  0  0
   11.0532   -3.0564   21.4558 C   0  0  0  0  0  0  0  0  0  0  0  0
    9.8780   -6.3833   18.2123 S   0  0  0  0  0  0  0  0  0  0  0  0
    9.8069   -0.8817   25.0336 C   0  0  0  0  0  0  0  0  0  0  0  0
   10.7334   -3.8747   20.3513 C   0  0  0  0  0  0  0  0  0  0  0  0
    6.7825   -5.6393   17.3592 He  0  0  0  0  0  0  0  0  0  0  0  0
    9.6747   -0.9489   23.6309 He  0  0  0  0  0  0  0  0  0  0  0  0
    5.8662   -8.0700   17.5432 He  0  0  0  0  0  0  0  0  0  0  0  0
   10.4839   -1.6671   22.2684 He  0  0  0  0  0  0  0  0  0  0  0  0
    6.4850   -7.2830   16.2515 He  0  0  0  0  0  0  0  0  0  0  0  0
  1 10  4  0
  1 11  4  0
  2  3  4  0
  2  5  2  0
  2 10  1  0
  2 18  2  0
  3  5  3  0
  3 12  3  0
  3 17  4  0
  3 19  4  0
  4  5  2  0
  4  6  1  0
  4  8  4  0
  4 10  3  0
  4 11  2  0
  4 12  4  0
  4 16  4  0
  5  6  2  0
  5  9  2  0
  5 14  2  0
  5 16  3  0
  5 18  4  0
  5 21  2  0
  6  7  4  0
  6 16  3  0
  6 17  4  0
  6 21  4  0
  7 16  2  0
  8 14  2  0
  8 18  2  0
  8 20  4  0
  9 11  2  0
  9 15  4  0
  9 21  4  0
 10 12  1  0
 10 14  4  0
 10 16  1  0
 11 13  4  0
 11 15  2  0
 12 13  1  0
 12 19  2  0
 13 14  3  0
 13 18  4  0
 13 19  4  0
 13 21  2  0
 14 17  2  0
 14 18  4  0
 15 19  4  0
 16 17  2  0
M  END
$$$$

 Created by Python create_sdf_string function

 26 55  0  0  0  0  0  0  0  0999 V2000
   10.7270   -1.5282   23.6257 C   0  0  0  0  0  0  0  0  0  0  0  0
    8.4457    1.8878   25.1259 N   0  0  0  0  0  0  0  0  0  0  0  0
    7.1153   -8.0686   15.8741 C   0  0  0  0  0  0  0  0  0  0  0  0
    7.4917   -7.9162   18.0082 P   0  0  0  0  0  0  0  0  0  0  0  0
   10.4190   -2.2865   18.8282 C   0  0  0  0  0  0  0  0  0  0  0  0
    9.8433   -0.5440   24.1159 C   0  0  0  0  0  0  0  0  0  0  0  0
    4.4243   -9.1137   17.0910 S   0  0  0  0  0  0  0  0  0  0  0  0
    9.1346    0.3804   25.8256 C   0  0  0  0  0  0  0  0  0  0  0  0
   10.7827   -1.7980   22.5061 N   0  0  0  0  0  0  0  0  0  0  0  0
   10.4808   -5.2741   20.0939 C   0  0  0  0  0  0  0  0  0  0  0  0
   10.4963   -3.0017   23.9076 N   0  0  0  0  0  0  0  0  0  0  0  0
    5.5743   -8.1070   15.8472 F   0  0  0  0  0  0  0  0  0  0  0  0
    8.7429   -5.8692   16.8022 C   0  0  0  0  0  0  0  0  0  0  0  0
    6.4779   -8.6632   16.2179 Cl  0  0  0  0  0  0  0  0  0  0  0  0
   11.2813   -3.6780   22.7381 O   0  0  0  0  0  0  0  0  0  0  0  0
   10.0035   -5.2464   17.9481 C   0  0  0  0  0  0  0  0  0  0  0  0
    9.3216    1.5658   23.3485 C   0  0  0  0  0  0  0  0  0  0  0  0
   10.4894   -2.9629   21.5596 C   0  0  0  0  0  0  0  0  0  0  0  0
    9.5197   -6.5590   17.8270 N   0  0  0  0  0  0  0  0  0  0  0  0
    9.7458   -0.2109   24.9222 C   0  0  0  0  0  0  0  0  0  0  0  0
   10.7614   -3.9040   20.0117 C   0  0  0  0  0  0  0  0  0  0  0  0
    9.3199   -4.8515   16.7435 He  0  0  0  0  0  0  0  0  0  0  0  0
    9.9723   -4.5161   17.4889 He  0  0  0  0  0  0  0  0  0  0  0  0
    9.9960    0.6237   23.3782 He  0  0  0  0  0  0  0  0  0  0  0  0
    6.4788   -7.0446   15.5576 He  0  0  0  0  0  0  0  0  0  0  0  0
   10.5730   -2.8316   17.6293 He  0  0  0  0  0  0  0  0  0  0  0  0
  1  6  1  0
  1  9  4  0
  1 11  4  0
  1 17  3  0
  1 18  3  0
  2  3  4  0
  2  7  1  0
  2 17  4  0
  3  4  2  0
  3 10  1  0
  3 13  1  0
  3 16  1  0
  3 18  1  0
  4  5  2  0
  4  6  4  0
  4 11  2  0
  4 14  2  0
  5  6  2  0
  5  9  4  0
  5 12  4  0
  5 21  4  0
  6 12  4  0
  6 14  4  0
  6 18  2  0
  6 20  4  0
  7 11  2  0
  7 13  2  0
  7 14  3  0
  7 15  2  0
  7 17  3  0
  7 19  1  0
  7 20  1  0
  8 12  4  0
  8 14  1  0
  8 19  1  0
  8 20  4  0
  9 15  3  0
  9 16  2  0
  9 18  4  0
 10 16  4  0
 10 21  4  0
 11 14  4  0
 11 15  4  0
 11 21  1  0
 12 13  3  0
 12 14  3  0
 12 19  2  0
 13 14  1  0
 13 19  4  0
 14 16  3  0
 14 21  3  0
 16 19  4  0
 17 19  4  0
 18 21  1  0
 19 21  4  0
M  END
$$$$

 Created by Python create_sdf_string function

 26 48  0  0  0  0  0  0  0  0999 V2000
   10.6606   -1.3871   23.3740 C   0  0  0  0  0  0  0  0  0  0  0  0
    9.1191   -4.8367   16.4241 N   0  0  0  0  0  0  0  0  0  0  0  0
   10.1913   -4.6852   17.8705 C   0  0  0  0  0  0  0  0  0  0  0  0
    8.6867    1.6671   24.8807 N   0  0  0  0  0  0  0  0  0  0  0  0
   11.0937   -3.2624   19.2339 C   0  0  0  0  0  0  0  0  0  0  0  0
   10.2688   -0.3294   23.9258 C   0  0  0  0  0  0  0  0  0  0  0  0
    5.5375   -8.0467   16.3889 N   0  0  0  0  0  0  0  0  0  0  0  0
    9.7263    0.3397   23.0592 C   0  0  0  0  0  0  0  0  0  0  0  0
    8.9934    0.5763   25.4407 C   0  0  0  0  0  0  0  0  0  0  0  0
   11.0461   -2.4871   22.1026 F   0  0  0  0  0  0  0  0  0  0  0  0
    9.9906   -4.9505   19.2154 C   0  0  0  0  0  0  0  0  0  0  0  0
   10.6213   -2.5649   23.9017 F   0  0  0  0  0  0  0  0  0  0  0  0
    5.9739   -9.7763   15.6556 C   0  0  0  0  0  0  0  0  0  0  0  0
    8.7728   -6.2498   16.6706 C   0  0  0  0  0  0  0  0  0  0  0  0
    6.7763   -8.5296   15.3398 O   0  0  0  0  0  0  0  0  0  0  0  0
   11.1680   -4.1052   22.9792 O   0  0  0  0  0  0  0  0  0  0  0  0
    9.8087   -5.6261   18.3599 C   0  0  0  0  0  0  0  0  0  0  0  0
    9.3280    1.8114   23.3751 C   0  0  0  0  0  0  0  0  0  0  0  0
   10.6615   -3.1929   17.7789 C   0  0  0  0  0  0  0  0  0  0  0  0
   10.8462   -3.1572   21.6887 C   0  0  0  0  0  0  0  0  0  0  0  0
    9.1424   -6.7518   18.3204 N   0  0  0  0  0  0  0  0  0  0  0  0
    9.4765   -0.2848   25.4098 P   0  0  0  0  0  0  0  0  0  0  0  0
   10.9424   -4.0755   20.6009 C   0  0  0  0  0  0  0  0  0  0  0  0
    7.0782   -8.2596   16.8939 He  0  0  0  0  0  0  0  0  0  0  0  0
    7.4318   -7.7986   16.8075 He  0  0  0  0  0  0  0  0  0  0  0  0
    8.0885   -6.4440   16.7421 He  0  0  0  0  0  0  0  0  0  0  0  0
  1  6  2  0
  1 12  4  0
  1 13  2  0
  2  3  4  0
  2 11  4  0
  2 14  4  0
  2 16  3  0
  3  6  4  0
  3  7  1  0
  3 12  4  0
  3 15  3  0
  3 17  4  0
  3 19  4  0
  4  7  4  0
  4  9  4  0
  4 10  3  0
  4 11  1  0
  4 12  1  0
  4 18  4  0
  5 19  4  0
  5 22  3  0
  5 23  2  0
  6 13  1  0
  6 15  4  0
  7  9  2  0
  7 13  4  0
  7 20  1  0
  7 21  2  0
  8 13  3  0
  8 18  4  0
  9 20  1  0
  9 22  4  0
 10 15  3  0
 10 20  4  0
 11 15  1  0
 11 17  1  0
 11 23  4  0
 13 16  1  0
 13 17  3  0
 13 21  4  0
 14 16  3  0
 14 21  4  0
 15 16  4  0
 15 18  4  0
 15 21  2  0
 17 21  4  0
 18 20  3  0
 20 23  1  0
M  END
$$$$

 Created by Python create_sdf_string function

 26 59  0  0  0  0  0  0  0  0999 V2000
    9.1486   -4.8304   16.5045 N   0  0  0  0  0  0  0  0  0  0  0  0
    9.9532   -4.4326   17.2608 C   0  0  0  0  0  0  0  0  0  0  0  0
    8.7710    1.5479   25.2820 N   0  0  0  0  0  0  0  0  0  0  0  0
    6.3151   -8.0496   16.6622 C   0  0  0  0  0  0  0  0  0  0  0  0
    7.0696   -6.8992   15.9678 C   0  0  0  0  0  0  0  0  0  0  0  0
   11.1256   -3.1526   19.3339 C   0  0  0  0  0  0  0  0  0  0  0  0
   10.0507   -0.3970   23.9755 C   0  0  0  0  0  0  0  0  0  0  0  0
    6.6495   -9.1797   16.1274 F   0  0  0  0  0  0  0  0  0  0  0  0
    9.9874    0.4605   22.8748 C   0  0  0  0  0  0  0  0  0  0  0  0
    8.6171    0.6970   25.9232 C   0  0  0  0  0  0  0  0  0  0  0  0
   10.9389   -1.9664   21.4190 N   0  0  0  0  0  0  0  0  0  0  0  0
   10.3608   -4.9607   19.9774 C   0  0  0  0  0  0  0  0  0  0  0  0
    8.9484   -7.3757   18.4130 C   0  0  0  0  0  0  0  0  0  0  0  0
    8.8748   -6.5541   17.1638 C   0  0  0  0  0  0  0  0  0  0  0  0
    7.1336   -6.1868   15.7841 P   0  0  0  0  0  0  0  0  0  0  0  0
   11.3214   -3.9327   23.2549 O   0  0  0  0  0  0  0  0  0  0  0  0
    9.7781   -5.4187   18.7444 C   0  0  0  0  0  0  0  0  0  0  0  0
    8.9494    2.0634   23.8628 C   0  0  0  0  0  0  0  0  0  0  0  0
   10.7329   -3.3239   17.7092 C   0  0  0  0  0  0  0  0  0  0  0  0
   11.3259   -3.2908   21.5612 Cl  0  0  0  0  0  0  0  0  0  0  0  0
    9.2764   -6.7486   18.0308 N   0  0  0  0  0  0  0  0  0  0  0  0
    9.5492   -0.3505   25.2140 C   0  0  0  0  0  0  0  0  0  0  0  0
   10.7421   -3.8767   20.1999 C   0  0  0  0  0  0  0  0  0  0  0  0
   10.9453   -1.9323   23.6842 He  0  0  0  0  0  0  0  0  0  0  0  0
   10.8074   -2.6819   24.3982 He  0  0  0  0  0  0  0  0  0  0  0  0
    5.3266   -9.5778   16.1531 He  0  0  0  0  0  0  0  0  0  0  0  0
  1  2  4  0
  1  8  1  0
  1 17  1  0
  2  4  3  0
  2  8  1  0
  2 13  3  0
  2 14  2  0
  2 15  3  0
  2 17  4  0
  2 19  4  0
  3  8  4  0
  3 10  4  0
  3 13  1  0
  3 17  3  0
  3 18  4  0
  4  5  2  0
  4  7  3  0
  4  8  2  0
  4  9  3  0
  4 12  1  0
  4 21  3  0
  5  6  1  0
  5  7  1  0
  5 15  4  0
  5 19  3  0
  5 20  3  0
  5 21  2  0
  6 14  3  0
  6 16  1  0
  6 19  4  0
  6 23  4  0
  7  8  4  0
  7  9  4  0
  7 15  1  0
  7 17  4  0
  7 22  4  0
  8 17  4  0
  8 18  4  0
  9 18  4  0
 10 12  2  0
 10 16  4  0
 10 22  1  0
 11 14  1  0
 11 15  1  0
 11 16  1  0
 12 17  4  0
 12 23  4  0
 13 15  4  0
 13 16  1  0
 13 21  3  0
 14 20  4  0
 14 21  4  0
 15 17  2  0
 15 18  3  0
 15 19  1  0
 16 20  4  0
 16 22  2  0
 19 20  1  0
 20 23  1  0
M  END
$$$$

 Created by Python create_sdf_string function

 26 46  0  0  0  0  0  0  0  0999 V2000
   10.3361   -1.5465   23.3171 C   0  0  0  0  0  0  0  0  0  0  0  0
    9.1570   -5.0696   16.6219 N   0  0  0  0  0  0  0  0  0  0  0  0
   10.0546   -4.0010   17.5922 C   0  0  0  0  0  0  0  0  0  0  0  0
    8.8329    1.8611   24.8061 N   0  0  0  0  0  0  0  0  0  0  0  0
    6.5451   -8.3499   16.1772 C   0  0  0  0  0  0  0  0  0  0  0  0
    5.7438   -7.5760   16.4061 C   0  0  0  0  0  0  0  0  0  0  0  0
   10.2949   -0.5495   24.1270 I   0  0  0  0  0  0  0  0  0  0  0  0
    9.6662    0.8589   22.9437 C   0  0  0  0  0  0  0  0  0  0  0  0
    8.8231    0.5250   25.7545 C   0  0  0  0  0  0  0  0  0  0  0  0
   10.9021   -2.0384   22.0689 N   0  0  0  0  0  0  0  0  0  0  0  0
    9.9833   -4.6638   19.7251 C   0  0  0  0  0  0  0  0  0  0  0  0
    6.5869   -8.5878   15.5080 Se  0  0  0  0  0  0  0  0  0  0  0  0
    8.6354   -6.2428   16.7085 C   0  0  0  0  0  0  0  0  0  0  0  0
    7.5184   -5.9169   16.5413 S   0  0  0  0  0  0  0  0  0  0  0  0
   10.8295   -3.9037   22.6927 O   0  0  0  0  0  0  0  0  0  0  0  0
    9.9447   -5.6403   18.9647 C   0  0  0  0  0  0  0  0  0  0  0  0
    9.3624    1.8419   24.2138 C   0  0  0  0  0  0  0  0  0  0  0  0
   10.3857   -3.4645   18.2181 C   0  0  0  0  0  0  0  0  0  0  0  0
   10.7703   -3.6227   21.4975 O   0  0  0  0  0  0  0  0  0  0  0  0
    8.9996   -6.7422   18.3536 N   0  0  0  0  0  0  0  0  0  0  0  0
    9.4193   -0.3253   25.2217 N   0  0  0  0  0  0  0  0  0  0  0  0
   10.9227   -3.9059   20.0149 C   0  0  0  0  0  0  0  0  0  0  0  0
   11.2159   -2.8113   18.8978 He  0  0  0  0  0  0  0  0  0  0  0  0
    7.4913   -8.8709   17.1932 He  0  0  0  0  0  0  0  0  0  0  0  0
   10.8935   -3.1630   23.8018 He  0  0  0  0  0  0  0  0  0  0  0  0
    6.7574   -8.4703   17.8055 He  0  0  0  0  0  0  0  0  0  0  0  0
  1  3  2  0
  1  7  1  0
  1 10  4  0
  1 12  1  0
  1 14  4  0
  1 21  3  0
  2  3  4  0
  2  5  1  0
  2  6  4  0
  2 13  4  0
  2 16  4  0
  3  4  3  0
  3  6  1  0
  3 14  4  0
  3 18  4  0
  3 21  4  0
  4  9  4  0
  4 21  1  0
  5 11  2  0
  5 19  4  0
  6  8  4  0
  6 13  2  0
  6 17  1  0
  6 19  4  0
  6 22  1  0
  7 15  2  0
  7 18  3  0
  7 21  4  0
  8 17  4  0
  8 20  1  0
  9 21  4  0
 11 22  4  0
 12 15  1  0
 12 16  4  0
 12 17  4  0
 13 20  4  0
 14 15  2  0
 14 21  4  0
 14 22  3  0
 15 19  4  0
 15 20  1  0
 16 17  1  0
 16 20  4  0
 16 21  2  0
 17 22  2  0
 19 22  1  0
M  END
$$$$

 Created by Python create_sdf_string function

 26 57  0  0  0  0  0  0  0  0999 V2000
   10.0903   -1.5515   23.2166 C   0  0  0  0  0  0  0  0  0  0  0  0
    9.1804   -5.1072   16.5250 N   0  0  0  0  0  0  0  0  0  0  0  0
    9.8302   -4.7272   17.5336 C   0  0  0  0  0  0  0  0  0  0  0  0
    8.6373    1.4838   24.8122 N   0  0  0  0  0  0  0  0  0  0  0  0
    5.2275   -7.4093   16.7325 Cl  0  0  0  0  0  0  0  0  0  0  0  0
   10.8381   -2.7569   19.1574 C   0  0  0  0  0  0  0  0  0  0  0  0
    9.7869   -0.6293   24.1208 C   0  0  0  0  0  0  0  0  0  0  0  0
    7.5601   -8.4041   17.1540 C   0  0  0  0  0  0  0  0  0  0  0  0
    9.8752    0.7397   23.1705 C   0  0  0  0  0  0  0  0  0  0  0  0
    8.7281    0.3755   25.7278 C   0  0  0  0  0  0  0  0  0  0  0  0
   11.1814   -2.1487   21.6346 N   0  0  0  0  0  0  0  0  0  0  0  0
    9.9419   -5.1833   20.0018 C   0  0  0  0  0  0  0  0  0  0  0  0
   10.5789   -2.9992   23.7697 N   0  0  0  0  0  0  0  0  0  0  0  0
    7.3648   -6.6230   18.9046 C   0  0  0  0  0  0  0  0  0  0  0  0
    8.8576   -6.0409   17.1751 C   0  0  0  0  0  0  0  0  0  0  0  0
    6.2168   -7.3347   15.2412 C   0  0  0  0  0  0  0  0  0  0  0  0
   10.9580   -3.9274   22.5586 O   0  0  0  0  0  0  0  0  0  0  0  0
    9.8715   -5.3033   18.6315 C   0  0  0  0  0  0  0  0  0  0  0  0
    9.0367    1.6500   23.6033 C   0  0  0  0  0  0  0  0  0  0  0  0
   10.4532   -3.3191   17.5120 C   0  0  0  0  0  0  0  0  0  0  0  0
    9.0787   -6.3246   18.4613 O   0  0  0  0  0  0  0  0  0  0  0  0
    9.2534   -0.5065   25.2989 C   0  0  0  0  0  0  0  0  0  0  0  0
   10.4534   -3.7700   20.1913 C   0  0  0  0  0  0  0  0  0  0  0  0
    5.7332   -8.3222   15.5664 He  0  0  0  0  0  0  0  0  0  0  0  0
    5.9188   -8.4922   15.3882 He  0  0  0  0  0  0  0  0  0  0  0  0
   10.7744   -2.7540   21.2299 He  0  0  0  0  0  0  0  0  0  0  0  0
  1  7  1  0
  1  8  2  0
  1 13  4  0
  1 14  4  0
  1 16  1  0
  1 18  1  0
  1 23  1  0
  2  3  4  0
  2 10  2  0
  2 11  4  0
  2 12  4  0
  2 15  4  0
  2 16  2  0
  2 17  4  0
  2 19  4  0
  3  8  4  0
  3 12  4  0
  3 18  4  0
  3 20  4  0
  3 21  3  0
  3 23  4  0
  4  6  2  0
  4 10  4  0
  5  6  2  0
  5  7  2  0
  5 10  4  0
  5 16  4  0
  5 23  4  0
  6 11  4  0
  6 20  4  0
  6 23  4  0
  7  8  1  0
  7  9  4  0
  7 16  2  0
  7 22  4  0
  8 10  2  0
  8 14  3  0
  8 15  1  0
  8 18  3  0
  8 22  4  0
  8 23  1  0
  9 19  4  0
 10 22  4  0
 12 16  3  0
 12 18  4  0
 12 23  4  0
 13 17  4  0
 13 21  2  0
 14 16  4  0
 14 20  4  0
 14 21  2  0
 15 16  2  0
 15 19  4  0
 15 21  4  0
 16 17  2  0
 17 20  1  0
 18 21  4  0
M  END
$$$$

 Created by Python create_sdf_string function

 26 39  0  0  0  0  0  0  0  0999 V2000
    8.8308   -5.1064   16.7369 S   0  0  0  0  0  0  0  0  0  0  0  0
   10.1835   -4.6676   17.4751 F   0  0  0  0  0  0  0  0  0  0  0  0
    6.2871   -6.9901   15.3052 N   0  0  0  0  0  0  0  0  0  0  0  0
    5.1839   -8.1851   16.7192 O   0  0  0  0  0  0  0  0  0  0  0  0
   10.0357   -0.5869   23.7466 C   0  0  0  0  0  0  0  0  0  0  0  0
    9.8067    0.4877   23.3568 O   0  0  0  0  0  0  0  0  0  0  0  0
   10.5082   -1.5799   22.0412 N   0  0  0  0  0  0  0  0  0  0  0  0
   10.1804   -4.9766   19.8237 C   0  0  0  0  0  0  0  0  0  0  0  0
   10.5063   -2.9657   23.6972 N   0  0  0  0  0  0  0  0  0  0  0  0
    5.6532   -8.2488   16.1089 C   0  0  0  0  0  0  0  0  0  0  0  0
    7.1091   -6.5264   17.9577 C   0  0  0  0  0  0  0  0  0  0  0  0
    8.6438   -6.4626   16.8291 C   0  0  0  0  0  0  0  0  0  0  0  0
   11.1119   -3.8815   22.2453 O   0  0  0  0  0  0  0  0  0  0  0  0
    9.6445   -5.1840   18.7175 C   0  0  0  0  0  0  0  0  0  0  0  0
    9.3295    1.5498   23.8235 C   0  0  0  0  0  0  0  0  0  0  0  0
   10.7975   -3.4083   17.3949 C   0  0  0  0  0  0  0  0  0  0  0  0
   10.5219   -3.5432   21.5954 O   0  0  0  0  0  0  0  0  0  0  0  0
    9.2470   -6.4367   18.6862 N   0  0  0  0  0  0  0  0  0  0  0  0
    9.3070   -0.9000   25.5749 C   0  0  0  0  0  0  0  0  0  0  0  0
   10.8114   -4.0927   20.4362 C   0  0  0  0  0  0  0  0  0  0  0  0
   10.4660   -1.3391   23.0539 He  0  0  0  0  0  0  0  0  0  0  0  0
    8.4610    1.3211   24.5485 He  0  0  0  0  0  0  0  0  0  0  0  0
   10.9301   -2.7610   18.7202 He  0  0  0  0  0  0  0  0  0  0  0  0
    7.4569   -8.2239   16.1389 He  0  0  0  0  0  0  0  0  0  0  0  0
    8.6065    0.0227   26.0308 He  0  0  0  0  0  0  0  0  0  0  0  0
    7.4881   -5.3064   16.3918 He  0  0  0  0  0  0  0  0  0  0  0  0
  1  2  4  0
  1  9  3  0
  1 12  4  0
  2  4  2  0
  2  5  2  0
  2 10  4  0
  2 14  4  0
  2 15  4  0
  2 16  4  0
  3  4  1  0
  3  8  4  0
  3 10  4  0
  3 16  4  0
  3 17  4  0
  3 18  2  0
  3 19  3  0
  4  5  1  0
  4 11  2  0
  4 16  2  0
  4 17  2  0
  5  6  4  0
  5 19  4  0
  6 15  4  0
  7 10  1  0
  7 17  4  0
  8 14  4  0
  9 10  1  0
  9 11  1  0
  9 13  4  0
  9 19  2  0
 10 11  1  0
 10 18  2  0
 10 20  4  0
 11 17  2  0
 11 20  1  0
 13 17  1  0
 14 17  2  0
 14 18  4  0
 17 20  1  0
M  END
$$$$

 Created by Python create_sdf_string function

 26 45  0  0  0  0  0  0  0  0999 V2000
   10.4311   -2.0349   22.9046 C   0  0  0  0  0  0  0  0  0  0  0  0
    9.3748   -5.4933   16.6221 N   0  0  0  0  0  0  0  0  0  0  0  0
    9.8450   -4.5616   17.3598 C   0  0  0  0  0  0  0  0  0  0  0  0
    8.8978    1.2638   25.2226 C   0  0  0  0  0  0  0  0  0  0  0  0
    6.5022   -7.0237   15.3438 F   0  0  0  0  0  0  0  0  0  0  0  0
    4.4951   -8.3837   16.1768 O   0  0  0  0  0  0  0  0  0  0  0  0
    9.8075   -0.2239   23.7466 C   0  0  0  0  0  0  0  0  0  0  0  0
    7.9083   -8.8409   17.5418 S   0  0  0  0  0  0  0  0  0  0  0  0
    9.5104    0.8736   22.8962 Cl  0  0  0  0  0  0  0  0  0  0  0  0
    8.7391    0.0575   25.4947 C   0  0  0  0  0  0  0  0  0  0  0  0
   10.4270   -3.1925   23.7607 N   0  0  0  0  0  0  0  0  0  0  0  0
    6.5789   -7.4565   17.4736 N   0  0  0  0  0  0  0  0  0  0  0  0
    8.6459   -6.7026   17.5089 C   0  0  0  0  0  0  0  0  0  0  0  0
    7.8112   -7.1875   15.7383 C   0  0  0  0  0  0  0  0  0  0  0  0
   10.6611   -3.6706   22.3808 O   0  0  0  0  0  0  0  0  0  0  0  0
    9.3993    1.5201   24.0818 C   0  0  0  0  0  0  0  0  0  0  0  0
   10.6579   -3.7184   17.6301 C   0  0  0  0  0  0  0  0  0  0  0  0
   10.6463   -3.2657   21.7868 C   0  0  0  0  0  0  0  0  0  0  0  0
    8.9086   -6.8097   18.3258 N   0  0  0  0  0  0  0  0  0  0  0  0
    9.1100   -1.1900   25.2445 C   0  0  0  0  0  0  0  0  0  0  0  0
   10.5723   -4.0122   19.5939 C   0  0  0  0  0  0  0  0  0  0  0  0
   10.9689   -2.6008   19.2409 He  0  0  0  0  0  0  0  0  0  0  0  0
    9.7700   -1.9002   22.1246 He  0  0  0  0  0  0  0  0  0  0  0  0
   10.7136   -5.1578   19.8631 He  0  0  0  0  0  0  0  0  0  0  0  0
    4.9287   -8.1312   17.0781 He  0  0  0  0  0  0  0  0  0  0  0  0
    9.9102   -5.3179   18.8879 He  0  0  0  0  0  0  0  0  0  0  0  0
  1  7  1  0
  1 11  4  0
  1 14  1  0
  2  3  4  0
  2  4  3  0
  2 13  4  0
  2 21  4  0
  3  7  3  0
  3 10  1  0
  3 12  3  0
  3 17  4  0
  4 10  3  0
  4 15  2  0
  4 16  4  0
  5 14  4  0
  5 20  4  0
  6  8  1  0
  6  9  3  0
  6 10  2  0
  6 14  3  0
  6 15  1  0
  6 17  2  0
  6 19  4  0
  6 20  2  0
  7  9  4  0
  7 13  4  0
  7 20  4  0
  8 10  4  0
  8 11  3  0
  8 15  1  0
  9 13  2  0
  9 14  1  0
  9 16  4  0
  9 19  1  0
 10 14  3  0
 10 20  4  0
 11 12  3  0
 11 15  4  0
 11 20  3  0
 12 16  4  0
 12 17  1  0
 12 18  2  0
 14 18  1  0
 14 21  1  0
 18 21  1  0
M  END
$$$$

 Created by Python create_sdf_string function

 26 43  0  0  0  0  0  0  0  0999 V2000
   10.4227   -2.2677   22.9556 C   0  0  0  0  0  0  0  0  0  0  0  0
   10.1117   -5.0212   17.6923 C   0  0  0  0  0  0  0  0  0  0  0  0
    6.6529   -7.4492   15.6686 C   0  0  0  0  0  0  0  0  0  0  0  0
   11.1055   -3.3393   19.0013 C   0  0  0  0  0  0  0  0  0  0  0  0
   10.1327   -1.0696   23.8566 C   0  0  0  0  0  0  0  0  0  0  0  0
    6.5977   -8.3446   17.9035 C   0  0  0  0  0  0  0  0  0  0  0  0
    9.6095    0.9641   23.3204 C   0  0  0  0  0  0  0  0  0  0  0  0
    8.8614    0.4574   26.1735 C   0  0  0  0  0  0  0  0  0  0  0  0
    9.9505   -1.9568   22.2725 Cl  0  0  0  0  0  0  0  0  0  0  0  0
   10.2633   -4.8602   19.9661 C   0  0  0  0  0  0  0  0  0  0  0  0
   10.1281   -3.0293   23.8177 N   0  0  0  0  0  0  0  0  0  0  0  0
    5.7845   -8.9111   17.7860 C   0  0  0  0  0  0  0  0  0  0  0  0
    8.4116   -5.7682   17.2916 C   0  0  0  0  0  0  0  0  0  0  0  0
    7.3927   -7.9008   15.2462 O   0  0  0  0  0  0  0  0  0  0  0  0
   10.9392   -4.4528   22.5929 O   0  0  0  0  0  0  0  0  0  0  0  0
    9.7559   -5.9798   18.8313 C   0  0  0  0  0  0  0  0  0  0  0  0
    9.2200    1.4489   23.6883 C   0  0  0  0  0  0  0  0  0  0  0  0
   10.5616   -3.4771   21.3777 C   0  0  0  0  0  0  0  0  0  0  0  0
    9.0321   -6.5304   18.2463 N   0  0  0  0  0  0  0  0  0  0  0  0
    9.1715   -1.0571   24.9497 C   0  0  0  0  0  0  0  0  0  0  0  0
   10.6548   -3.8793   20.1706 C   0  0  0  0  0  0  0  0  0  0  0  0
    9.0962   -5.2983   16.5793 He  0  0  0  0  0  0  0  0  0  0  0  0
    8.2969    1.3909   25.2442 He  0  0  0  0  0  0  0  0  0  0  0  0
    4.2798   -8.1455   17.6363 He  0  0  0  0  0  0  0  0  0  0  0  0
    4.9821   -7.8996   16.3532 He  0  0  0  0  0  0  0  0  0  0  0  0
   10.0928   -3.1743   17.6589 He  0  0  0  0  0  0  0  0  0  0  0  0
  1  5  1  0
  1  9  4  0
  1 11  2  0
  1 18  2  0
  2  4  1  0
  2 12  2  0
  2 14  4  0
  2 16  4  0
  3  5  1  0
  3  6  1  0
  3  9  3  0
  3 11  1  0
  3 18  2  0
  4  8  3  0
  4 16  1  0
  4 21  4  0
  5  7  4  0
  5 12  4  0
  5 20  4  0
  6  9  4  0
  6 11  4  0
  6 12  4  0
  6 17  1  0
  6 20  2  0
  7  9  1  0
  7 17  4  0
  8 15  1  0
  8 20  4  0
  9 18  4  0
 10 12  2  0
 10 13  4  0
 10 16  4  0
 10 21  4  0
 11 13  2  0
 11 15  4  0
 12 15  1  0
 12 16  3  0
 12 17  4  0
 13 15  4  0
 15 18  3  0
 16 19  4  0
 18 19  2  0
 18 21  1  0
M  END
$$$$

 Created by Python create_sdf_string function

 26 43  0  0  0  0  0  0  0  0999 V2000
   10.2620   -1.7745   23.0948 C   0  0  0  0  0  0  0  0  0  0  0  0
    9.4148   -4.7936   16.3862 N   0  0  0  0  0  0  0  0  0  0  0  0
    9.9898   -4.5219   17.3935 C   0  0  0  0  0  0  0  0  0  0  0  0
    8.5799    1.3743   25.0615 Br  0  0  0  0  0  0  0  0  0  0  0  0
    5.7242   -7.5111   16.2455 C   0  0  0  0  0  0  0  0  0  0  0  0
    5.0284   -7.5559   16.4347 F   0  0  0  0  0  0  0  0  0  0  0  0
   10.5633   -3.0000   18.8369 C   0  0  0  0  0  0  0  0  0  0  0  0
    9.4109   -0.8280   24.1450 C   0  0  0  0  0  0  0  0  0  0  0  0
    7.0818   -8.0440   17.8923 C   0  0  0  0  0  0  0  0  0  0  0  0
    9.5551    0.2169   23.5418 C   0  0  0  0  0  0  0  0  0  0  0  0
   10.3073   -2.3877   21.6082 N   0  0  0  0  0  0  0  0  0  0  0  0
   10.4029   -5.2375   19.9736 C   0  0  0  0  0  0  0  0  0  0  0  0
   10.2382   -3.1703   23.6540 N   0  0  0  0  0  0  0  0  0  0  0  0
    8.5170   -6.6603   16.8597 C   0  0  0  0  0  0  0  0  0  0  0  0
   10.7403   -4.4279   22.5888 O   0  0  0  0  0  0  0  0  0  0  0  0
    9.4763   -5.7287   18.4992 C   0  0  0  0  0  0  0  0  0  0  0  0
    9.1621    1.6012   23.8603 C   0  0  0  0  0  0  0  0  0  0  0  0
   10.3508   -3.7458   18.1348 C   0  0  0  0  0  0  0  0  0  0  0  0
   10.5968   -3.1922   21.5936 C   0  0  0  0  0  0  0  0  0  0  0  0
    8.9279   -6.2435   18.2493 N   0  0  0  0  0  0  0  0  0  0  0  0
    9.2948   -0.9339   25.5932 C   0  0  0  0  0  0  0  0  0  0  0  0
   11.0988   -3.9798   19.8242 C   0  0  0  0  0  0  0  0  0  0  0  0
    8.3395    0.2805   26.0940 He  0  0  0  0  0  0  0  0  0  0  0  0
    6.4035   -7.3247   17.5214 He  0  0  0  0  0  0  0  0  0  0  0  0
    6.1958   -8.9909   17.4940 He  0  0  0  0  0  0  0  0  0  0  0  0
    7.2294   -5.8592   16.2579 He  0  0  0  0  0  0  0  0  0  0  0  0
  1  5  3  0
  1  8  1  0
  1 13  4  0
  1 22  4  0
  2  3  4  0
  2  6  4  0
  2  9  1  0
  2 12  2  0
  2 14  4  0
  3  6  2  0
  3 18  4  0
  4 17  4  0
  5  6  2  0
  5 16  2  0
  6  8  4  0
  6 14  2  0
  6 19  4  0
  7 17  4  0
  7 18  4  0
  7 22  4  0
  8 10  4  0
  8 16  2  0
  8 21  4  0
  9 16  3  0
  9 20  1  0
  9 21  4  0
 10 11  4  0
 10 17  4  0
 11 19  4  0
 11 22  2  0
 12 14  2  0
 12 16  1  0
 12 22  4  0
 13 15  4  0
 13 19  1  0
 13 20  2  0
 14 19  2  0
 14 20  2  0
 15 16  3  0
 15 19  4  0
 16 20  4  0
 19 21  3  0
 19 22  1  0
M  END
$$$$

 Created by Python create_sdf_string function

 26 55  0  0  0  0  0  0  0  0999 V2000
   10.2830   -2.2569   23.5361 C   0  0  0  0  0  0  0  0  0  0  0  0
    9.3888   -5.2392   16.1353 N   0  0  0  0  0  0  0  0  0  0  0  0
    8.3184    1.3170   25.1722 C   0  0  0  0  0  0  0  0  0  0  0  0
   11.0590   -2.3902   19.2895 C   0  0  0  0  0  0  0  0  0  0  0  0
    9.8277   -1.0519   23.9484 C   0  0  0  0  0  0  0  0  0  0  0  0
    7.5415   -7.4706   18.0291 C   0  0  0  0  0  0  0  0  0  0  0  0
    9.7915    0.5897   23.3131 C   0  0  0  0  0  0  0  0  0  0  0  0
    9.0324    0.0055   26.0796 C   0  0  0  0  0  0  0  0  0  0  0  0
   10.4173   -1.8366   21.4072 N   0  0  0  0  0  0  0  0  0  0  0  0
   10.4463   -5.1668   19.8514 C   0  0  0  0  0  0  0  0  0  0  0  0
   10.2190   -2.9470   23.5752 N   0  0  0  0  0  0  0  0  0  0  0  0
    6.8590   -8.8492   16.5568 C   0  0  0  0  0  0  0  0  0  0  0  0
    8.3755   -6.1956   16.5805 C   0  0  0  0  0  0  0  0  0  0  0  0
    7.3890   -6.8833   16.1181 I   0  0  0  0  0  0  0  0  0  0  0  0
   10.9012   -3.8741   22.5394 O   0  0  0  0  0  0  0  0  0  0  0  0
    9.9057   -5.7003   18.2196 O   0  0  0  0  0  0  0  0  0  0  0  0
    9.0357    1.4463   24.0440 C   0  0  0  0  0  0  0  0  0  0  0  0
   10.5693   -3.4415   17.6613 C   0  0  0  0  0  0  0  0  0  0  0  0
   10.8672   -3.3934   21.8693 C   0  0  0  0  0  0  0  0  0  0  0  0
    9.0057   -6.7750   18.1472 C   0  0  0  0  0  0  0  0  0  0  0  0
    9.1133   -1.2653   25.3643 C   0  0  0  0  0  0  0  0  0  0  0  0
   10.5408   -3.7201   19.6909 C   0  0  0  0  0  0  0  0  0  0  0  0
    9.6474   -4.8437   17.6041 He  0  0  0  0  0  0  0  0  0  0  0  0
    5.5777   -8.1988   15.7650 He  0  0  0  0  0  0  0  0  0  0  0  0
    4.7011   -8.0372   15.8919 He  0  0  0  0  0  0  0  0  0  0  0  0
    4.8453   -8.5058   17.4297 He  0  0  0  0  0  0  0  0  0  0  0  0
  1  5  1  0
  1  6  2  0
  1  9  4  0
  1 11  4  0
  1 12  2  0
  1 13  3  0
  1 16  2  0
  2 13  4  0
  2 15  1  0
  2 20  4  0
  3  7  1  0
  3  8  4  0
  3 12  1  0
  3 13  2  0
  3 14  4  0
  3 15  2  0
  3 17  4  0
  4  6  1  0
  4 10  2  0
  4 14  2  0
  4 18  1  0
  4 22  4  0
  5  6  4  0
  5  7  4  0
  5 21  4  0
  6 10  2  0
  6 11  2  0
  6 12  4  0
  6 18  2  0
  7 17  4  0
  8 14  3  0
  8 18  4  0
  8 21  4  0
  9 12  4  0
  9 19  4  0
  9 21  4  0
 10 13  4  0
 10 15  2  0
 10 16  4  0
 10 20  4  0
 10 22  4  0
 11 15  4  0
 12 16  1  0
 12 20  1  0
 12 21  2  0
 13 14  4  0
 13 20  4  0
 14 15  1  0
 14 17  1  0
 14 20  4  0
 14 21  1  0
 14 22  4  0
 15 19  4  0
 15 21  1  0
 19 22  1  0
M  END
$$$$

 Created by Python create_sdf_string function

 26 51  0  0  0  0  0  0  0  0999 V2000
   10.2223   -2.1703   23.0352 C   0  0  0  0  0  0  0  0  0  0  0  0
    9.1653   -4.9493   16.4112 N   0  0  0  0  0  0  0  0  0  0  0  0
    9.7604   -4.7180   17.2210 C   0  0  0  0  0  0  0  0  0  0  0  0
    8.5069    1.0476   25.0031 C   0  0  0  0  0  0  0  0  0  0  0  0
    6.0728   -8.2687   16.2799 C   0  0  0  0  0  0  0  0  0  0  0  0
    5.7918   -7.8420   16.7161 C   0  0  0  0  0  0  0  0  0  0  0  0
   11.0021   -2.9153   18.8295 C   0  0  0  0  0  0  0  0  0  0  0  0
    9.5139   -0.9096   23.9885 C   0  0  0  0  0  0  0  0  0  0  0  0
    7.2559   -7.6300   19.0953 C   0  0  0  0  0  0  0  0  0  0  0  0
    9.7233    0.3168   23.0257 C   0  0  0  0  0  0  0  0  0  0  0  0
   10.4832   -1.8379   22.0400 N   0  0  0  0  0  0  0  0  0  0  0  0
   10.6331   -5.2048   20.1697 C   0  0  0  0  0  0  0  0  0  0  0  0
   10.4753   -2.7837   24.1099 N   0  0  0  0  0  0  0  0  0  0  0  0
    6.6015   -8.1664   16.3772 O   0  0  0  0  0  0  0  0  0  0  0  0
    3.9774   -7.8966   16.8652 N   0  0  0  0  0  0  0  0  0  0  0  0
    8.4486   -6.1983   16.6690 B   0  0  0  0  0  0  0  0  0  0  0  0
    7.7832   -7.7020   16.0752 F   0  0  0  0  0  0  0  0  0  0  0  0
   10.6356   -4.1288   21.8305 F   0  0  0  0  0  0  0  0  0  0  0  0
    9.3952   -5.3431   18.7511 C   0  0  0  0  0  0  0  0  0  0  0  0
   10.6843   -3.9466   17.3947 C   0  0  0  0  0  0  0  0  0  0  0  0
   10.5053   -3.5409   21.3342 C   0  0  0  0  0  0  0  0  0  0  0  0
    8.8273   -6.5564   17.9936 C   0  0  0  0  0  0  0  0  0  0  0  0
    9.4099   -1.0377   25.2260 C   0  0  0  0  0  0  0  0  0  0  0  0
    8.5610    0.0718   25.6999 He  0  0  0  0  0  0  0  0  0  0  0  0
    8.7163    1.7361   24.0957 He  0  0  0  0  0  0  0  0  0  0  0  0
   10.6426   -3.7367   20.0780 He  0  0  0  0  0  0  0  0  0  0  0  0
  1  2  4  0
  1  3  1  0
  1 10  4  0
  1 11  4  0
  1 13  4  0
  2  3  4  0
  2 10  1  0
  2 12  3  0
  2 13  3  0
  2 16  4  0
  3 11  3  0
  3 19  4  0
  5  8  2  0
  5  9  2  0
  5 13  1  0
  5 16  3  0
  5 17  4  0
  5 21  3  0
  5 22  3  0
  6  7  3  0
  6 13  4  0
  6 15  4  0
  7 13  2  0
  7 16  2  0
  7 20  4  0
  7 22  4  0
  8 23  4  0
  9 10  3  0
  9 15  4  0
  9 16  1  0
  9 23  3  0
 10 17  3  0
 11 14  1  0
 11 15  3  0
 11 16  2  0
 11 21  4  0
 12 14  2  0
 12 19  4  0
 13 15  3  0
 13 18  4  0
 14 15  2  0
 14 16  2  0
 14 17  4  0
 14 19  4  0
 15 18  4  0
 15 20  2  0
 16 17  4  0
 16 22  4  0
 17 20  4  0
 19 22  4  0
 22 23  2  0
M  END
$$$$

 Created by Python create_sdf_string function

 26 36  0  0  0  0  0  0  0  0999 V2000
   10.2877   -2.0775   23.0272 C   0  0  0  0  0  0  0  0  0  0  0  0
    9.1734   -5.3412   16.8165 N   0  0  0  0  0  0  0  0  0  0  0  0
   10.0648   -4.8205   17.5174 C   0  0  0  0  0  0  0  0  0  0  0  0
   10.6408   -3.1747   19.2169 C   0  0  0  0  0  0  0  0  0  0  0  0
    9.9188   -0.7039   24.1211 C   0  0  0  0  0  0  0  0  0  0  0  0
    9.7040    0.2453   23.3974 C   0  0  0  0  0  0  0  0  0  0  0  0
    8.6872   -0.0130   26.0912 N   0  0  0  0  0  0  0  0  0  0  0  0
   10.6344   -2.0281   22.0482 N   0  0  0  0  0  0  0  0  0  0  0  0
   10.1155   -5.1627   20.0574 C   0  0  0  0  0  0  0  0  0  0  0  0
   10.4613   -3.5210   23.9191 N   0  0  0  0  0  0  0  0  0  0  0  0
    4.5583   -8.9721   18.1559 N   0  0  0  0  0  0  0  0  0  0  0  0
    8.3550   -6.5514   17.2511 C   0  0  0  0  0  0  0  0  0  0  0  0
    8.7437   -7.6250   15.9293 C   0  0  0  0  0  0  0  0  0  0  0  0
   10.5696   -4.0109   22.4717 O   0  0  0  0  0  0  0  0  0  0  0  0
    9.3497   -6.1258   18.5759 C   0  0  0  0  0  0  0  0  0  0  0  0
    9.0208    1.1731   23.7844 N   0  0  0  0  0  0  0  0  0  0  0  0
   10.5334   -3.9775   17.7354 C   0  0  0  0  0  0  0  0  0  0  0  0
    8.3802   -6.5393   17.9941 F   0  0  0  0  0  0  0  0  0  0  0  0
    9.1996   -0.8483   25.4510 C   0  0  0  0  0  0  0  0  0  0  0  0
   10.6198   -3.5424   20.0876 C   0  0  0  0  0  0  0  0  0  0  0  0
    8.3867    1.5412   25.0502 He  0  0  0  0  0  0  0  0  0  0  0  0
    7.0027   -7.8374   17.0973 He  0  0  0  0  0  0  0  0  0  0  0  0
    4.6321   -7.7183   16.8082 He  0  0  0  0  0  0  0  0  0  0  0  0
    6.6682   -8.0206   19.1099 He  0  0  0  0  0  0  0  0  0  0  0  0
    6.9262   -7.7922   17.0964 He  0  0  0  0  0  0  0  0  0  0  0  0
   11.0384   -3.3948   21.3625 He  0  0  0  0  0  0  0  0  0  0  0  0
  1  5  1  0
  1  8  4  0
  1 10  2  0
  2  3  4  0
  2  9  1  0
  2 12  4  0
  2 13  4  0
  2 16  3  0
  3 15  4  0
  3 17  4  0
  4 11  1  0
  4 17  4  0
  4 18  1  0
  4 19  1  0
  4 20  4  0
  5  6  4  0
  5 19  4  0
  6 16  4  0
  6 18  2  0
  7 11  4  0
  7 12  1  0
  7 16  1  0
  7 19  4  0
  8 15  2  0
  9 13  3  0
  9 15  4  0
  9 18  1  0
 10 11  1  0
 10 14  4  0
 11 13  4  0
 11 14  4  0
 12 13  4  0
 12 18  4  0
 13 17  3  0
 15 18  4  0
 16 18  1  0
M  END
$$$$

 Created by Python create_sdf_string function

 26 37  0  0  0  0  0  0  0  0999 V2000
    9.7511   -1.8830   23.4340 C   0  0  0  0  0  0  0  0  0  0  0  0
    9.3167   -5.8033   16.4714 N   0  0  0  0  0  0  0  0  0  0  0  0
    9.6098   -4.6520   17.5326 C   0  0  0  0  0  0  0  0  0  0  0  0
    8.1683    1.2690   25.3688 C   0  0  0  0  0  0  0  0  0  0  0  0
    6.9852   -7.7536   17.6264 C   0  0  0  0  0  0  0  0  0  0  0  0
    5.4613   -8.7447   17.7220 C   0  0  0  0  0  0  0  0  0  0  0  0
   10.6667   -3.1594   19.3673 C   0  0  0  0  0  0  0  0  0  0  0  0
    9.7813   -0.6429   24.2531 C   0  0  0  0  0  0  0  0  0  0  0  0
    9.4424    0.0784   23.2688 C   0  0  0  0  0  0  0  0  0  0  0  0
    8.1566    0.1774   26.0532 N   0  0  0  0  0  0  0  0  0  0  0  0
   10.8810   -2.0023   22.1871 N   0  0  0  0  0  0  0  0  0  0  0  0
   10.2872   -3.1565   23.6180 N   0  0  0  0  0  0  0  0  0  0  0  0
    8.0382   -6.6515   16.8538 C   0  0  0  0  0  0  0  0  0  0  0  0
    8.5061   -6.3501   16.7215 C   0  0  0  0  0  0  0  0  0  0  0  0
   10.7628   -4.0244   22.5424 O   0  0  0  0  0  0  0  0  0  0  0  0
    9.6692   -5.6839   18.5531 C   0  0  0  0  0  0  0  0  0  0  0  0
    9.4277    1.3492   24.0383 N   0  0  0  0  0  0  0  0  0  0  0  0
    8.9625   -6.7803   18.3443 N   0  0  0  0  0  0  0  0  0  0  0  0
    9.4321   -1.2009   25.4556 Cl  0  0  0  0  0  0  0  0  0  0  0  0
   11.0020   -3.9111   20.1057 C   0  0  0  0  0  0  0  0  0  0  0  0
    6.3626   -8.0260   18.2201 He  0  0  0  0  0  0  0  0  0  0  0  0
   10.0718   -4.8334   19.9541 He  0  0  0  0  0  0  0  0  0  0  0  0
    7.3638   -7.8296   16.6644 He  0  0  0  0  0  0  0  0  0  0  0  0
    4.5932   -8.8395   19.0266 He  0  0  0  0  0  0  0  0  0  0  0  0
   10.8611   -3.5163   17.9540 He  0  0  0  0  0  0  0  0  0  0  0  0
   10.7933   -3.4242   21.6233 He  0  0  0  0  0  0  0  0  0  0  0  0
  1  8  1  0
  1  9  4  0
  1 11  4  0
  1 20  2  0
  2  3  4  0
  2 13  4  0
  3  4  1  0
  3  9  1  0
  3 10  2  0
  3 14  3  0
  3 16  4  0
  4  6  2  0
  4  7  4  0
  4 10  4  0
  4 17  4  0
  5  7  2  0
  5 12  3  0
  5 13  2  0
  5 16  4  0
  5 17  3  0
  6  8  4  0
  6 10  4  0
  6 14  4  0
  6 15  1  0
  7 10  2  0
  7 14  3  0
  7 20  4  0
  8  9  4  0
 10 19  4  0
 11 20  1  0
 12 15  4  0
 13 17  1  0
 13 18  4  0
 14 17  2  0
 16 18  4  0
 17 19  2  0
 17 20  2  0
M  END
$$$$

 Created by Python create_sdf_string function

 26 52  0  0  0  0  0  0  0  0999 V2000
    9.8876   -2.3216   23.4757 C   0  0  0  0  0  0  0  0  0  0  0  0
    9.3338   -4.9215   16.4092 N   0  0  0  0  0  0  0  0  0  0  0  0
    9.9678   -4.6896   17.7857 C   0  0  0  0  0  0  0  0  0  0  0  0
    8.2753    0.8241   25.2432 C   0  0  0  0  0  0  0  0  0  0  0  0
    6.6429   -7.7606   16.8529 C   0  0  0  0  0  0  0  0  0  0  0  0
   11.0684   -3.1174   19.3314 C   0  0  0  0  0  0  0  0  0  0  0  0
    9.4924   -0.5797   24.5035 C   0  0  0  0  0  0  0  0  0  0  0  0
    7.5764   -7.2435   18.5073 C   0  0  0  0  0  0  0  0  0  0  0  0
    9.6130    0.4655   23.3201 C   0  0  0  0  0  0  0  0  0  0  0  0
    8.0654   -0.0986   25.7613 C   0  0  0  0  0  0  0  0  0  0  0  0
   10.3238   -2.0133   21.6732 N   0  0  0  0  0  0  0  0  0  0  0  0
   10.1384   -4.8329   20.4141 C   0  0  0  0  0  0  0  0  0  0  0  0
   10.0756   -3.3386   23.7385 N   0  0  0  0  0  0  0  0  0  0  0  0
    5.1324   -8.7200   17.6630 N   0  0  0  0  0  0  0  0  0  0  0  0
    8.2320   -6.7489   16.8975 C   0  0  0  0  0  0  0  0  0  0  0  0
    8.0156   -5.7047   17.0257 C   0  0  0  0  0  0  0  0  0  0  0  0
   10.5357   -4.6814   22.5285 O   0  0  0  0  0  0  0  0  0  0  0  0
    9.4068   -5.0987   18.4856 C   0  0  0  0  0  0  0  0  0  0  0  0
    8.9919    1.0493   23.8939 N   0  0  0  0  0  0  0  0  0  0  0  0
   10.6700   -3.4718   17.9850 C   0  0  0  0  0  0  0  0  0  0  0  0
   10.5002   -3.3723   21.3804 C   0  0  0  0  0  0  0  0  0  0  0  0
    9.2435   -6.6511   18.9112 N   0  0  0  0  0  0  0  0  0  0  0  0
    8.8544   -0.9317   25.3284 C   0  0  0  0  0  0  0  0  0  0  0  0
   10.8620   -3.6362   20.1007 C   0  0  0  0  0  0  0  0  0  0  0  0
    6.5552   -8.2792   16.5453 He  0  0  0  0  0  0  0  0  0  0  0  0
    6.5431   -8.7612   16.8481 He  0  0  0  0  0  0  0  0  0  0  0  0
  1  4  3  0
  1  7  1  0
  1 11  4  0
  1 13  4  0
  1 23  4  0
  2  3  4  0
  2  5  1  0
  2 14  1  0
  2 16  1  0
  3  5  2  0
  3  8  1  0
  3 18  4  0
  3 20  4  0
  4  8  4  0
  4 10  4  0
  4 19  4  0
  4 24  3  0
  5  8  2  0
  5 15  2  0
  5 19  4  0
  5 20  4  0
  5 21  2  0
  6  8  4  0
  6  9  4  0
  6 24  4  0
  7  9  4  0
  7 23  4  0
  8 10  2  0
  8 15  2  0
  8 18  1  0
  8 19  3  0
  8 23  3  0
  9 19  4  0
 10 23  4  0
 11 14  2  0
 11 20  2  0
 11 21  4  0
 12 18  4  0
 12 21  4  0
 12 24  4  0
 13 14  2  0
 13 17  4  0
 14 16  2  0
 14 20  4  0
 15 16  4  0
 15 22  4  0
 16 18  4  0
 17 21  1  0
 18 22  4  0
 21 23  2  0
 21 24  1  0
 23 24  2  0
M  END
$$$$

 Created by Python create_sdf_string function

 26 49  0  0  0  0  0  0  0  0999 V2000
    9.4754   -2.2134   23.7310 C   0  0  0  0  0  0  0  0  0  0  0  0
    9.2214   -4.7790   16.7808 N   0  0  0  0  0  0  0  0  0  0  0  0
   10.0322   -4.6566   17.6584 C   0  0  0  0  0  0  0  0  0  0  0  0
    8.4820    1.3233   25.3624 C   0  0  0  0  0  0  0  0  0  0  0  0
    6.1232   -7.9889   18.7505 F   0  0  0  0  0  0  0  0  0  0  0  0
   11.1102   -2.6961   19.1207 C   0  0  0  0  0  0  0  0  0  0  0  0
    9.5091   -0.9429   23.8778 C   0  0  0  0  0  0  0  0  0  0  0  0
    9.9602   -0.0435   23.3952 C   0  0  0  0  0  0  0  0  0  0  0  0
    8.4627   -0.1901   26.0532 F   0  0  0  0  0  0  0  0  0  0  0  0
   10.5858   -1.8854   22.0732 N   0  0  0  0  0  0  0  0  0  0  0  0
    9.8660   -5.1175   19.8396 C   0  0  0  0  0  0  0  0  0  0  0  0
   10.4742   -3.3407   23.9770 N   0  0  0  0  0  0  0  0  0  0  0  0
    6.4768   -9.1597   17.5570 P   0  0  0  0  0  0  0  0  0  0  0  0
    4.8211   -9.0272   17.3049 O   0  0  0  0  0  0  0  0  0  0  0  0
    8.4356   -6.9139   17.5659 C   0  0  0  0  0  0  0  0  0  0  0  0
    9.3983   -6.4832   15.8768 F   0  0  0  0  0  0  0  0  0  0  0  0
   10.6141   -4.4022   22.9004 O   0  0  0  0  0  0  0  0  0  0  0  0
    9.5640   -5.4358   18.8620 C   0  0  0  0  0  0  0  0  0  0  0  0
    8.9573    1.2068   24.1405 N   0  0  0  0  0  0  0  0  0  0  0  0
   10.6124   -3.0295   17.8621 C   0  0  0  0  0  0  0  0  0  0  0  0
   10.4960   -3.6387   22.0529 C   0  0  0  0  0  0  0  0  0  0  0  0
    9.0267   -6.5177   18.4501 N   0  0  0  0  0  0  0  0  0  0  0  0
    8.7882   -1.2473   25.3918 C   0  0  0  0  0  0  0  0  0  0  0  0
   10.7294   -3.5245   19.8055 N   0  0  0  0  0  0  0  0  0  0  0  0
    6.1191   -8.7077   16.7700 He  0  0  0  0  0  0  0  0  0  0  0  0
    8.0759   -7.0964   18.5333 He  0  0  0  0  0  0  0  0  0  0  0  0
  1  7  1  0
  1 10  4  0
  1 12  4  0
  1 14  4  0
  1 21  3  0
  2  3  4  0
  2 13  2  0
  3  4  2  0
  3  5  4  0
  3 10  4  0
  3 18  4  0
  3 20  4  0
  3 23  2  0
  4  5  4  0
  4  9  4  0
  4 10  2  0
  4 14  1  0
  4 18  2  0
  4 19  4  0
  4 20  2  0
  5  6  4  0
  5 14  4  0
  5 19  3  0
  6  8  4  0
  6 20  4  0
  6 24  4  0
  7  8  4  0
  7 19  4  0
  7 23  4  0
  8 12  2  0
  8 14  1  0
  8 18  3  0
  8 19  4  0
  9 23  4  0
 10 24  2  0
 11 13  1  0
 11 18  1  0
 11 24  4  0
 12 17  4  0
 12 18  3  0
 13 17  2  0
 14 16  1  0
 14 17  1  0
 14 20  1  0
 14 23  1  0
 15 16  4  0
 15 22  4  0
 17 21  4  0
 18 22  4  0
M  END
$$$$

 Created by Python create_sdf_string function

 26 52  0  0  0  0  0  0  0  0999 V2000
   10.0247   -2.3461   23.4082 C   0  0  0  0  0  0  0  0  0  0  0  0
    9.5897   -5.0429   16.9123 N   0  0  0  0  0  0  0  0  0  0  0  0
    9.6968   -4.2454   17.9413 C   0  0  0  0  0  0  0  0  0  0  0  0
    8.3772    1.0292   25.2854 C   0  0  0  0  0  0  0  0  0  0  0  0
    6.1478   -8.3633   18.4305 C   0  0  0  0  0  0  0  0  0  0  0  0
    4.3726   -9.1576   16.3533 Cl  0  0  0  0  0  0  0  0  0  0  0  0
   11.0083   -3.1843   19.1400 C   0  0  0  0  0  0  0  0  0  0  0  0
   10.0003   -1.0212   24.1749 S   0  0  0  0  0  0  0  0  0  0  0  0
    9.7183    0.1218   23.4590 C   0  0  0  0  0  0  0  0  0  0  0  0
    8.6348    0.2009   25.9455 N   0  0  0  0  0  0  0  0  0  0  0  0
   10.1867   -1.9875   22.3562 N   0  0  0  0  0  0  0  0  0  0  0  0
    9.9367   -4.7162   19.9779 C   0  0  0  0  0  0  0  0  0  0  0  0
   10.3190   -3.8736   24.2676 N   0  0  0  0  0  0  0  0  0  0  0  0
    6.7347   -8.7559   16.9841 C   0  0  0  0  0  0  0  0  0  0  0  0
    5.6048   -8.4186   17.8024 N   0  0  0  0  0  0  0  0  0  0  0  0
    8.6828   -6.7552   17.5377 C   0  0  0  0  0  0  0  0  0  0  0  0
    9.0960   -5.2471   16.7352 Cl  0  0  0  0  0  0  0  0  0  0  0  0
   10.7341   -4.3169   23.0992 O   0  0  0  0  0  0  0  0  0  0  0  0
    9.8423   -5.2583   18.7695 C   0  0  0  0  0  0  0  0  0  0  0  0
    9.0230    1.4106   24.1422 S   0  0  0  0  0  0  0  0  0  0  0  0
   10.5954   -3.1211   17.8125 C   0  0  0  0  0  0  0  0  0  0  0  0
   10.7986   -3.3809   21.5716 C   0  0  0  0  0  0  0  0  0  0  0  0
    9.0861   -1.5242   25.1299 C   0  0  0  0  0  0  0  0  0  0  0  0
   10.7200   -3.6767   20.0871 C   0  0  0  0  0  0  0  0  0  0  0  0
    7.2922   -6.8438   17.2131 He  0  0  0  0  0  0  0  0  0  0  0  0
    8.9844   -6.6139   18.7973 He  0  0  0  0  0  0  0  0  0  0  0  0
  1 13  4  0
  1 20  2  0
  2  3  4  0
  2  4  2  0
  2 19  3  0
  3  5  4  0
  3  6  1  0
  3  8  1  0
  3 11  3  0
  3 19  4  0
  3 21  4  0
  4  6  3  0
  4 11  3  0
  4 14  4  0
  4 20  4  0
  4 21  1  0
  5 15  4  0
  5 16  4  0
  5 22  4  0
  6  9  2  0
  6 16  4  0
  7  8  3  0
  7 11  2  0
  7 21  4  0
  7 24  4  0
  8  9  4  0
  8 14  3  0
  8 20  2  0
  8 21  1  0
  8 22  2  0
  8 23  4  0
  9 11  1  0
  9 17  1  0
  9 18  3  0
  9 20  4  0
 10 23  4  0
 11 14  1  0
 11 20  4  0
 11 22  4  0
 12 19  4  0
 12 23  2  0
 12 24  4  0
 13 18  4  0
 14 22  1  0
 14 24  2  0
 15 21  2  0
 16 17  1  0
 17 19  2  0
 17 22  4  0
 18 22  4  0
 20 22  3  0
 22 24  1  0
M  END
$$$$

 Created by Python create_sdf_string function

 26 43  0  0  0  0  0  0  0  0999 V2000
   10.3001   -2.2963   23.2327 C   0  0  0  0  0  0  0  0  0  0  0  0
    9.4339   -4.9509   16.3926 N   0  0  0  0  0  0  0  0  0  0  0  0
    9.8033   -4.3114   17.4804 C   0  0  0  0  0  0  0  0  0  0  0  0
    8.5203    0.9317   25.2356 C   0  0  0  0  0  0  0  0  0  0  0  0
    6.7388   -8.0422   17.7688 C   0  0  0  0  0  0  0  0  0  0  0  0
   11.0049   -3.1436   19.1101 C   0  0  0  0  0  0  0  0  0  0  0  0
    9.5448   -1.1264   24.3219 C   0  0  0  0  0  0  0  0  0  0  0  0
    9.8953   -0.0471   23.5314 C   0  0  0  0  0  0  0  0  0  0  0  0
    8.2606   -0.2864   26.0214 N   0  0  0  0  0  0  0  0  0  0  0  0
   10.3145   -2.0697   22.0077 N   0  0  0  0  0  0  0  0  0  0  0  0
   10.3094   -4.9942   20.3117 C   0  0  0  0  0  0  0  0  0  0  0  0
   10.4157   -3.1711   24.0175 N   0  0  0  0  0  0  0  0  0  0  0  0
    6.2422   -9.3194   17.6161 N   0  0  0  0  0  0  0  0  0  0  0  0
    8.5386   -6.6249   17.5245 C   0  0  0  0  0  0  0  0  0  0  0  0
   11.0706   -4.1084   22.7464 O   0  0  0  0  0  0  0  0  0  0  0  0
    9.5562   -5.6188   18.4885 C   0  0  0  0  0  0  0  0  0  0  0  0
    8.7093    1.1979   24.0541 N   0  0  0  0  0  0  0  0  0  0  0  0
   10.7595   -3.5084   17.8203 P   0  0  0  0  0  0  0  0  0  0  0  0
   10.5088   -3.4182   21.8106 C   0  0  0  0  0  0  0  0  0  0  0  0
    8.8554   -6.4585   18.6795 C   0  0  0  0  0  0  0  0  0  0  0  0
    9.1909   -1.3145   25.3320 C   0  0  0  0  0  0  0  0  0  0  0  0
   10.3709   -3.3701   20.1653 C   0  0  0  0  0  0  0  0  0  0  0  0
    5.8984   -9.5013   16.9925 He  0  0  0  0  0  0  0  0  0  0  0  0
    7.6024   -7.1960   17.8778 He  0  0  0  0  0  0  0  0  0  0  0  0
    5.7032   -7.3690   16.0761 He  0  0  0  0  0  0  0  0  0  0  0  0
    9.0139   -5.4857   16.0994 He  0  0  0  0  0  0  0  0  0  0  0  0
  1  7  1  0
  1 10  4  0
  1 11  2  0
  1 12  4  0
  2  3  4  0
  2  9  3  0
  2 22  3  0
  3 15  1  0
  3 16  4  0
  3 18  4  0
  4  8  2  0
  4  9  4  0
  4 17  4  0
  5  7  4  0
  5 11  2  0
  5 13  4  0
  5 14  3  0
  5 17  1  0
  6 18  4  0
  6 22  1  0
  7  8  4  0
  7 15  2  0
  7 21  4  0
  8 13  2  0
  8 17  4  0
  9 11  1  0
  9 18  2  0
  9 21  4  0
 10 19  4  0
 11 16  4  0
 11 22  4  0
 12 15  4  0
 12 22  2  0
 13 18  3  0
 13 19  3  0
 14 15  2  0
 14 16  1  0
 14 19  4  0
 14 20  4  0
 15 19  4  0
 16 20  4  0
 19 22  1  0
 20 22  4  0
M  END
$$$$

 Created by Python create_sdf_string function

 26 49  0  0  0  0  0  0  0  0999 V2000
    9.9206   -2.2636   23.2949 C   0  0  0  0  0  0  0  0  0  0  0  0
    9.3375   -5.0441   16.5635 N   0  0  0  0  0  0  0  0  0  0  0  0
   10.1810   -4.5795   17.7918 C   0  0  0  0  0  0  0  0  0  0  0  0
    8.4198    0.9011   25.6028 C   0  0  0  0  0  0  0  0  0  0  0  0
    6.5203   -7.5269   18.8006 C   0  0  0  0  0  0  0  0  0  0  0  0
    6.1572   -8.5755   16.2404 N   0  0  0  0  0  0  0  0  0  0  0  0
   10.9860   -2.9901   19.1887 C   0  0  0  0  0  0  0  0  0  0  0  0
    9.5490   -0.8627   24.1568 C   0  0  0  0  0  0  0  0  0  0  0  0
    9.6896    0.3298   23.6006 C   0  0  0  0  0  0  0  0  0  0  0  0
    8.4750   -0.2124   25.7975 N   0  0  0  0  0  0  0  0  0  0  0  0
   10.2675   -1.9353   22.3417 N   0  0  0  0  0  0  0  0  0  0  0  0
    9.9427   -4.8111   19.7057 F   0  0  0  0  0  0  0  0  0  0  0  0
   10.6818   -3.3127   24.1269 N   0  0  0  0  0  0  0  0  0  0  0  0
    6.1756   -8.7424   17.9588 N   0  0  0  0  0  0  0  0  0  0  0  0
    8.3898   -6.3608   16.9383 C   0  0  0  0  0  0  0  0  0  0  0  0
    8.6963   -5.0798   16.0011 O   0  0  0  0  0  0  0  0  0  0  0  0
   10.5237   -4.1875   22.7099 O   0  0  0  0  0  0  0  0  0  0  0  0
    9.8755   -5.4893   18.5741 C   0  0  0  0  0  0  0  0  0  0  0  0
    9.0990    0.9952   23.9040 N   0  0  0  0  0  0  0  0  0  0  0  0
   11.2345   -3.7631   17.8446 P   0  0  0  0  0  0  0  0  0  0  0  0
   10.6764   -3.3282   21.4057 C   0  0  0  0  0  0  0  0  0  0  0  0
    8.9478   -1.0334   25.4085 C   0  0  0  0  0  0  0  0  0  0  0  0
   10.6686   -3.4528   20.6412 C   0  0  0  0  0  0  0  0  0  0  0  0
    7.2999   -7.4342   17.3164 He  0  0  0  0  0  0  0  0  0  0  0  0
    6.5531   -7.3821   16.2967 He  0  0  0  0  0  0  0  0  0  0  0  0
    8.9973   -6.5410   18.4453 He  0  0  0  0  0  0  0  0  0  0  0  0
  1  2  1  0
  1  7  4  0
  1 11  4  0
  1 22  3  0
  2  3  4  0
  2 12  1  0
  2 16  4  0
  3  5  2  0
  3 16  1  0
  3 20  4  0
  4 10  4  0
  4 12  4  0
  4 14  4  0
  4 19  4  0
  5  7  3  0
  5 14  4  0
  5 15  1  0
  5 16  2  0
  5 17  1  0
  5 23  3  0
  7 17  1  0
  7 20  4  0
  7 23  4  0
  8  9  4  0
  8 22  4  0
  9 15  4  0
  9 19  4  0
 10 18  3  0
 10 19  1  0
 10 20  1  0
 10 22  4  0
 11 17  3  0
 11 20  4  0
 11 21  4  0
 12 14  4  0
 12 18  4  0
 12 23  4  0
 13 17  4  0
 14 15  4  0
 15 16  4  0
 16 18  1  0
 16 19  4  0
 16 20  3  0
 16 21  3  0
 17 21  4  0
 17 22  4  0
 17 23  1  0
 19 23  4  0
 21 23  3  0
M  END
$$$$

 Created by Python create_sdf_string function

 26 36  0  0  0  0  0  0  0  0999 V2000
   10.2654   -2.1555   23.6469 Se  0  0  0  0  0  0  0  0  0  0  0  0
    9.7668   -4.6926   16.6576 N   0  0  0  0  0  0  0  0  0  0  0  0
   10.0533   -4.5327   17.7604 C   0  0  0  0  0  0  0  0  0  0  0  0
    8.3019    1.2602   25.3865 C   0  0  0  0  0  0  0  0  0  0  0  0
    6.7499   -7.6600   17.6586 C   0  0  0  0  0  0  0  0  0  0  0  0
    6.2571   -9.0494   16.6447 C   0  0  0  0  0  0  0  0  0  0  0  0
    9.5685   -0.8777   24.2586 C   0  0  0  0  0  0  0  0  0  0  0  0
    7.5870   -7.1191   17.8232 C   0  0  0  0  0  0  0  0  0  0  0  0
    9.3929    0.2440   23.4556 C   0  0  0  0  0  0  0  0  0  0  0  0
    8.3199   -0.2194   25.9254 N   0  0  0  0  0  0  0  0  0  0  0  0
   10.1865   -2.2546   22.2331 N   0  0  0  0  0  0  0  0  0  0  0  0
    9.9872   -5.0402   20.0453 C   0  0  0  0  0  0  0  0  0  0  0  0
   10.2832   -3.0429   24.1231 N   0  0  0  0  0  0  0  0  0  0  0  0
    6.9411   -8.1958   16.1131 N   0  0  0  0  0  0  0  0  0  0  0  0
    5.2740   -7.9837   18.4251 N   0  0  0  0  0  0  0  0  0  0  0  0
   10.0610   -5.5153   18.3552 C   0  0  0  0  0  0  0  0  0  0  0  0
    9.1307    1.2464   24.0905 C   0  0  0  0  0  0  0  0  0  0  0  0
   10.6566   -3.2651   17.8658 C   0  0  0  0  0  0  0  0  0  0  0  0
   10.5262   -3.2701   22.1034 C   0  0  0  0  0  0  0  0  0  0  0  0
    8.6973   -0.9209   25.4045 C   0  0  0  0  0  0  0  0  0  0  0  0
   10.5688   -3.7279   20.4435 C   0  0  0  0  0  0  0  0  0  0  0  0
   11.1817   -2.7465   19.3024 He  0  0  0  0  0  0  0  0  0  0  0  0
    8.3924   -6.5804   17.2771 He  0  0  0  0  0  0  0  0  0  0  0  0
    8.4243   -5.6612   16.0508 He  0  0  0  0  0  0  0  0  0  0  0  0
   10.6787   -3.8193   22.8152 He  0  0  0  0  0  0  0  0  0  0  0  0
    9.0976   -6.1130   18.3486 He  0  0  0  0  0  0  0  0  0  0  0  0
  1  3  3  0
  1  5  2  0
  1  7  1  0
  1 11  4  0
  1 13  4  0
  2  3  4  0
  2 14  1  0
  3 16  4  0
  4  6  1  0
  4 10  4  0
  4 17  4  0
  5  8  4  0
  5 15  4  0
  5 16  4  0
  5 18  1  0
  6 15  4  0
  7  9  4  0
  7 20  4  0
  8 12  2  0
  8 14  4  0
  8 17  4  0
  8 20  1  0
  9 12  4  0
  9 17  4  0
 10 13  1  0
 10 20  4  0
 11 16  2  0
 11 21  4  0
 12 16  4  0
 12 21  4  0
 13 15  4  0
 13 21  3  0
 14 20  3  0
 16 19  1  0
 18 19  3  0
 19 21  1  0
M  END
$$$$

 Created by Python create_sdf_string function

 26 30  0  0  0  0  0  0  0  0999 V2000
   10.0415   -1.7707   23.3917 C   0  0  0  0  0  0  0  0  0  0  0  0
    9.7109   -4.5639   16.6010 N   0  0  0  0  0  0  0  0  0  0  0  0
   10.3608   -4.3646   18.0785 C   0  0  0  0  0  0  0  0  0  0  0  0
    8.3112    1.0566   25.3417 C   0  0  0  0  0  0  0  0  0  0  0  0
    6.4184   -7.4609   18.0529 C   0  0  0  0  0  0  0  0  0  0  0  0
    5.7365   -9.2522   17.1486 C   0  0  0  0  0  0  0  0  0  0  0  0
   11.4541   -3.0196   19.1559 C   0  0  0  0  0  0  0  0  0  0  0  0
    9.9496   -1.1534   24.0898 C   0  0  0  0  0  0  0  0  0  0  0  0
    9.4361    0.4169   23.3131 C   0  0  0  0  0  0  0  0  0  0  0  0
    8.7204    0.0054   26.0060 S   0  0  0  0  0  0  0  0  0  0  0  0
   10.4022   -1.8843   22.1575 Cl  0  0  0  0  0  0  0  0  0  0  0  0
   10.4228   -4.9970   20.0645 C   0  0  0  0  0  0  0  0  0  0  0  0
   10.1099   -3.2020   23.8519 N   0  0  0  0  0  0  0  0  0  0  0  0
    6.9721   -8.4758   16.1444 N   0  0  0  0  0  0  0  0  0  0  0  0
    5.5005   -8.6701   17.8391 N   0  0  0  0  0  0  0  0  0  0  0  0
    8.6888   -6.3392   17.2605 C   0  0  0  0  0  0  0  0  0  0  0  0
   10.7005   -4.1726   23.0447 O   0  0  0  0  0  0  0  0  0  0  0  0
    8.7481    1.5236   23.9962 C   0  0  0  0  0  0  0  0  0  0  0  0
   11.0034   -2.8625   17.8647 N   0  0  0  0  0  0  0  0  0  0  0  0
    9.0946   -6.5675   18.8127 N   0  0  0  0  0  0  0  0  0  0  0  0
    8.9131   -1.0999   25.3300 C   0  0  0  0  0  0  0  0  0  0  0  0
   10.5347   -3.7096   20.4580 C   0  0  0  0  0  0  0  0  0  0  0  0
    7.1425   -7.2768   16.7911 He  0  0  0  0  0  0  0  0  0  0  0  0
    8.7565   -6.1438   16.2818 He  0  0  0  0  0  0  0  0  0  0  0  0
    9.4865   -5.4739   18.7721 He  0  0  0  0  0  0  0  0  0  0  0  0
   10.6419   -3.0765   21.8029 He  0  0  0  0  0  0  0  0  0  0  0  0
  1  8  1  0
  1 13  4  0
  1 16  4  0
  1 22  2  0
  2 20  3  0
  2 21  1  0
  3 19  4  0
  3 21  3  0
  4 10  4  0
  4 18  2  0
  5 13  2  0
  5 15  4  0
  5 22  2  0
  6  8  1  0
  6 14  4  0
  6 15  4  0
  6 18  3  0
  7 19  4  0
  7 22  4  0
  8  9  4  0
  8 21  4  0
  9 18  4  0
 10 21  3  0
 11 14  4  0
 13 16  1  0
 13 17  4  0
 14 17  2  0
 15 17  3  0
 16 20  4  0
 18 19  3  0
M  END
$$$$

 Created by Python create_sdf_string function

 26 50  0  0  0  0  0  0  0  0999 V2000
   10.0759   -1.8298   23.5034 C   0  0  0  0  0  0  0  0  0  0  0  0
    9.7268   -4.5757   16.3648 N   0  0  0  0  0  0  0  0  0  0  0  0
   10.2122   -4.5880   17.7681 C   0  0  0  0  0  0  0  0  0  0  0  0
    8.4062    1.1599   25.4494 C   0  0  0  0  0  0  0  0  0  0  0  0
    6.1026   -7.4563   18.1358 C   0  0  0  0  0  0  0  0  0  0  0  0
    5.5533   -8.6851   17.1320 C   0  0  0  0  0  0  0  0  0  0  0  0
   11.0932   -2.7173   19.1878 C   0  0  0  0  0  0  0  0  0  0  0  0
    9.4417   -0.9054   24.1585 C   0  0  0  0  0  0  0  0  0  0  0  0
    9.7586    0.4216   23.4683 C   0  0  0  0  0  0  0  0  0  0  0  0
    8.4165    0.1759   25.6627 N   0  0  0  0  0  0  0  0  0  0  0  0
   10.6440   -2.1241   22.2376 N   0  0  0  0  0  0  0  0  0  0  0  0
   10.3320   -5.0512   20.0963 Cl  0  0  0  0  0  0  0  0  0  0  0  0
    9.9079   -3.1300   23.6385 P   0  0  0  0  0  0  0  0  0  0  0  0
    7.0893   -8.6786   15.9517 N   0  0  0  0  0  0  0  0  0  0  0  0
    6.5590   -7.8935   18.2501 N   0  0  0  0  0  0  0  0  0  0  0  0
    8.8714   -5.9834   16.2156 C   0  0  0  0  0  0  0  0  0  0  0  0
   10.6523   -4.3053   22.4477 O   0  0  0  0  0  0  0  0  0  0  0  0
    9.6582   -5.5462   18.7970 C   0  0  0  0  0  0  0  0  0  0  0  0
    8.8526    1.5210   24.1218 C   0  0  0  0  0  0  0  0  0  0  0  0
   10.5152   -3.2826   21.4925 C   0  0  0  0  0  0  0  0  0  0  0  0
    9.1028   -1.0943   25.6541 C   0  0  0  0  0  0  0  0  0  0  0  0
   10.6344   -3.7732   20.5057 C   0  0  0  0  0  0  0  0  0  0  0  0
    6.6673   -7.5329   17.4355 He  0  0  0  0  0  0  0  0  0  0  0  0
    8.1351   -6.8898   17.4073 He  0  0  0  0  0  0  0  0  0  0  0  0
   10.9856   -3.1552   18.0847 He  0  0  0  0  0  0  0  0  0  0  0  0
    8.9832   -6.4075   18.5814 He  0  0  0  0  0  0  0  0  0  0  0  0
  1  6  3  0
  1  8  1  0
  1 11  4  0
  1 13  4  0
  1 15  4  0
  2  3  2  0
  2 11  2  0
  2 16  4  0
  3 11  1  0
  3 16  1  0
  3 18  4  0
  4 10  4  0
  4 16  4  0
  4 19  4  0
  5  8  3  0
  5 12  3  0
  5 15  4  0
  5 20  3  0
  6  7  2  0
  6  8  2  0
  6 11  3  0
  6 12  2  0
  6 14  4  0
  6 15  4  0
  6 19  2  0
  7 16  1  0
  7 21  1  0
  7 22  4  0
  8  9  4  0
  8 13  2  0
  8 20  3  0
  8 21  4  0
  9 19  1  0
  9 21  4  0
 10 21  4  0
 11 20  4  0
 12 13  2  0
 12 15  2  0
 12 17  1  0
 12 18  4  0
 12 22  4  0
 13 16  4  0
 13 17  4  0
 14 15  2  0
 14 16  1  0
 14 17  1  0
 15 17  3  0
 17 20  4  0
 18 19  1  0
 20 22  1  0
M  END
$$$$

 Created by Python create_sdf_string function

 26 55  0  0  0  0  0  0  0  0999 V2000
   10.2589   -2.1914   23.0042 C   0  0  0  0  0  0  0  0  0  0  0  0
    9.4896   -4.7270   16.3214 N   0  0  0  0  0  0  0  0  0  0  0  0
    9.9745   -4.3113   17.5983 C   0  0  0  0  0  0  0  0  0  0  0  0
    8.3501    1.2405   25.5015 C   0  0  0  0  0  0  0  0  0  0  0  0
    6.9359   -7.7344   18.7238 C   0  0  0  0  0  0  0  0  0  0  0  0
    6.4582   -8.5434   16.5606 C   0  0  0  0  0  0  0  0  0  0  0  0
   11.0332   -2.6662   19.2772 C   0  0  0  0  0  0  0  0  0  0  0  0
    9.6706   -0.8281   24.4079 F   0  0  0  0  0  0  0  0  0  0  0  0
    7.3806   -7.6881   17.8174 O   0  0  0  0  0  0  0  0  0  0  0  0
    9.6918    0.5302   23.7879 C   0  0  0  0  0  0  0  0  0  0  0  0
    8.2803   -0.1821   26.0747 N   0  0  0  0  0  0  0  0  0  0  0  0
   10.4196   -2.2778   22.2770 N   0  0  0  0  0  0  0  0  0  0  0  0
   10.3009   -5.1975   19.9346 C   0  0  0  0  0  0  0  0  0  0  0  0
   10.0542   -3.1584   23.8631 N   0  0  0  0  0  0  0  0  0  0  0  0
    7.1111   -8.6259   16.3585 Cl  0  0  0  0  0  0  0  0  0  0  0  0
    5.3660   -8.8354   19.1204 N   0  0  0  0  0  0  0  0  0  0  0  0
    8.2815   -6.3687   17.4845 C   0  0  0  0  0  0  0  0  0  0  0  0
   10.6645   -4.1045   22.5608 O   0  0  0  0  0  0  0  0  0  0  0  0
    9.6316   -5.2014   18.5436 C   0  0  0  0  0  0  0  0  0  0  0  0
    9.1570    1.3472   24.1037 C   0  0  0  0  0  0  0  0  0  0  0  0
   10.9185   -3.2010   18.0069 C   0  0  0  0  0  0  0  0  0  0  0  0
   11.0935   -3.5165   21.8182 C   0  0  0  0  0  0  0  0  0  0  0  0
    8.9060   -6.3350   18.4518 C   0  0  0  0  0  0  0  0  0  0  0  0
    8.9693   -0.8722   25.2096 C   0  0  0  0  0  0  0  0  0  0  0  0
   10.7039   -3.7358   20.1099 C   0  0  0  0  0  0  0  0  0  0  0  0
    9.5388   -5.2819   16.2038 He  0  0  0  0  0  0  0  0  0  0  0  0
  1  2  1  0
  1  8  1  0
  1  9  1  0
  1 12  3  0
  1 14  4  0
  2  3  4  0
  2 10  4  0
  3 19  4  0
  3 21  4  0
  3 24  2  0
  4 11  4  0
  4 15  4  0
  4 18  2  0
  4 20  4  0
  5  7  4  0
  5  9  4  0
  5 15  2  0
  5 16  4  0
  5 17  3  0
  5 23  1  0
  5 24  2  0
  6  9  3  0
  6 15  4  0
  6 16  4  0
  6 23  2  0
  7 16  3  0
  7 21  2  0
  7 25  4  0
  8  9  3  0
  8 10  4  0
  8 16  3  0
  8 22  3  0
  9 17  1  0
 10 15  1  0
 10 20  4  0
 10 22  4  0
 10 24  1  0
 11 16  2  0
 11 24  4  0
 12 22  4  0
 13 16  3  0
 13 19  4  0
 13 25  4  0
 14 18  4  0
 15 18  1  0
 15 22  1  0
 15 25  1  0
 16 17  1  0
 16 23  3  0
 16 24  3  0
 17 23  4  0
 18 22  4  0
 19 23  4  0
 20 24  1  0
 22 25  1  0
M  END
$$$$

 Created by Python create_sdf_string function

 26 29  0  0  0  0  0  0  0  0999 V2000
    9.8294   -2.0024   23.4420 C   0  0  0  0  0  0  0  0  0  0  0  0
    9.6139   -5.1224   16.3613 N   0  0  0  0  0  0  0  0  0  0  0  0
   10.2178   -4.4143   17.2703 C   0  0  0  0  0  0  0  0  0  0  0  0
    8.3289    1.3169   25.2456 F   0  0  0  0  0  0  0  0  0  0  0  0
    7.4419   -8.3739   17.8612 C   0  0  0  0  0  0  0  0  0  0  0  0
    5.9434   -9.8962   17.0645 C   0  0  0  0  0  0  0  0  0  0  0  0
    9.6290   -0.9183   23.8821 C   0  0  0  0  0  0  0  0  0  0  0  0
    7.3754   -7.7609   18.0100 O   0  0  0  0  0  0  0  0  0  0  0  0
    9.9492    0.5968   23.9912 C   0  0  0  0  0  0  0  0  0  0  0  0
    7.9740   -0.2190   25.6892 N   0  0  0  0  0  0  0  0  0  0  0  0
   10.2609   -2.0887   22.0258 N   0  0  0  0  0  0  0  0  0  0  0  0
   10.2179   -5.0260   20.1313 N   0  0  0  0  0  0  0  0  0  0  0  0
   10.6131   -3.0574   23.9125 N   0  0  0  0  0  0  0  0  0  0  0  0
    5.8581   -9.0138   16.8457 N   0  0  0  0  0  0  0  0  0  0  0  0
    8.2522   -6.6124   17.6561 C   0  0  0  0  0  0  0  0  0  0  0  0
    9.3499   -5.7356   16.2051 C   0  0  0  0  0  0  0  0  0  0  0  0
    9.8204   -5.3942   18.4665 C   0  0  0  0  0  0  0  0  0  0  0  0
   10.3841   -3.5769   22.0661 C   0  0  0  0  0  0  0  0  0  0  0  0
    8.7192   -6.6364   18.5189 C   0  0  0  0  0  0  0  0  0  0  0  0
    8.9973   -1.1910   25.4776 C   0  0  0  0  0  0  0  0  0  0  0  0
   10.7470   -2.7498   19.2968 He  0  0  0  0  0  0  0  0  0  0  0  0
    7.4387   -9.2369   16.2882 He  0  0  0  0  0  0  0  0  0  0  0  0
   10.4987   -4.3133   22.5954 He  0  0  0  0  0  0  0  0  0  0  0  0
    9.2803    1.3775   24.1839 He  0  0  0  0  0  0  0  0  0  0  0  0
   10.6401   -3.1397   17.8929 He  0  0  0  0  0  0  0  0  0  0  0  0
   10.8308   -4.1162   20.1157 He  0  0  0  0  0  0  0  0  0  0  0  0
  1 11  4  0
  1 13  4  0
  2  3  4  0
  2  6  2  0
  2 14  3  0
  2 16  4  0
  3 16  2  0
  4 10  4  0
  5  8  4  0
  5 14  2  0
  6  7  2  0
  6 11  3  0
  6 14  4  0
  7  8  3  0
  7  9  4  0
  7 20  4  0
  8 13  4  0
  8 15  1  0
  8 16  4  0
  8 20  4  0
  9 19  2  0
 10 11  3  0
 10 13  4  0
 10 20  2  0
 11 18  4  0
 15 16  4  0
 15 17  2  0
 15 19  4  0
 17 19  4  0
M  END
$$$$

 Created by Python create_sdf_string function

 26 42  0  0  0  0  0  0  0  0999 V2000
   10.0865   -2.3042   23.4698 C   0  0  0  0  0  0  0  0  0  0  0  0
    9.7924   -4.7637   16.3508 N   0  0  0  0  0  0  0  0  0  0  0  0
   10.0320   -4.3619   17.6504 C   0  0  0  0  0  0  0  0  0  0  0  0
    8.4507    1.0318   25.1818 C   0  0  0  0  0  0  0  0  0  0  0  0
    7.1217   -8.4188   18.2784 C   0  0  0  0  0  0  0  0  0  0  0  0
    6.5952   -9.6960   17.0464 C   0  0  0  0  0  0  0  0  0  0  0  0
   10.9873   -2.7862   19.2111 C   0  0  0  0  0  0  0  0  0  0  0  0
    9.5755   -0.9670   24.1562 C   0  0  0  0  0  0  0  0  0  0  0  0
    7.7842   -8.0834   17.3465 F   0  0  0  0  0  0  0  0  0  0  0  0
    9.5894    0.2545   23.6620 C   0  0  0  0  0  0  0  0  0  0  0  0
    8.2760   -0.1552   26.1121 N   0  0  0  0  0  0  0  0  0  0  0  0
   10.2233   -2.1489   22.0826 N   0  0  0  0  0  0  0  0  0  0  0  0
   10.5033   -3.4905   23.8742 N   0  0  0  0  0  0  0  0  0  0  0  0
    7.8202   -9.0343   16.8711 N   0  0  0  0  0  0  0  0  0  0  0  0
    8.3329   -6.8074   17.4698 C   0  0  0  0  0  0  0  0  0  0  0  0
    8.5019   -5.9452   16.5171 C   0  0  0  0  0  0  0  0  0  0  0  0
   10.7563   -4.1587   22.9306 O   0  0  0  0  0  0  0  0  0  0  0  0
    9.7403   -5.2445   18.6471 C   0  0  0  0  0  0  0  0  0  0  0  0
    9.1508    1.2756   24.1962 Cl  0  0  0  0  0  0  0  0  0  0  0  0
   11.0710   -2.9349   17.9710 F   0  0  0  0  0  0  0  0  0  0  0  0
   10.5450   -3.2649   21.5433 C   0  0  0  0  0  0  0  0  0  0  0  0
    8.8702   -6.4036   18.4441 C   0  0  0  0  0  0  0  0  0  0  0  0
    8.7902   -1.1117   25.3969 C   0  0  0  0  0  0  0  0  0  0  0  0
   10.8017   -3.7836   20.3722 C   0  0  0  0  0  0  0  0  0  0  0  0
   10.2538   -5.0517   20.0449 He  0  0  0  0  0  0  0  0  0  0  0  0
    6.1181   -9.2673   17.8822 He  0  0  0  0  0  0  0  0  0  0  0  0
  1  8  1  0
  1 12  4  0
  1 13  4  0
  2  3  4  0
  2 16  4  0
  3 18  4  0
  3 20  4  0
  4 11  4  0
  4 13  2  0
  4 19  4  0
  5  9  4  0
  5 10  1  0
  5 12  3  0
  5 20  1  0
  6 19  1  0
  7  9  1  0
  7 20  4  0
  7 24  4  0
  8 10  4  0
  8 15  3  0
  9 14  4  0
  9 15  1  0
  9 19  4  0
  9 20  1  0
  9 23  2  0
 10 12  4  0
 10 14  2  0
 10 19  1  0
 11 16  4  0
 11 23  4  0
 12 14  1  0
 12 21  4  0
 13 16  4  0
 13 17  4  0
 15 16  4  0
 15 22  4  0
 16 24  3  0
 17 20  4  0
 17 21  4  0
 17 23  3  0
 18 22  4  0
 21 24  1  0
M  END
$$$$

 Created by Python create_sdf_string function

 26 55  0  0  0  0  0  0  0  0999 V2000
    9.9463   -2.1828   23.3995 C   0  0  0  0  0  0  0  0  0  0  0  0
    9.4983   -4.9867   16.3127 N   0  0  0  0  0  0  0  0  0  0  0  0
   10.0429   -4.0957   17.6755 C   0  0  0  0  0  0  0  0  0  0  0  0
    8.4053    1.1984   25.2170 C   0  0  0  0  0  0  0  0  0  0  0  0
    7.2415   -8.1297   18.1475 C   0  0  0  0  0  0  0  0  0  0  0  0
    6.1521   -9.5790   16.7127 C   0  0  0  0  0  0  0  0  0  0  0  0
   10.7642   -2.8382   19.4053 C   0  0  0  0  0  0  0  0  0  0  0  0
    9.6564   -0.8588   23.9639 C   0  0  0  0  0  0  0  0  0  0  0  0
    7.2771   -8.5387   17.7625 F   0  0  0  0  0  0  0  0  0  0  0  0
    9.5026    0.3131   23.5126 C   0  0  0  0  0  0  0  0  0  0  0  0
    8.5777   -0.1209   26.2408 N   0  0  0  0  0  0  0  0  0  0  0  0
   10.5375   -2.2179   22.2611 N   0  0  0  0  0  0  0  0  0  0  0  0
   10.1308   -5.0060   20.0292 C   0  0  0  0  0  0  0  0  0  0  0  0
   10.3696   -3.3796   23.8112 N   0  0  0  0  0  0  0  0  0  0  0  0
    7.1193   -9.1544   16.6424 F   0  0  0  0  0  0  0  0  0  0  0  0
    6.5116   -8.7166   17.8779 F   0  0  0  0  0  0  0  0  0  0  0  0
    8.7814   -5.6855   16.5625 C   0  0  0  0  0  0  0  0  0  0  0  0
   10.5699   -4.1748   22.7499 O   0  0  0  0  0  0  0  0  0  0  0  0
    9.6624   -5.2044   18.7036 C   0  0  0  0  0  0  0  0  0  0  0  0
    8.9358    1.2158   24.2679 N   0  0  0  0  0  0  0  0  0  0  0  0
   10.6174   -3.5321   17.9120 C   0  0  0  0  0  0  0  0  0  0  0  0
   10.2630   -3.4678   21.5448 N   0  0  0  0  0  0  0  0  0  0  0  0
    8.9073   -6.7992   18.6727 C   0  0  0  0  0  0  0  0  0  0  0  0
    8.9864   -1.1947   25.3665 C   0  0  0  0  0  0  0  0  0  0  0  0
   10.4921   -3.8126   20.4068 C   0  0  0  0  0  0  0  0  0  0  0  0
    8.5163   -6.5415   17.3463 He  0  0  0  0  0  0  0  0  0  0  0  0
  1  5  1  0
  1  6  4  0
  1  8  1  0
  1 12  4  0
  1 14  4  0
  1 16  3  0
  2  3  4  0
  3 17  4  0
  3 19  4  0
  3 21  4  0
  4  6  2  0
  4 11  4  0
  4 19  3  0
  4 20  4  0
  5  7  1  0
  5  9  4  0
  5 16  4  0
  5 22  2  0
  6  8  1  0
  6 15  1  0
  6 16  4  0
  6 23  4  0
  7 15  2  0
  7 16  1  0
  7 21  4  0
  7 25  4  0
  8 10  4  0
  8 17  1  0
  8 24  4  0
  9 14  4  0
  9 17  1  0
 10 11  4  0
 10 20  4  0
 11 16  2  0
 11 24  4  0
 12 16  2  0
 12 20  2  0
 12 22  4  0
 13 16  3  0
 13 19  4  0
 13 25  4  0
 14 15  4  0
 14 18  4  0
 14 19  1  0
 15 20  3  0
 15 23  1  0
 16 24  2  0
 17 21  2  0
 17 23  1  0
 17 25  4  0
 18 20  2  0
 18 22  4  0
 19 23  4  0
 21 25  3  0
 22 25  1  0
M  END
$$$$

 Created by Python create_sdf_string function

 26 49  0  0  0  0  0  0  0  0999 V2000
    9.6606   -1.9549   23.4514 C   0  0  0  0  0  0  0  0  0  0  0  0
    9.4597   -4.8047   16.6618 N   0  0  0  0  0  0  0  0  0  0  0  0
    6.5221   -8.2956   17.4983 C   0  0  0  0  0  0  0  0  0  0  0  0
    6.1604   -9.3098   16.3467 C   0  0  0  0  0  0  0  0  0  0  0  0
   10.7904   -3.0873   19.4227 C   0  0  0  0  0  0  0  0  0  0  0  0
    9.4781   -1.1420   23.9393 C   0  0  0  0  0  0  0  0  0  0  0  0
    7.2384   -8.0090   17.5728 N   0  0  0  0  0  0  0  0  0  0  0  0
    9.6867    0.1842   23.4675 C   0  0  0  0  0  0  0  0  0  0  0  0
    8.4200    0.1288   25.8681 N   0  0  0  0  0  0  0  0  0  0  0  0
   10.2494   -2.2468   22.3175 N   0  0  0  0  0  0  0  0  0  0  0  0
   10.1594   -5.1246   20.0588 C   0  0  0  0  0  0  0  0  0  0  0  0
   10.4166   -3.1391   23.9387 N   0  0  0  0  0  0  0  0  0  0  0  0
    7.1437   -8.3940   15.7968 N   0  0  0  0  0  0  0  0  0  0  0  0
    5.7754   -8.4554   18.3204 N   0  0  0  0  0  0  0  0  0  0  0  0
    8.6358   -6.7508   17.3815 F   0  0  0  0  0  0  0  0  0  0  0  0
    9.1228   -5.9780   16.1886 C   0  0  0  0  0  0  0  0  0  0  0  0
   10.4189   -4.0804   22.8366 O   0  0  0  0  0  0  0  0  0  0  0  0
    9.5499   -5.4350   18.6004 C   0  0  0  0  0  0  0  0  0  0  0  0
   10.6538   -3.2790   17.9208 C   0  0  0  0  0  0  0  0  0  0  0  0
   10.6029   -3.3796   21.8012 C   0  0  0  0  0  0  0  0  0  0  0  0
    8.9596   -6.4746   18.8469 C   0  0  0  0  0  0  0  0  0  0  0  0
    8.7805   -1.4822   25.4724 S   0  0  0  0  0  0  0  0  0  0  0  0
   10.4861   -3.9474   20.5250 C   0  0  0  0  0  0  0  0  0  0  0  0
   10.2589   -4.7082   18.0152 He  0  0  0  0  0  0  0  0  0  0  0  0
    8.6668    1.5510   25.4071 He  0  0  0  0  0  0  0  0  0  0  0  0
    9.1570    1.4965   24.6110 He  0  0  0  0  0  0  0  0  0  0  0  0
  1  5  1  0
  1  6  1  0
  1  8  3  0
  1 10  4  0
  1 12  4  0
  2 13  4  0
  2 16  4  0
  2 20  1  0
  3  6  2  0
  3  7  4  0
  3  8  3  0
  3 15  1  0
  3 21  3  0
  4  6  4  0
  4  8  4  0
  4 10  1  0
  4 13  4  0
  4 20  2  0
  4 21  2  0
  5 13  2  0
  5 19  4  0
  5 23  4  0
  6  8  4  0
  6 22  4  0
  7  8  4  0
  7  9  2  0
  7 13  4  0
  7 19  2  0
  9 22  4  0
 10 13  3  0
 10 20  4  0
 10 21  2  0
 11 13  3  0
 11 17  2  0
 11 23  4  0
 12 15  4  0
 12 16  2  0
 12 17  4  0
 13 16  1  0
 13 23  3  0
 14 16  2  0
 15 16  4  0
 15 21  4  0
 15 23  1  0
 16 23  3  0
 17 20  4  0
 18 21  4  0
 18 23  4  0
 20 23  1  0
M  END
$$$$

 Created by Python create_sdf_string function

 26 32  0  0  0  0  0  0  0  0999 V2000
    9.7662   -2.2580   23.4875 C   0  0  0  0  0  0  0  0  0  0  0  0
    9.6162   -4.6677   16.4374 N   0  0  0  0  0  0  0  0  0  0  0  0
    9.8615   -4.5716   17.6772 C   0  0  0  0  0  0  0  0  0  0  0  0
    6.2652   -7.9272   17.9391 C   0  0  0  0  0  0  0  0  0  0  0  0
   10.9204   -3.0464   19.2288 C   0  0  0  0  0  0  0  0  0  0  0  0
    9.5980   -0.7528   24.2338 C   0  0  0  0  0  0  0  0  0  0  0  0
    7.5490   -7.6482   17.3214 N   0  0  0  0  0  0  0  0  0  0  0  0
    9.4216    0.2494   23.5294 O   0  0  0  0  0  0  0  0  0  0  0  0
    8.4599   -0.1243   26.0315 N   0  0  0  0  0  0  0  0  0  0  0  0
    9.9861   -2.0150   22.2833 N   0  0  0  0  0  0  0  0  0  0  0  0
   10.5049   -4.8797   20.0161 C   0  0  0  0  0  0  0  0  0  0  0  0
    7.0889   -8.7870   16.4284 N   0  0  0  0  0  0  0  0  0  0  0  0
    5.8895   -9.1323   16.9330 N   0  0  0  0  0  0  0  0  0  0  0  0
    8.2844   -6.7670   17.4871 C   0  0  0  0  0  0  0  0  0  0  0  0
    8.9617   -6.0261   16.5281 C   0  0  0  0  0  0  0  0  0  0  0  0
   10.6354   -3.8266   22.7942 O   0  0  0  0  0  0  0  0  0  0  0  0
    9.5773   -5.3153   19.1458 C   0  0  0  0  0  0  0  0  0  0  0  0
    8.9024    1.4035   24.3759 O   0  0  0  0  0  0  0  0  0  0  0  0
   10.8701   -3.5074   18.1672 C   0  0  0  0  0  0  0  0  0  0  0  0
   10.5713   -3.4563   21.8681 C   0  0  0  0  0  0  0  0  0  0  0  0
    8.9086   -6.4466   18.4459 C   0  0  0  0  0  0  0  0  0  0  0  0
    8.9573   -1.1372   25.1004 S   0  0  0  0  0  0  0  0  0  0  0  0
   10.7556   -3.8261   20.3975 C   0  0  0  0  0  0  0  0  0  0  0  0
    8.4637    1.3975   25.5456 He  0  0  0  0  0  0  0  0  0  0  0  0
    6.4480   -8.7226   16.8022 He  0  0  0  0  0  0  0  0  0  0  0  0
   10.0441   -3.2617   23.8988 He  0  0  0  0  0  0  0  0  0  0  0  0
  1  6  1  0
  1 10  4  0
  2  3  4  0
  2 15  4  0
  3 17  4  0
  3 19  4  0
  4  7  4  0
  4 14  1  0
  4 17  2  0
  5 19  4  0
  5 23  4  0
  6  8  4  0
  6  9  4  0
  6 22  4  0
  7 12  4  0
  7 14  1  0
  8 15  2  0
  8 18  4  0
  9 22  4  0
 10 20  4  0
 10 23  3  0
 11 17  4  0
 11 23  4  0
 12 13  1  0
 13 15  1  0
 14 15  1  0
 14 21  4  0
 15 16  3  0
 15 18  4  0
 16 20  4  0
 17 21  4  0
 20 23  1  0
M  END
$$$$

 Created by Python create_sdf_string function

 26 57  0  0  0  0  0  0  0  0999 V2000
    9.9648   -2.4386   23.3732 C   0  0  0  0  0  0  0  0  0  0  0  0
    9.5320   -4.7773   16.4026 N   0  0  0  0  0  0  0  0  0  0  0  0
   10.2882   -4.3973   17.7181 C   0  0  0  0  0  0  0  0  0  0  0  0
    8.1138    1.4481   25.7351 C   0  0  0  0  0  0  0  0  0  0  0  0
    6.4772   -7.9036   18.1226 C   0  0  0  0  0  0  0  0  0  0  0  0
    7.1013   -8.7660   16.6756 C   0  0  0  0  0  0  0  0  0  0  0  0
   11.0293   -3.0204   19.4829 C   0  0  0  0  0  0  0  0  0  0  0  0
    9.3345   -0.7870   24.4091 C   0  0  0  0  0  0  0  0  0  0  0  0
    7.1333   -7.7320   17.0433 N   0  0  0  0  0  0  0  0  0  0  0  0
    9.8911    0.0296   23.7780 C   0  0  0  0  0  0  0  0  0  0  0  0
    8.6045   -0.0966   25.8349 N   0  0  0  0  0  0  0  0  0  0  0  0
   10.1881   -2.0289   22.1577 N   0  0  0  0  0  0  0  0  0  0  0  0
   10.0788   -5.0033   20.2181 C   0  0  0  0  0  0  0  0  0  0  0  0
   10.3701   -3.3535   23.8470 N   0  0  0  0  0  0  0  0  0  0  0  0
    7.4121   -8.9835   15.8310 B   0  0  0  0  0  0  0  0  0  0  0  0
    5.3707   -8.7849   17.4805 N   0  0  0  0  0  0  0  0  0  0  0  0
    8.3956   -6.7537   17.5160 C   0  0  0  0  0  0  0  0  0  0  0  0
    8.9084   -5.9897   16.3675 C   0  0  0  0  0  0  0  0  0  0  0  0
    9.7803   -5.3820   18.7322 C   0  0  0  0  0  0  0  0  0  0  0  0
    8.9636    1.3339   24.4117 C   0  0  0  0  0  0  0  0  0  0  0  0
   10.6073   -3.3055   17.8268 C   0  0  0  0  0  0  0  0  0  0  0  0
   10.8059   -3.2796   21.9085 C   0  0  0  0  0  0  0  0  0  0  0  0
    8.8385   -6.4077   18.6514 C   0  0  0  0  0  0  0  0  0  0  0  0
    8.8455   -1.0062   25.4630 C   0  0  0  0  0  0  0  0  0  0  0  0
   10.3867   -3.9403   20.7065 C   0  0  0  0  0  0  0  0  0  0  0  0
   10.9615   -4.3323   22.9628 He  0  0  0  0  0  0  0  0  0  0  0  0
  1  4  1  0
  1  6  3  0
  1 12  4  0
  1 14  4  0
  1 15  3  0
  1 21  4  0
  2  3  4  0
  2  9  2  0
  2 20  2  0
  2 23  2  0
  2 24  2  0
  3 14  4  0
  3 19  4  0
  3 24  3  0
  4  6  2  0
  4 11  4  0
  4 16  3  0
  4 20  4  0
  5  9  4  0
  5 11  3  0
  5 13  2  0
  5 15  1  0
  5 16  4  0
  6  8  2  0
  6 11  1  0
  6 15  4  0
  6 16  4  0
  6 18  1  0
  7 21  4  0
  7 24  3  0
  7 25  4  0
  8 10  4  0
  8 24  4  0
  9 15  4  0
  9 17  1  0
  9 25  4  0
 10 16  1  0
 10 19  2  0
 10 20  4  0
 11 24  4  0
 12 22  4  0
 13 15  3  0
 13 19  4  0
 13 25  4  0
 14 18  2  0
 15 18  3  0
 15 20  4  0
 15 21  4  0
 15 23  4  0
 16 17  3  0
 16 23  4  0
 17 18  4  0
 17 23  4  0
 18 19  3  0
 18 20  4  0
 19 23  4  0
 22 25  1  0
M  END
$$$$

 Created by Python create_sdf_string function

 26 26  0  0  0  0  0  0  0  0999 V2000
   10.0033   -1.7490   23.5875 C   0  0  0  0  0  0  0  0  0  0  0  0
    9.5510   -4.7035   16.4386 N   0  0  0  0  0  0  0  0  0  0  0  0
    5.5732   -8.8484   16.1457 C   0  0  0  0  0  0  0  0  0  0  0  0
    9.4888   -0.8890   24.2516 C   0  0  0  0  0  0  0  0  0  0  0  0
    8.0361   -8.0106   17.0800 N   0  0  0  0  0  0  0  0  0  0  0  0
    9.7841    0.2659   23.6223 C   0  0  0  0  0  0  0  0  0  0  0  0
   10.0712   -2.4039   22.0343 N   0  0  0  0  0  0  0  0  0  0  0  0
    9.8862   -4.7460   20.0333 C   0  0  0  0  0  0  0  0  0  0  0  0
   10.0960   -3.4246   24.0283 N   0  0  0  0  0  0  0  0  0  0  0  0
    7.4610   -7.9934   16.4415 N   0  0  0  0  0  0  0  0  0  0  0  0
    5.2074   -9.0764   17.1809 N   0  0  0  0  0  0  0  0  0  0  0  0
    8.5873   -6.4971   17.4310 C   0  0  0  0  0  0  0  0  0  0  0  0
    9.2105   -6.5473   16.2744 C   0  0  0  0  0  0  0  0  0  0  0  0
   10.6076   -4.1109   22.7991 O   0  0  0  0  0  0  0  0  0  0  0  0
    9.8719   -5.4223   18.5616 C   0  0  0  0  0  0  0  0  0  0  0  0
    9.2748    1.4543   24.3206 C   0  0  0  0  0  0  0  0  0  0  0  0
   10.7495   -3.5138   18.0843 C   0  0  0  0  0  0  0  0  0  0  0  0
   10.5015   -3.7290   21.6889 C   0  0  0  0  0  0  0  0  0  0  0  0
    8.8589   -6.2623   18.6946 C   0  0  0  0  0  0  0  0  0  0  0  0
   10.6272   -3.5760   20.6897 C   0  0  0  0  0  0  0  0  0  0  0  0
   10.1138   -4.3558   17.7093 He  0  0  0  0  0  0  0  0  0  0  0  0
    8.5354    1.0782   25.5965 He  0  0  0  0  0  0  0  0  0  0  0  0
    6.4618   -8.1671   18.5003 He  0  0  0  0  0  0  0  0  0  0  0  0
   10.8840   -3.3227   19.3521 He  0  0  0  0  0  0  0  0  0  0  0  0
    8.3521   -0.1299   26.0031 He  0  0  0  0  0  0  0  0  0  0  0  0
    8.8428   -1.3711   25.4676 He  0  0  0  0  0  0  0  0  0  0  0  0
  1  4  1  0
  1  6  2  0
  1  7  4  0
  1  9  4  0
  2 13  4  0
  3  4  3  0
  3  5  2  0
  3 10  4  0
  3 11  4  0
  3 15  2  0
  4  6  4  0
  5 10  4  0
  5 12  1  0
  6  9  3  0
  6 16  4  0
  7 18  4  0
  8 20  4  0
  9 17  4  0
 11 15  3  0
 11 16  3  0
 12 13  3  0
 12 19  4  0
 14 18  4  0
 15 19  4  0
 16 20  1  0
 17 18  1  0
M  END
$$$$

 Created by Python create_sdf_string function

 26 36  0  0  0  0  0  0  0  0999 V2000
   10.0956   -2.2597   23.5434 S   0  0  0  0  0  0  0  0  0  0  0  0
    9.8122   -4.8143   16.3072 N   0  0  0  0  0  0  0  0  0  0  0  0
    9.9908   -4.6282   17.6576 C   0  0  0  0  0  0  0  0  0  0  0  0
    8.2600    0.9011   25.2508 N   0  0  0  0  0  0  0  0  0  0  0  0
    6.5600   -8.4136   17.8638 F   0  0  0  0  0  0  0  0  0  0  0  0
    5.8598   -8.9247   16.6791 C   0  0  0  0  0  0  0  0  0  0  0  0
   10.8971   -3.0782   19.5145 F   0  0  0  0  0  0  0  0  0  0  0  0
    9.4419   -1.2000   24.3000 C   0  0  0  0  0  0  0  0  0  0  0  0
    7.7601   -7.0141   16.5005 N   0  0  0  0  0  0  0  0  0  0  0  0
    9.4840    0.4026   23.8308 C   0  0  0  0  0  0  0  0  0  0  0  0
    8.2380    0.0887   26.0117 C   0  0  0  0  0  0  0  0  0  0  0  0
   10.0079   -5.0526   20.0600 C   0  0  0  0  0  0  0  0  0  0  0  0
   10.4954   -3.2526   23.8897 N   0  0  0  0  0  0  0  0  0  0  0  0
    7.0870   -7.9212   15.9773 N   0  0  0  0  0  0  0  0  0  0  0  0
    5.1721   -8.7118   18.1397 N   0  0  0  0  0  0  0  0  0  0  0  0
    8.3105   -6.8734   17.3864 C   0  0  0  0  0  0  0  0  0  0  0  0
    9.0880   -6.1639   16.1754 C   0  0  0  0  0  0  0  0  0  0  0  0
   10.5186   -4.2906   22.5874 O   0  0  0  0  0  0  0  0  0  0  0  0
    9.2338    1.4240   24.6944 C   0  0  0  0  0  0  0  0  0  0  0  0
   10.7966   -3.3044   18.0466 C   0  0  0  0  0  0  0  0  0  0  0  0
   10.4493   -3.4803   22.0403 C   0  0  0  0  0  0  0  0  0  0  0  0
    8.8406   -6.5371   18.8227 C   0  0  0  0  0  0  0  0  0  0  0  0
    8.9842   -1.3283   25.4175 C   0  0  0  0  0  0  0  0  0  0  0  0
   10.6751   -3.6077   20.8348 C   0  0  0  0  0  0  0  0  0  0  0  0
   10.2801   -2.4434   22.2387 He  0  0  0  0  0  0  0  0  0  0  0  0
    9.7566   -5.2747   19.3027 He  0  0  0  0  0  0  0  0  0  0  0  0
  1  8  1  0
  1 13  4  0
  1 15  3  0
  2  3  4  0
  2 14  3  0
  3 20  4  0
  4 11  4  0
  4 19  4  0
  5  9  3  0
  5 11  2  0
  5 15  4  0
  5 16  2  0
  6 10  3  0
  6 13  2  0
  6 14  4  0
  6 22  2  0
  7  8  2  0
  7 24  4  0
  8  9  4  0
  8 10  4  0
  8 23  4  0
  9 16  1  0
 10 19  4  0
 11 12  2  0
 11 22  3  0
 11 23  4  0
 12 15  2  0
 12 24  4  0
 13 18  4  0
 15 18  2  0
 16 17  4  0
 16 22  4  0
 17 22  3  0
 18 21  4  0
 21 23  1  0
 22 24  2  0
M  END
$$$$

 Created by Python create_sdf_string function

 26 48  0  0  0  0  0  0  0  0999 V2000
   10.0311   -1.9664   23.7148 C   0  0  0  0  0  0  0  0  0  0  0  0
    9.8226   -4.7280   16.3530 N   0  0  0  0  0  0  0  0  0  0  0  0
   10.2775   -4.4473   17.9603 C   0  0  0  0  0  0  0  0  0  0  0  0
    8.4846    1.1886   25.6826 N   0  0  0  0  0  0  0  0  0  0  0  0
    7.1000   -7.9417   17.7716 P   0  0  0  0  0  0  0  0  0  0  0  0
    5.8066   -8.8062   15.8257 N   0  0  0  0  0  0  0  0  0  0  0  0
   10.8451   -3.0663   19.5360 C   0  0  0  0  0  0  0  0  0  0  0  0
    9.4953   -0.9192   24.2474 C   0  0  0  0  0  0  0  0  0  0  0  0
    6.7407   -7.7243   17.5769 N   0  0  0  0  0  0  0  0  0  0  0  0
    9.7691    0.2971   23.6831 C   0  0  0  0  0  0  0  0  0  0  0  0
    8.2335   -0.2445   26.2465 C   0  0  0  0  0  0  0  0  0  0  0  0
   10.2589   -2.1137   22.4264 N   0  0  0  0  0  0  0  0  0  0  0  0
    9.9772   -4.9406   20.1327 C   0  0  0  0  0  0  0  0  0  0  0  0
   10.2566   -3.2164   24.2993 N   0  0  0  0  0  0  0  0  0  0  0  0
    6.7725   -7.5190   16.1811 N   0  0  0  0  0  0  0  0  0  0  0  0
    5.5699   -8.4010   17.4699 N   0  0  0  0  0  0  0  0  0  0  0  0
    8.5570   -6.7174   17.4712 C   0  0  0  0  0  0  0  0  0  0  0  0
    8.7157   -6.2487   16.2352 C   0  0  0  0  0  0  0  0  0  0  0  0
   10.6355   -4.0272   22.9465 O   0  0  0  0  0  0  0  0  0  0  0  0
    9.1302    1.4272   24.5520 C   0  0  0  0  0  0  0  0  0  0  0  0
   10.7576   -3.3115   18.1407 C   0  0  0  0  0  0  0  0  0  0  0  0
   10.5553   -3.3167   21.8658 C   0  0  0  0  0  0  0  0  0  0  0  0
    8.8257   -6.3100   18.6172 C   0  0  0  0  0  0  0  0  0  0  0  0
    8.8060   -1.0915   25.4694 C   0  0  0  0  0  0  0  0  0  0  0  0
   10.5526   -3.8981   20.2659 C   0  0  0  0  0  0  0  0  0  0  0  0
    9.7807   -5.4343   18.5265 He  0  0  0  0  0  0  0  0  0  0  0  0
  1  6  1  0
  1  8  1  0
  1  9  4  0
  1 12  4  0
  1 13  1  0
  1 14  4  0
  1 22  4  0
  2  3  4  0
  2  7  4  0
  2 18  4  0
  2 25  1  0
  3 16  3  0
  3 21  4  0
  4 11  4  0
  4 20  4  0
  5  8  4  0
  5  9  4  0
  5 10  2  0
  5 16  4  0
  5 20  2  0
  6  8  2  0
  6 16  4  0
  6 20  3  0
  7  9  4  0
  7 16  3  0
  7 21  4  0
  7 24  3  0
  7 25  4  0
  8 10  4  0
  8 24  4  0
  9 15  4  0
  9 17  1  0
  9 19  1  0
  9 21  2  0
 10 15  4  0
 10 20  4  0
 11 24  4  0
 12 22  4  0
 13 15  1  0
 13 25  4  0
 14 15  4  0
 14 19  4  0
 15 22  1  0
 17 18  4  0
 17 23  4  0
 19 22  4  0
 19 23  3  0
 22 25  1  0
M  END
$$$$

 Created by Python create_sdf_string function

 26 32  0  0  0  0  0  0  0  0999 V2000
    9.9937   -2.1239   23.5414 C   0  0  0  0  0  0  0  0  0  0  0  0
    9.8074   -4.7345   16.6217 N   0  0  0  0  0  0  0  0  0  0  0  0
   10.0964   -4.5748   17.6436 C   0  0  0  0  0  0  0  0  0  0  0  0
    8.5112    1.3255   25.5574 N   0  0  0  0  0  0  0  0  0  0  0  0
   11.0650   -2.9287   19.5232 C   0  0  0  0  0  0  0  0  0  0  0  0
    9.5227   -0.7071   24.4744 C   0  0  0  0  0  0  0  0  0  0  0  0
    7.5105   -7.5880   17.3852 N   0  0  0  0  0  0  0  0  0  0  0  0
    9.7658    0.2998   23.8408 C   0  0  0  0  0  0  0  0  0  0  0  0
   10.1497   -2.0009   22.2308 N   0  0  0  0  0  0  0  0  0  0  0  0
    9.9796   -5.0235   19.9589 C   0  0  0  0  0  0  0  0  0  0  0  0
   10.0669   -3.0206   24.1055 N   0  0  0  0  0  0  0  0  0  0  0  0
    6.8937   -7.5315   15.9509 Br  0  0  0  0  0  0  0  0  0  0  0  0
    5.7680   -8.6101   17.0610 N   0  0  0  0  0  0  0  0  0  0  0  0
    8.3560   -6.6300   17.3573 C   0  0  0  0  0  0  0  0  0  0  0  0
   10.5063   -4.1373   23.0254 O   0  0  0  0  0  0  0  0  0  0  0  0
    9.6405   -5.4441   18.8671 C   0  0  0  0  0  0  0  0  0  0  0  0
    9.0438    1.2789   24.4966 C   0  0  0  0  0  0  0  0  0  0  0  0
   10.8047   -3.5120   18.0723 C   0  0  0  0  0  0  0  0  0  0  0  0
   10.5551   -3.2364   21.6477 C   0  0  0  0  0  0  0  0  0  0  0  0
    8.8377   -6.4037   18.4583 C   0  0  0  0  0  0  0  0  0  0  0  0
    8.9230   -1.1264   25.6006 C   0  0  0  0  0  0  0  0  0  0  0  0
   10.6476   -3.6693   20.5470 C   0  0  0  0  0  0  0  0  0  0  0  0
    6.8657   -7.9016   17.6625 He  0  0  0  0  0  0  0  0  0  0  0  0
    5.5789   -8.3944   16.4147 He  0  0  0  0  0  0  0  0  0  0  0  0
    8.0954   -0.1752   26.0603 He  0  0  0  0  0  0  0  0  0  0  0  0
    8.4762   -5.5374   16.3284 He  0  0  0  0  0  0  0  0  0  0  0  0
  1  5  3  0
  1  6  1  0
  1  9  4  0
  1 11  4  0
  1 14  3  0
  2  3  4  0
  2 12  1  0
  2 13  2  0
  3 16  4  0
  3 18  4  0
  4 17  4  0
  4 22  1  0
  5  9  1  0
  5 18  4  0
  5 22  4  0
  6  8  4  0
  6 21  4  0
  7 12  4  0
  7 14  1  0
  8 11  4  0
  8 17  4  0
  9 10  1  0
  9 19  4  0
 10 16  4  0
 10 22  4  0
 11 15  4  0
 14 20  4  0
 15 19  4  0
 15 21  1  0
 16 17  4  0
 16 20  4  0
 19 22  1  0
M  END
$$$$

 Created by Python create_sdf_string function

 26 54  0  0  0  0  0  0  0  0999 V2000
   10.0337   -1.9228   23.6223 C   0  0  0  0  0  0  0  0  0  0  0  0
    9.6514   -5.0199   16.6300 N   0  0  0  0  0  0  0  0  0  0  0  0
   10.0493   -4.3130   17.6094 C   0  0  0  0  0  0  0  0  0  0  0  0
    8.3151    1.0989   25.6450 N   0  0  0  0  0  0  0  0  0  0  0  0
    6.3110   -7.7722   17.6854 C   0  0  0  0  0  0  0  0  0  0  0  0
    5.6607   -8.5635   16.1488 C   0  0  0  0  0  0  0  0  0  0  0  0
   11.0564   -3.0124   19.4142 C   0  0  0  0  0  0  0  0  0  0  0  0
    9.4462   -0.7976   24.3281 C   0  0  0  0  0  0  0  0  0  0  0  0
    7.4859   -7.1463   16.7804 N   0  0  0  0  0  0  0  0  0  0  0  0
    9.8284    0.3837   23.7498 C   0  0  0  0  0  0  0  0  0  0  0  0
    8.2784    0.1013   26.0680 C   0  0  0  0  0  0  0  0  0  0  0  0
   10.1806   -2.0308   22.0298 N   0  0  0  0  0  0  0  0  0  0  0  0
   10.1243   -5.0325   20.1167 C   0  0  0  0  0  0  0  0  0  0  0  0
   10.1658   -3.3904   24.1515 C   0  0  0  0  0  0  0  0  0  0  0  0
    7.0152   -7.9592   15.8548 N   0  0  0  0  0  0  0  0  0  0  0  0
    5.6823   -8.4575   17.3624 N   0  0  0  0  0  0  0  0  0  0  0  0
    8.3227   -6.6878   17.1060 C   0  0  0  0  0  0  0  0  0  0  0  0
    9.1089   -5.5009   16.5584 C   0  0  0  0  0  0  0  0  0  0  0  0
   10.4346   -3.9497   22.8596 O   0  0  0  0  0  0  0  0  0  0  0  0
    9.9058   -5.1464   18.9312 C   0  0  0  0  0  0  0  0  0  0  0  0
    8.9674    1.3858   24.5346 C   0  0  0  0  0  0  0  0  0  0  0  0
   10.8109   -3.4288   18.1247 B   0  0  0  0  0  0  0  0  0  0  0  0
   10.3741   -3.4097   21.9815 C   0  0  0  0  0  0  0  0  0  0  0  0
    9.0391   -6.3781   18.7303 C   0  0  0  0  0  0  0  0  0  0  0  0
    8.7777   -1.4079   25.4898 C   0  0  0  0  0  0  0  0  0  0  0  0
   10.3423   -3.8339   20.4701 C   0  0  0  0  0  0  0  0  0  0  0  0
  1  8  1  0
  1 12  4  0
  1 14  4  0
  2  3  4  0
  2 18  4  0
  2 24  2  0
  3 16  4  0
  3 20  4  0
  3 22  4  0
  4 11  4  0
  4 17  2  0
  4 21  4  0
  5  9  4  0
  5 11  3  0
  5 12  1  0
  5 22  2  0
  6  9  3  0
  6 13  3  0
  6 15  4  0
  6 16  4  0
  7  9  3  0
  7 22  4  0
  7 24  1  0
  7 26  4  0
  8 10  4  0
  8 25  4  0
  9 10  4  0
  9 11  3  0
  9 15  1  0
  9 17  1  0
  9 20  4  0
  9 23  1  0
  9 26  4  0
 10 21  4  0
 11 23  1  0
 11 25  4  0
 12 14  4  0
 12 23  4  0
 12 26  1  0
 13 20  4  0
 13 23  4  0
 13 26  4  0
 14 15  4  0
 14 18  1  0
 14 19  4  0
 15 21  1  0
 15 23  1  0
 15 26  2  0
 17 18  4  0
 17 24  4  0
 19 23  4  0
 20 24  4  0
 23 25  3  0
 23 26  1  0
M  END
$$$$

 Created by Python create_sdf_string function

 26 47  0  0  0  0  0  0  0  0999 V2000
    9.6653   -2.1239   23.3683 C   0  0  0  0  0  0  0  0  0  0  0  0
    9.9510   -4.7676   16.3420 N   0  0  0  0  0  0  0  0  0  0  0  0
    8.3741    1.1542   25.5302 N   0  0  0  0  0  0  0  0  0  0  0  0
    6.5828   -7.4624   17.6153 C   0  0  0  0  0  0  0  0  0  0  0  0
    5.9621   -8.7398   15.8245 C   0  0  0  0  0  0  0  0  0  0  0  0
   11.0603   -2.9509   19.3336 C   0  0  0  0  0  0  0  0  0  0  0  0
    9.5993   -1.0377   24.4603 C   0  0  0  0  0  0  0  0  0  0  0  0
    7.3061   -7.1403   17.1108 S   0  0  0  0  0  0  0  0  0  0  0  0
    9.6470    0.2250   23.7849 C   0  0  0  0  0  0  0  0  0  0  0  0
    8.4723   -0.1455   26.0524 C   0  0  0  0  0  0  0  0  0  0  0  0
   10.1608   -1.9764   22.3726 N   0  0  0  0  0  0  0  0  0  0  0  0
   10.1391   -4.7761   20.0555 C   0  0  0  0  0  0  0  0  0  0  0  0
    9.8726   -3.3866   23.9684 N   0  0  0  0  0  0  0  0  0  0  0  0
    7.2002   -8.2916   15.9436 N   0  0  0  0  0  0  0  0  0  0  0  0
    5.8331   -8.4104   17.4513 N   0  0  0  0  0  0  0  0  0  0  0  0
    8.5399   -6.2178   17.2062 C   0  0  0  0  0  0  0  0  0  0  0  0
    9.3093   -5.2999   16.7895 C   0  0  0  0  0  0  0  0  0  0  0  0
   10.2485   -3.9318   22.9368 O   0  0  0  0  0  0  0  0  0  0  0  0
    9.6494   -5.5160   18.8518 C   0  0  0  0  0  0  0  0  0  0  0  0
    9.0364    1.5016   24.5680 C   0  0  0  0  0  0  0  0  0  0  0  0
   10.9694   -3.2203   17.9586 N   0  0  0  0  0  0  0  0  0  0  0  0
   10.3412   -3.3060   21.8863 C   0  0  0  0  0  0  0  0  0  0  0  0
    8.6643   -6.2427   18.5013 P   0  0  0  0  0  0  0  0  0  0  0  0
    8.6988   -1.3399   25.5672 C   0  0  0  0  0  0  0  0  0  0  0  0
   10.5096   -3.6095   20.4489 C   0  0  0  0  0  0  0  0  0  0  0  0
   10.0772   -4.4962   17.8506 He  0  0  0  0  0  0  0  0  0  0  0  0
  1  7  1  0
  1 11  4  0
  1 13  4  0
  1 14  3  0
  2 15  1  0
  2 17  4  0
  3 10  3  0
  3 20  4  0
  4  8  4  0
  4 15  4  0
  5  9  4  0
  5 15  4  0
  5 19  1  0
  6 15  2  0
  6 21  4  0
  6 23  4  0
  6 25  3  0
  7  9  4  0
  7 13  1  0
  7 15  2  0
  7 24  4  0
  7 25  1  0
  8 14  2  0
  8 16  1  0
  8 25  2  0
  9 20  4  0
 10 12  3  0
 10 24  4  0
 11 14  3  0
 11 22  4  0
 12 18  4  0
 12 19  4  0
 12 25  4  0
 13 18  4  0
 14 17  4  0
 14 25  3  0
 15 18  3  0
 15 21  1  0
 15 24  4  0
 16 17  4  0
 16 21  4  0
 16 23  4  0
 17 22  1  0
 18 22  4  0
 19 23  4  0
 22 25  1  0
 23 25  3  0
M  END
$$$$

 Created by Python create_sdf_string function

 26 32  0  0  0  0  0  0  0  0999 V2000
    9.8576   -2.0963   23.4466 C   0  0  0  0  0  0  0  0  0  0  0  0
   10.1916   -4.2446   17.7423 C   0  0  0  0  0  0  0  0  0  0  0  0
    8.4028    1.0266   25.8636 N   0  0  0  0  0  0  0  0  0  0  0  0
    6.3546   -7.6961   17.6654 C   0  0  0  0  0  0  0  0  0  0  0  0
    6.0393   -8.9865   15.8516 C   0  0  0  0  0  0  0  0  0  0  0  0
   11.0043   -2.6477   19.3410 C   0  0  0  0  0  0  0  0  0  0  0  0
    9.4721   -0.9876   24.4795 C   0  0  0  0  0  0  0  0  0  0  0  0
    7.2592   -7.4876   16.8295 C   0  0  0  0  0  0  0  0  0  0  0  0
    9.8099    0.3588   23.6877 C   0  0  0  0  0  0  0  0  0  0  0  0
    8.1851    0.1036   26.2558 C   0  0  0  0  0  0  0  0  0  0  0  0
   10.3006   -2.1385   22.1648 N   0  0  0  0  0  0  0  0  0  0  0  0
   10.0671   -4.7651   20.2207 O   0  0  0  0  0  0  0  0  0  0  0  0
    9.8293   -3.4236   24.1640 N   0  0  0  0  0  0  0  0  0  0  0  0
    7.0947   -8.0850   15.6751 N   0  0  0  0  0  0  0  0  0  0  0  0
    5.4683   -8.6808   17.2243 N   0  0  0  0  0  0  0  0  0  0  0  0
    9.1630   -5.2873   16.1301 C   0  0  0  0  0  0  0  0  0  0  0  0
   10.2022   -4.0769   22.7611 P   0  0  0  0  0  0  0  0  0  0  0  0
    9.6737   -5.1576   18.7914 C   0  0  0  0  0  0  0  0  0  0  0  0
    9.0680    1.3882   24.6233 C   0  0  0  0  0  0  0  0  0  0  0  0
   11.0354   -3.3332   17.9870 N   0  0  0  0  0  0  0  0  0  0  0  0
   10.4307   -3.2723   21.9130 C   0  0  0  0  0  0  0  0  0  0  0  0
    8.8471   -6.2200   18.5077 N   0  0  0  0  0  0  0  0  0  0  0  0
    8.7155   -1.1036   25.6319 C   0  0  0  0  0  0  0  0  0  0  0  0
   10.5176   -3.7225   20.3808 C   0  0  0  0  0  0  0  0  0  0  0  0
    9.8258   -4.5054   16.3976 He  0  0  0  0  0  0  0  0  0  0  0  0
    8.3320   -6.2829   17.2632 He  0  0  0  0  0  0  0  0  0  0  0  0
  1 11  4  0
  1 13  4  0
  2  5  4  0
  2 18  4  0
  2 20  4  0
  3 10  4  0
  3 19  4  0
  4  7  1  0
  4  8  4  0
  4 15  4  0
  4 18  1  0
  4 23  4  0
  5 10  3  0
  5 14  4  0
  5 15  4  0
  6  8  1  0
  6 20  1  0
  6 24  4  0
  7  9  4  0
  7 16  4  0
  8 14  4  0
  9 19  4  0
  9 23  1  0
 10 23  4  0
 11 21  4  0
 12 18  4  0
 12 21  4  0
 12 24  4  0
 13 17  1  0
 17 21  4  0
 18 22  4  0
 21 24  1  0
M  END
$$$$

 Created by Python create_sdf_string function

 26 44  0  0  0  0  0  0  0  0999 V2000
   10.0515   -4.7404   16.4118 C   0  0  0  0  0  0  0  0  0  0  0  0
   10.1428   -4.3917   18.0021 C   0  0  0  0  0  0  0  0  0  0  0  0
    8.4952    1.1020   25.6470 N   0  0  0  0  0  0  0  0  0  0  0  0
    6.5443   -7.5813   18.0770 C   0  0  0  0  0  0  0  0  0  0  0  0
    5.9063   -8.9356   16.1120 O   0  0  0  0  0  0  0  0  0  0  0  0
   10.9693   -2.9196   19.4764 C   0  0  0  0  0  0  0  0  0  0  0  0
    9.3948   -0.6502   24.1330 C   0  0  0  0  0  0  0  0  0  0  0  0
    7.1863   -7.3834   16.7950 C   0  0  0  0  0  0  0  0  0  0  0  0
    9.6593    0.5383   23.9053 C   0  0  0  0  0  0  0  0  0  0  0  0
    8.4048    0.1451   26.2605 C   0  0  0  0  0  0  0  0  0  0  0  0
   10.1014   -2.0434   22.3759 N   0  0  0  0  0  0  0  0  0  0  0  0
    9.8600   -4.7716   20.1822 C   0  0  0  0  0  0  0  0  0  0  0  0
    9.8323   -3.1577   23.8644 N   0  0  0  0  0  0  0  0  0  0  0  0
    7.1721   -7.9025   15.8496 N   0  0  0  0  0  0  0  0  0  0  0  0
    5.6683   -8.6504   17.3793 N   0  0  0  0  0  0  0  0  0  0  0  0
    8.4163   -6.2088   17.1866 N   0  0  0  0  0  0  0  0  0  0  0  0
    9.0419   -5.7037   16.0996 C   0  0  0  0  0  0  0  0  0  0  0  0
   10.4982   -3.9940   22.8080 O   0  0  0  0  0  0  0  0  0  0  0  0
    9.7077   -5.1768   18.8632 C   0  0  0  0  0  0  0  0  0  0  0  0
    9.0721    1.2888   24.4281 C   0  0  0  0  0  0  0  0  0  0  0  0
   10.8991   -3.3059   18.0370 N   0  0  0  0  0  0  0  0  0  0  0  0
   10.3056   -3.2055   21.7575 C   0  0  0  0  0  0  0  0  0  0  0  0
    8.7626   -6.1840   18.4147 C   0  0  0  0  0  0  0  0  0  0  0  0
    8.5901   -1.3537   25.6619 C   0  0  0  0  0  0  0  0  0  0  0  0
   10.4547   -3.7769   20.3530 C   0  0  0  0  0  0  0  0  0  0  0  0
    9.7043   -2.2473   23.7522 He  0  0  0  0  0  0  0  0  0  0  0  0
  1  2  4  0
  1 11  4  0
  1 17  4  0
  2 10  2  0
  2 13  3  0
  2 14  2  0
  2 19  4  0
  2 21  4  0
  2 23  1  0
  3 14  4  0
  3 20  4  0
  4  8  4  0
  5  6  2  0
  5 14  4  0
  5 15  4  0
  6 21  4  0
  7  9  4  0
  7 20  1  0
  7 24  4  0
  8 12  4  0
  8 14  4  0
  8 15  2  0
  8 19  2  0
  9 20  4  0
 10 20  3  0
 10 24  4  0
 11 22  4  0
 12 19  4  0
 12 24  1  0
 12 25  4  0
 13 18  4  0
 13 23  3  0
 16 17  4  0
 16 21  1  0
 16 22  2  0
 16 23  4  0
 17 18  4  0
 18 21  4  0
 18 22  4  0
 19 21  1  0
 19 23  4  0
 19 24  4  0
 21 23  4  0
 22 25  1  0
M  END
$$$$

 Created by Python create_sdf_string function

 26 42  0  0  0  0  0  0  0  0999 V2000
    9.8010   -1.9420   23.4273 C   0  0  0  0  0  0  0  0  0  0  0  0
   10.1353   -4.7544   16.4624 C   0  0  0  0  0  0  0  0  0  0  0  0
   10.1767   -4.3668   17.8168 C   0  0  0  0  0  0  0  0  0  0  0  0
    8.5105    1.3126   25.7078 N   0  0  0  0  0  0  0  0  0  0  0  0
    6.3815   -7.6667   17.7209 F   0  0  0  0  0  0  0  0  0  0  0  0
    5.9651   -8.6489   16.2265 P   0  0  0  0  0  0  0  0  0  0  0  0
   10.9047   -3.0221   19.3710 C   0  0  0  0  0  0  0  0  0  0  0  0
    9.4768   -0.9443   24.4428 C   0  0  0  0  0  0  0  0  0  0  0  0
    7.1844   -7.0572   17.1832 C   0  0  0  0  0  0  0  0  0  0  0  0
    9.3401    0.3586   23.7684 C   0  0  0  0  0  0  0  0  0  0  0  0
    8.4415   -0.0329   26.5109 C   0  0  0  0  0  0  0  0  0  0  0  0
   10.1117   -2.0749   22.1459 N   0  0  0  0  0  0  0  0  0  0  0  0
    9.9234   -4.9602   20.1791 C   0  0  0  0  0  0  0  0  0  0  0  0
    9.8481   -3.1891   24.1572 N   0  0  0  0  0  0  0  0  0  0  0  0
    6.9561   -7.7205   15.6559 N   0  0  0  0  0  0  0  0  0  0  0  0
    8.3891   -6.3051   17.3656 C   0  0  0  0  0  0  0  0  0  0  0  0
    8.9326   -5.9193   15.9420 C   0  0  0  0  0  0  0  0  0  0  0  0
   10.1391   -4.2099   22.7861 O   0  0  0  0  0  0  0  0  0  0  0  0
    9.7199   -5.0059   18.8714 C   0  0  0  0  0  0  0  0  0  0  0  0
    9.0260    1.4362   24.6911 C   0  0  0  0  0  0  0  0  0  0  0  0
   10.7897   -3.1924   18.0971 N   0  0  0  0  0  0  0  0  0  0  0  0
    8.7748   -6.1149   18.4761 C   0  0  0  0  0  0  0  0  0  0  0  0
    8.7359   -1.1128   25.5852 C   0  0  0  0  0  0  0  0  0  0  0  0
   10.3881   -3.8471   20.2861 C   0  0  0  0  0  0  0  0  0  0  0  0
    5.6651   -8.6317   17.4849 He  0  0  0  0  0  0  0  0  0  0  0  0
   10.5096   -3.2564   21.9174 He  0  0  0  0  0  0  0  0  0  0  0  0
  1  8  1  0
  1  9  2  0
  1 12  4  0
  1 14  4  0
  2  3  3  0
  2 12  4  0
  2 17  4  0
  2 18  2  0
  3  9  4  0
  3 10  4  0
  3 19  4  0
  3 21  4  0
  4  6  1  0
  4 11  4  0
  4 13  2  0
  4 17  2  0
  4 20  4  0
  5  9  4  0
  6 15  4  0
  6 24  1  0
  7 21  4  0
  7 24  4  0
  8 10  4  0
  8 23  4  0
  9 15  4  0
  9 16  1  0
  9 17  1  0
  9 22  2  0
 10 20  4  0
 10 22  1  0
 11 23  4  0
 13 19  4  0
 13 22  2  0
 13 24  4  0
 14 18  4  0
 15 23  4  0
 16 17  4  0
 16 19  3  0
 16 22  4  0
 18 23  3  0
 19 22  4  0
 23 24  2  0
M  END
$$$$

 Created by Python create_sdf_string function

 26 39  0  0  0  0  0  0  0  0999 V2000
    9.9514   -4.6042   16.4278 C   0  0  0  0  0  0  0  0  0  0  0  0
   10.2343   -4.5025   17.7122 C   0  0  0  0  0  0  0  0  0  0  0  0
    8.5865    1.3780   25.8966 N   0  0  0  0  0  0  0  0  0  0  0  0
    6.5938   -7.9751   18.1885 N   0  0  0  0  0  0  0  0  0  0  0  0
    5.7790   -8.3628   15.8903 C   0  0  0  0  0  0  0  0  0  0  0  0
   11.0058   -2.8666   19.6509 C   0  0  0  0  0  0  0  0  0  0  0  0
    9.4531   -0.8681   24.2546 C   0  0  0  0  0  0  0  0  0  0  0  0
    7.3507   -7.1585   16.7820 C   0  0  0  0  0  0  0  0  0  0  0  0
    9.5086    0.3775   23.7132 C   0  0  0  0  0  0  0  0  0  0  0  0
    8.4222    0.1020   26.2972 C   0  0  0  0  0  0  0  0  0  0  0  0
   10.1817   -2.0121   22.3536 N   0  0  0  0  0  0  0  0  0  0  0  0
    9.9812   -4.8988   20.1652 C   0  0  0  0  0  0  0  0  0  0  0  0
    9.7738   -3.0984   24.0837 N   0  0  0  0  0  0  0  0  0  0  0  0
    7.1538   -7.3752   15.6770 N   0  0  0  0  0  0  0  0  0  0  0  0
    5.6252   -8.4484   17.4367 N   0  0  0  0  0  0  0  0  0  0  0  0
    8.3238   -6.2633   16.9398 C   0  0  0  0  0  0  0  0  0  0  0  0
    9.0040   -5.9024   16.2146 C   0  0  0  0  0  0  0  0  0  0  0  0
    9.5597   -5.2545   18.8416 C   0  0  0  0  0  0  0  0  0  0  0  0
    8.9634    1.5847   24.5167 C   0  0  0  0  0  0  0  0  0  0  0  0
   10.8695   -3.4587   18.2847 N   0  0  0  0  0  0  0  0  0  0  0  0
   10.5571   -3.1373   21.7415 C   0  0  0  0  0  0  0  0  0  0  0  0
    8.8502   -6.1475   18.5869 C   0  0  0  0  0  0  0  0  0  0  0  0
    8.9650   -1.1821   25.6929 C   0  0  0  0  0  0  0  0  0  0  0  0
   10.6383   -3.7375   20.6049 C   0  0  0  0  0  0  0  0  0  0  0  0
    9.7317   -2.1039   23.6922 He  0  0  0  0  0  0  0  0  0  0  0  0
   10.1622   -4.1149   22.7090 He  0  0  0  0  0  0  0  0  0  0  0  0
  1  2  4  0
  1  5  1  0
  1 17  4  0
  2 13  2  0
  2 18  4  0
  2 20  4  0
  3 10  4  0
  3 11  3  0
  3 19  4  0
  3 24  2  0
  4  8  4  0
  4 15  4  0
  4 23  2  0
  5 14  4  0
  5 15  4  0
  5 16  2  0
  6 13  1  0
  6 20  4  0
  6 24  4  0
  7  9  4  0
  7 23  3  0
  8 20  4  0
  8 21  1  0
  9 10  3  0
  9 19  4  0
 10 23  4  0
 11 21  4  0
 12 18  4  0
 12 24  4  0
 13 15  3  0
 14 16  3  0
 14 18  1  0
 15 24  3  0
 16 17  4  0
 16 22  4  0
 17 18  4  0
 18 19  3  0
 18 22  4  0
 21 24  1  0
M  END
$$$$

 Created by Python create_sdf_string function

 26 40  0  0  0  0  0  0  0  0999 V2000
   10.0057   -4.3536   17.8687 C   0  0  0  0  0  0  0  0  0  0  0  0
    8.2418    1.3986   25.7318 N   0  0  0  0  0  0  0  0  0  0  0  0
    6.4685   -7.4845   17.9513 N   0  0  0  0  0  0  0  0  0  0  0  0
    5.7761   -8.5104   16.0667 C   0  0  0  0  0  0  0  0  0  0  0  0
   10.9679   -2.9368   19.5055 C   0  0  0  0  0  0  0  0  0  0  0  0
    9.4124   -0.8065   24.4646 C   0  0  0  0  0  0  0  0  0  0  0  0
    7.2967   -7.3419   16.9919 C   0  0  0  0  0  0  0  0  0  0  0  0
    9.5668    0.5180   23.7517 C   0  0  0  0  0  0  0  0  0  0  0  0
    8.5776    0.0708   26.4404 P   0  0  0  0  0  0  0  0  0  0  0  0
   10.3324   -2.0294   22.3412 N   0  0  0  0  0  0  0  0  0  0  0  0
    9.9892   -4.9036   20.1052 C   0  0  0  0  0  0  0  0  0  0  0  0
    9.8239   -3.3508   24.0850 N   0  0  0  0  0  0  0  0  0  0  0  0
    6.9235   -7.5115   15.6273 N   0  0  0  0  0  0  0  0  0  0  0  0
    5.8104   -8.3376   17.3858 N   0  0  0  0  0  0  0  0  0  0  0  0
    8.3569   -6.4494   17.3777 C   0  0  0  0  0  0  0  0  0  0  0  0
    9.3393   -5.4145   16.1133 C   0  0  0  0  0  0  0  0  0  0  0  0
   10.2752   -4.0975   22.8947 O   0  0  0  0  0  0  0  0  0  0  0  0
    9.7766   -4.9416   18.9737 C   0  0  0  0  0  0  0  0  0  0  0  0
    9.1398    1.6370   24.5744 C   0  0  0  0  0  0  0  0  0  0  0  0
   10.8297   -3.5344   18.3598 N   0  0  0  0  0  0  0  0  0  0  0  0
   10.2701   -3.3019   21.8640 C   0  0  0  0  0  0  0  0  0  0  0  0
    8.8190   -6.2922   18.5505 C   0  0  0  0  0  0  0  0  0  0  0  0
    8.8289   -0.9355   25.7050 C   0  0  0  0  0  0  0  0  0  0  0  0
   10.4723   -3.7584   20.5878 C   0  0  0  0  0  0  0  0  0  0  0  0
    9.8863   -2.1615   23.6075 He  0  0  0  0  0  0  0  0  0  0  0  0
    9.9870   -4.8510   16.5389 He  0  0  0  0  0  0  0  0  0  0  0  0
  1 18  4  0
  1 20  4  0
  2  9  4  0
  2 10  2  0
  2 19  4  0
  3  4  2  0
  3  7  4  0
  3 14  4  0
  3 20  4  0
  3 23  2  0
  4 10  2  0
  4 13  4  0
  4 14  4  0
  4 21  2  0
  5  7  3  0
  5 20  4  0
  5 24  4  0
  6  8  4  0
  7 13  4  0
  7 14  2  0
  7 15  1  0
  7 16  1  0
  8 19  4  0
  8 22  4  0
  9 10  3  0
  9 14  1  0
  9 23  4  0
 10 21  4  0
 11 16  2  0
 11 18  4  0
 11 24  4  0
 12 14  4  0
 12 17  4  0
 14 17  4  0
 15 16  3  0
 15 22  4  0
 15 24  3  0
 17 21  4  0
 18 22  4  0
 21 24  1  0
M  END
$$$$

 Created by Python create_sdf_string function

 26 38  0  0  0  0  0  0  0  0999 V2000
   10.0264   -2.0327   23.4456 C   0  0  0  0  0  0  0  0  0  0  0  0
    9.8745   -4.8049   16.4577 C   0  0  0  0  0  0  0  0  0  0  0  0
   10.2148   -3.9795   17.7182 C   0  0  0  0  0  0  0  0  0  0  0  0
    8.6047    1.3116   25.6870 N   0  0  0  0  0  0  0  0  0  0  0  0
    6.3176   -7.4459   18.4042 N   0  0  0  0  0  0  0  0  0  0  0  0
    6.0385   -8.3259   16.0286 C   0  0  0  0  0  0  0  0  0  0  0  0
   11.0023   -2.8639   19.4167 S   0  0  0  0  0  0  0  0  0  0  0  0
    9.3956   -0.8970   24.4298 C   0  0  0  0  0  0  0  0  0  0  0  0
    7.3345   -7.1580   16.8660 C   0  0  0  0  0  0  0  0  0  0  0  0
    9.6970    0.3514   23.7570 C   0  0  0  0  0  0  0  0  0  0  0  0
    8.5871    0.1129   26.4304 C   0  0  0  0  0  0  0  0  0  0  0  0
   10.3287   -2.3242   22.3926 N   0  0  0  0  0  0  0  0  0  0  0  0
   10.0095   -4.9663   20.1662 C   0  0  0  0  0  0  0  0  0  0  0  0
    9.9481   -3.0810   24.0809 N   0  0  0  0  0  0  0  0  0  0  0  0
    7.1855   -7.5950   15.6947 N   0  0  0  0  0  0  0  0  0  0  0  0
    5.6944   -8.4421   17.5871 N   0  0  0  0  0  0  0  0  0  0  0  0
    8.4494   -6.3946   17.1767 C   0  0  0  0  0  0  0  0  0  0  0  0
    9.0071   -5.9031   16.2455 C   0  0  0  0  0  0  0  0  0  0  0  0
   10.3089   -4.1220   22.9519 O   0  0  0  0  0  0  0  0  0  0  0  0
    9.6465   -5.0800   18.9442 C   0  0  0  0  0  0  0  0  0  0  0  0
    9.0821    1.6345   24.4705 C   0  0  0  0  0  0  0  0  0  0  0  0
   10.8716   -3.1436   18.4101 N   0  0  0  0  0  0  0  0  0  0  0  0
   10.4011   -3.3890   21.9757 C   0  0  0  0  0  0  0  0  0  0  0  0
    8.7823   -6.0622   18.4940 N   0  0  0  0  0  0  0  0  0  0  0  0
    8.9179   -0.9545   25.7019 C   0  0  0  0  0  0  0  0  0  0  0  0
   10.5192   -3.8921   20.6026 C   0  0  0  0  0  0  0  0  0  0  0  0
  1  8  1  0
  1  9  3  0
  1 12  4  0
  1 14  4  0
  1 24  4  0
  2  3  4  0
  2 18  4  0
  3 22  4  0
  4 11  4  0
  4 21  3  0
  5  9  4  0
  5 13  1  0
  5 16  4  0
  6  8  4  0
  6 15  4  0
  6 16  4  0
  7 22  4  0
  7 25  2  0
  7 26  4  0
  8 10  4  0
  8 25  4  0
  9 15  4  0
  9 16  4  0
  9 17  1  0
 10 16  3  0
 10 21  4  0
 11 25  4  0
 12 22  3  0
 12 23  4  0
 13 20  4  0
 13 26  2  0
 14 19  4  0
 15 25  3  0
 17 24  4  0
 18 20  1  0
 19 23  4  0
 20 24  4  0
 23 26  1  0
M  END
$$$$

 Created by Python create_sdf_string function

 26 39  0  0  0  0  0  0  0  0999 V2000
    9.7767   -2.0887   23.8215 C   0  0  0  0  0  0  0  0  0  0  0  0
   10.1025   -4.6573   16.5535 C   0  0  0  0  0  0  0  0  0  0  0  0
   10.4044   -4.3565   17.8981 C   0  0  0  0  0  0  0  0  0  0  0  0
    8.7119    1.4217   25.6109 N   0  0  0  0  0  0  0  0  0  0  0  0
    6.7170   -7.3804   17.9389 N   0  0  0  0  0  0  0  0  0  0  0  0
    6.1807   -8.4606   16.1335 C   0  0  0  0  0  0  0  0  0  0  0  0
   11.0103   -2.8713   19.4766 C   0  0  0  0  0  0  0  0  0  0  0  0
    9.5460   -0.9827   24.4165 C   0  0  0  0  0  0  0  0  0  0  0  0
    7.7301   -7.1230   16.9679 C   0  0  0  0  0  0  0  0  0  0  0  0
    9.7659    0.3806   23.6317 C   0  0  0  0  0  0  0  0  0  0  0  0
    8.5526    0.2471   26.3985 C   0  0  0  0  0  0  0  0  0  0  0  0
   10.2668   -2.1452   22.3715 N   0  0  0  0  0  0  0  0  0  0  0  0
   10.0378   -5.0083   20.0787 C   0  0  0  0  0  0  0  0  0  0  0  0
   10.0321   -3.3298   23.9569 N   0  0  0  0  0  0  0  0  0  0  0  0
    7.0439   -7.9018   15.9702 N   0  0  0  0  0  0  0  0  0  0  0  0
    6.0312   -8.3171   17.3999 N   0  0  0  0  0  0  0  0  0  0  0  0
    8.3859   -6.2032   17.3091 C   0  0  0  0  0  0  0  0  0  0  0  0
    9.0093   -5.7807   16.0407 C   0  0  0  0  0  0  0  0  0  0  0  0
   10.4260   -4.1855   23.0341 O   0  0  0  0  0  0  0  0  0  0  0  0
    9.7026   -5.0952   18.8669 C   0  0  0  0  0  0  0  0  0  0  0  0
    9.1204    1.5211   24.5193 C   0  0  0  0  0  0  0  0  0  0  0  0
   10.8889   -3.1738   18.1815 N   0  0  0  0  0  0  0  0  0  0  0  0
   10.3367   -3.2944   21.7194 C   0  0  0  0  0  0  0  0  0  0  0  0
    8.8979   -5.9817   18.5030 N   0  0  0  0  0  0  0  0  0  0  0  0
    9.0224   -0.9696   25.6232 C   0  0  0  0  0  0  0  0  0  0  0  0
   10.5253   -3.7061   20.5657 C   0  0  0  0  0  0  0  0  0  0  0  0
  1  8  1  0
  1  9  4  0
  1 12  4  0
  1 14  4  0
  2 18  3  0
  3  5  1  0
  3  9  4  0
  3 20  4  0
  3 22  4  0
  4 11  4  0
  4 13  2  0
  4 21  4  0
  5  9  4  0
  5 16  4  0
  6  8  3  0
  6 12  2  0
  6 16  4  0
  6 19  2  0
  6 22  2  0
  7 19  1  0
  7 22  4  0
  7 26  4  0
  8 10  4  0
  8 25  4  0
  9 15  4  0
  9 17  1  0
  9 20  4  0
 10 21  4  0
 11 25  4  0
 12 23  4  0
 13 20  4  0
 13 26  4  0
 14 19  4  0
 17 18  4  0
 17 24  4  0
 18 19  1  0
 19 23  4  0
 20 24  4  0
 23 26  1  0
M  END
$$$$

 Created by Python create_sdf_string function

 26 29  0  0  0  0  0  0  0  0999 V2000
    9.8734   -2.0965   23.5998 C   0  0  0  0  0  0  0  0  0  0  0  0
   10.0314   -4.4383   16.4593 C   0  0  0  0  0  0  0  0  0  0  0  0
   10.2801   -4.2988   17.9474 C   0  0  0  0  0  0  0  0  0  0  0  0
    8.6203    1.2779   25.4240 N   0  0  0  0  0  0  0  0  0  0  0  0
    6.6560   -7.3929   17.9763 S   0  0  0  0  0  0  0  0  0  0  0  0
    6.1635   -8.4152   16.5150 C   0  0  0  0  0  0  0  0  0  0  0  0
   11.1171   -2.8059   19.4879 C   0  0  0  0  0  0  0  0  0  0  0  0
    9.4176   -0.9512   24.4522 C   0  0  0  0  0  0  0  0  0  0  0  0
    7.4423   -7.1940   16.9517 C   0  0  0  0  0  0  0  0  0  0  0  0
    9.8979    0.3895   23.8726 C   0  0  0  0  0  0  0  0  0  0  0  0
   10.2122   -2.1356   22.3966 N   0  0  0  0  0  0  0  0  0  0  0  0
   10.0131   -5.0100   20.1009 C   0  0  0  0  0  0  0  0  0  0  0  0
    9.8986   -3.3164   23.9159 N   0  0  0  0  0  0  0  0  0  0  0  0
    7.1698   -7.7334   15.7854 N   0  0  0  0  0  0  0  0  0  0  0  0
    8.5601   -6.1162   17.2973 C   0  0  0  0  0  0  0  0  0  0  0  0
    9.1850   -5.8251   16.2347 C   0  0  0  0  0  0  0  0  0  0  0  0
   10.1772   -4.1868   22.9636 O   0  0  0  0  0  0  0  0  0  0  0  0
    9.7884   -5.1928   18.8969 C   0  0  0  0  0  0  0  0  0  0  0  0
    9.3201    1.5647   24.2797 C   0  0  0  0  0  0  0  0  0  0  0  0
   11.0328   -3.3266   18.2135 N   0  0  0  0  0  0  0  0  0  0  0  0
   10.4915   -3.3972   21.7324 C   0  0  0  0  0  0  0  0  0  0  0  0
    8.5987   -6.1110   18.5458 N   0  0  0  0  0  0  0  0  0  0  0  0
    8.9353   -0.9126   25.7428 C   0  0  0  0  0  0  0  0  0  0  0  0
   10.3530   -3.5566   20.5908 C   0  0  0  0  0  0  0  0  0  0  0  0
    8.5211    0.0941   26.3959 He  0  0  0  0  0  0  0  0  0  0  0  0
    5.8250   -8.2188   17.5186 He  0  0  0  0  0  0  0  0  0  0  0  0
  1  8  1  0
  1 11  4  0
  1 13  4  0
  2  3  4  0
  2 16  4  0
  3 20  4  0
  4 19  4  0
  5  7  1  0
  5  9  4  0
  6 14  4  0
  7 10  2  0
  7 20  4  0
  7 24  4  0
  8 10  4  0
  8 23  4  0
  9 14  4  0
  9 15  1  0
 10 19  4  0
 11 21  4  0
 12 15  4  0
 12 17  4  0
 12 24  1  0
 13 15  2  0
 13 17  4  0
 15 16  3  0
 15 22  4  0
 17 21  4  0
 18 22  4  0
 21 24  1  0
M  END
$$$$

 Created by Python create_sdf_string function

 26 34  0  0  0  0  0  0  0  0999 V2000
    9.9701   -2.0837   23.5897 C   0  0  0  0  0  0  0  0  0  0  0  0
   10.1915   -4.5339   16.5071 C   0  0  0  0  0  0  0  0  0  0  0  0
   10.2606   -4.4582   17.9093 C   0  0  0  0  0  0  0  0  0  0  0  0
    8.5982    1.3782   25.5579 N   0  0  0  0  0  0  0  0  0  0  0  0
    6.6235   -7.3583   18.1366 N   0  0  0  0  0  0  0  0  0  0  0  0
    6.1321   -8.3333   16.2278 C   0  0  0  0  0  0  0  0  0  0  0  0
   10.9921   -2.9098   19.6706 C   0  0  0  0  0  0  0  0  0  0  0  0
    9.7686   -0.8257   24.5011 C   0  0  0  0  0  0  0  0  0  0  0  0
    7.5357   -7.1699   16.9588 C   0  0  0  0  0  0  0  0  0  0  0  0
    9.8278    0.2149   23.7451 C   0  0  0  0  0  0  0  0  0  0  0  0
   10.4717   -2.0975   22.5375 N   0  0  0  0  0  0  0  0  0  0  0  0
    9.9918   -4.7557   20.0196 C   0  0  0  0  0  0  0  0  0  0  0  0
    9.8817   -3.2379   24.0604 N   0  0  0  0  0  0  0  0  0  0  0  0
    7.1479   -7.9644   15.8757 N   0  0  0  0  0  0  0  0  0  0  0  0
    5.5306   -8.5811   17.3791 N   0  0  0  0  0  0  0  0  0  0  0  0
    8.4255   -6.1056   17.4140 C   0  0  0  0  0  0  0  0  0  0  0  0
    9.0561   -5.5322   16.1392 C   0  0  0  0  0  0  0  0  0  0  0  0
   10.2972   -4.0440   22.8969 O   0  0  0  0  0  0  0  0  0  0  0  0
    9.6213   -5.2476   18.9215 C   0  0  0  0  0  0  0  0  0  0  0  0
    9.0883    1.6037   24.3273 C   0  0  0  0  0  0  0  0  0  0  0  0
   11.0538   -3.0314   18.0830 N   0  0  0  0  0  0  0  0  0  0  0  0
   10.3913   -3.2965   21.8843 C   0  0  0  0  0  0  0  0  0  0  0  0
    8.8564   -6.0004   18.4150 N   0  0  0  0  0  0  0  0  0  0  0  0
    8.9970   -1.2293   25.8496 C   0  0  0  0  0  0  0  0  0  0  0  0
   10.5541   -3.6276   20.5602 C   0  0  0  0  0  0  0  0  0  0  0  0
    8.4148    0.3026   26.2105 He  0  0  0  0  0  0  0  0  0  0  0  0
  1  8  1  0
  1 11  4  0
  1 13  4  0
  2  3  4  0
  2 17  4  0
  3 19  4  0
  3 21  4  0
  4 20  4  0
  5 15  4  0
  5 17  2  0
  6 14  4  0
  6 15  4  0
  7 21  4  0
  7 25  4  0
  8 10  4  0
  8 20  2  0
  8 24  4  0
  9 14  4  0
  9 16  1  0
  9 19  4  0
 10 20  4  0
 11 22  4  0
 11 25  3  0
 12 19  4  0
 12 25  4  0
 13 18  4  0
 14 24  3  0
 15 23  3  0
 16 17  4  0
 16 23  4  0
 18 22  4  0
 19 23  4  0
 20 23  3  0
 22 25  1  0
M  END
$$$$

 Created by Python create_sdf_string function

 26 36  0  0  0  0  0  0  0  0999 V2000
   10.0439   -1.9815   23.7888 C   0  0  0  0  0  0  0  0  0  0  0  0
   10.1228   -4.4462   16.3975 C   0  0  0  0  0  0  0  0  0  0  0  0
   10.2734   -4.1770   17.8653 C   0  0  0  0  0  0  0  0  0  0  0  0
    8.5218    1.2521   25.4647 N   0  0  0  0  0  0  0  0  0  0  0  0
    6.6118   -7.4917   17.8471 N   0  0  0  0  0  0  0  0  0  0  0  0
    6.3670   -8.3620   16.1864 C   0  0  0  0  0  0  0  0  0  0  0  0
   11.1547   -2.7838   19.7508 C   0  0  0  0  0  0  0  0  0  0  0  0
    9.5429   -0.8802   24.3831 C   0  0  0  0  0  0  0  0  0  0  0  0
    7.5682   -7.2065   16.8469 C   0  0  0  0  0  0  0  0  0  0  0  0
    9.6858    0.2465   23.7590 C   0  0  0  0  0  0  0  0  0  0  0  0
    8.4470    0.2470   26.3217 C   0  0  0  0  0  0  0  0  0  0  0  0
   10.2465   -2.0712   22.3836 N   0  0  0  0  0  0  0  0  0  0  0  0
    9.8429   -4.8067   20.0344 C   0  0  0  0  0  0  0  0  0  0  0  0
   10.0900   -3.0183   24.1623 N   0  0  0  0  0  0  0  0  0  0  0  0
    7.2203   -7.7057   15.9486 N   0  0  0  0  0  0  0  0  0  0  0  0
    5.5493   -8.2202   17.2790 N   0  0  0  0  0  0  0  0  0  0  0  0
    8.4116   -6.4723   17.3502 C   0  0  0  0  0  0  0  0  0  0  0  0
   10.0975   -4.0698   22.9692 O   0  0  0  0  0  0  0  0  0  0  0  0
    9.7327   -5.0227   18.8531 C   0  0  0  0  0  0  0  0  0  0  0  0
    9.1869    1.5653   24.3022 C   0  0  0  0  0  0  0  0  0  0  0  0
   11.0529   -3.1413   18.0628 N   0  0  0  0  0  0  0  0  0  0  0  0
   10.4452   -3.4353   22.0144 C   0  0  0  0  0  0  0  0  0  0  0  0
    8.9555   -6.0035   18.4362 Cl  0  0  0  0  0  0  0  0  0  0  0  0
    9.1099   -0.9478   25.7107 C   0  0  0  0  0  0  0  0  0  0  0  0
   10.3893   -3.6613   20.6579 C   0  0  0  0  0  0  0  0  0  0  0  0
    9.0487   -5.5407   16.4204 He  0  0  0  0  0  0  0  0  0  0  0  0
  1  8  1  0
  1 12  4  0
  1 14  4  0
  1 21  4  0
  2  3  4  0
  2 19  1  0
  3 19  4  0
  3 21  4  0
  5 16  4  0
  5 20  4  0
  6 15  4  0
  6 16  4  0
  7 21  4  0
  7 23  2  0
  7 25  4  0
  8 10  4  0
  9 15  4  0
  9 17  4  0
  9 22  1  0
  9 23  4  0
 10 16  3  0
 10 17  3  0
 10 20  4  0
 11 12  2  0
 11 24  4  0
 12 22  4  0
 13 19  4  0
 13 25  4  0
 14 18  4  0
 14 22  2  0
 15 20  3  0
 17 23  4  0
 17 25  4  0
 18 22  4  0
 19 23  4  0
 22 25  1  0
M  END
$$$$

 Created by Python create_sdf_string function

 26 33  0  0  0  0  0  0  0  0999 V2000
    9.9436   -2.0377   23.7180 C   0  0  0  0  0  0  0  0  0  0  0  0
    9.9267   -4.3275   16.5619 C   0  0  0  0  0  0  0  0  0  0  0  0
   10.2138   -4.2570   17.9344 C   0  0  0  0  0  0  0  0  0  0  0  0
    8.4680    1.4033   25.6557 N   0  0  0  0  0  0  0  0  0  0  0  0
    6.6030   -7.5403   17.9588 N   0  0  0  0  0  0  0  0  0  0  0  0
    6.0120   -8.4235   16.1579 C   0  0  0  0  0  0  0  0  0  0  0  0
   11.0850   -2.7215   19.6152 C   0  0  0  0  0  0  0  0  0  0  0  0
    9.5598   -0.8875   24.5557 C   0  0  0  0  0  0  0  0  0  0  0  0
    7.5369   -7.2390   16.9482 C   0  0  0  0  0  0  0  0  0  0  0  0
    9.6152    0.4631   23.6653 C   0  0  0  0  0  0  0  0  0  0  0  0
    8.6043    0.1508   26.1650 C   0  0  0  0  0  0  0  0  0  0  0  0
   10.4153   -2.1203   22.2932 N   0  0  0  0  0  0  0  0  0  0  0  0
    9.8222   -4.7083   20.0255 C   0  0  0  0  0  0  0  0  0  0  0  0
    7.2397   -7.7232   16.0908 N   0  0  0  0  0  0  0  0  0  0  0  0
    5.5610   -8.2644   17.0792 N   0  0  0  0  0  0  0  0  0  0  0  0
    8.5725   -6.1097   17.1798 C   0  0  0  0  0  0  0  0  0  0  0  0
    9.0905   -5.5683   16.4119 C   0  0  0  0  0  0  0  0  0  0  0  0
   10.3603   -4.1776   22.9245 O   0  0  0  0  0  0  0  0  0  0  0  0
    9.6200   -5.1172   18.9162 C   0  0  0  0  0  0  0  0  0  0  0  0
    9.0155    1.4961   24.2880 C   0  0  0  0  0  0  0  0  0  0  0  0
   10.9322   -3.1190   18.2421 N   0  0  0  0  0  0  0  0  0  0  0  0
   10.3445   -3.2115   22.0014 C   0  0  0  0  0  0  0  0  0  0  0  0
    8.8650   -5.9294   18.5095 N   0  0  0  0  0  0  0  0  0  0  0  0
    9.0669   -0.8513   25.7185 C   0  0  0  0  0  0  0  0  0  0  0  0
   10.4413   -3.5748   20.5804 C   0  0  0  0  0  0  0  0  0  0  0  0
    9.9341   -3.1325   24.0270 He  0  0  0  0  0  0  0  0  0  0  0  0
  1  8  1  0
  1 12  4  0
  2  3  4  0
  3 19  4  0
  3 21  4  0
  4 11  4  0
  4 20  4  0
  4 22  4  0
  5  9  4  0
  5 20  3  0
  6 14  4  0
  6 15  4  0
  7 25  4  0
  8 10  4  0
  8 22  1  0
  8 24  4  0
  9 14  4  0
  9 16  1  0
  9 20  2  0
  9 25  1  0
 10 18  2  0
 10 20  4  0
 12 22  4  0
 12 23  2  0
 13 19  4  0
 13 24  3  0
 13 25  4  0
 16 17  4  0
 16 23  4  0
 18 22  4  0
 19 23  4  0
 21 22  2  0
 22 25  1  0
M  END
$$$$

 Created by Python create_sdf_string function

 26 39  0  0  0  0  0  0  0  0999 V2000
    9.9642   -2.0197   23.6410 C   0  0  0  0  0  0  0  0  0  0  0  0
    9.9795   -4.4145   16.6171 C   0  0  0  0  0  0  0  0  0  0  0  0
   10.1956   -4.0327   17.9557 C   0  0  0  0  0  0  0  0  0  0  0  0
    8.5951    1.3651   25.5250 N   0  0  0  0  0  0  0  0  0  0  0  0
    6.6818   -7.5538   17.8883 N   0  0  0  0  0  0  0  0  0  0  0  0
    6.0784   -8.5213   16.0918 C   0  0  0  0  0  0  0  0  0  0  0  0
   11.0853   -2.7419   19.5235 C   0  0  0  0  0  0  0  0  0  0  0  0
    9.5071   -0.8063   24.4800 C   0  0  0  0  0  0  0  0  0  0  0  0
    7.6290   -7.1395   17.1286 C   0  0  0  0  0  0  0  0  0  0  0  0
    9.5420    0.4249   23.6894 C   0  0  0  0  0  0  0  0  0  0  0  0
    8.4646    0.3273   26.2863 C   0  0  0  0  0  0  0  0  0  0  0  0
   10.2822   -1.9746   22.3840 N   0  0  0  0  0  0  0  0  0  0  0  0
    9.8877   -4.7338   20.2188 C   0  0  0  0  0  0  0  0  0  0  0  0
    9.9599   -3.1470   24.0999 N   0  0  0  0  0  0  0  0  0  0  0  0
    7.1313   -7.6159   15.8240 N   0  0  0  0  0  0  0  0  0  0  0  0
    5.5160   -8.3049   17.2726 N   0  0  0  0  0  0  0  0  0  0  0  0
    8.5826   -6.1112   17.0955 C   0  0  0  0  0  0  0  0  0  0  0  0
    9.2187   -5.4398   16.2098 C   0  0  0  0  0  0  0  0  0  0  0  0
   10.3262   -4.2205   23.0076 O   0  0  0  0  0  0  0  0  0  0  0  0
    9.5990   -4.9072   18.8898 C   0  0  0  0  0  0  0  0  0  0  0  0
   10.9054   -3.1900   18.3647 N   0  0  0  0  0  0  0  0  0  0  0  0
   10.2533   -3.2992   21.7666 C   0  0  0  0  0  0  0  0  0  0  0  0
    8.8895   -6.0024   18.5367 N   0  0  0  0  0  0  0  0  0  0  0  0
    8.9912   -0.7910   25.6349 C   0  0  0  0  0  0  0  0  0  0  0  0
   10.4768   -3.6568   20.5569 C   0  0  0  0  0  0  0  0  0  0  0  0
    9.0964    1.4911   24.3101 He  0  0  0  0  0  0  0  0  0  0  0  0
  1  8  1  0
  1 12  4  0
  1 14  4  0
  1 20  3  0
  2  3  4  0
  2 18  4  0
  3 20  4  0
  3 21  4  0
  4  6  3  0
  4 11  4  0
  5  9  4  0
  5 16  4  0
  6 15  4  0
  7 17  2  0
  7 21  4  0
  7 22  4  0
  7 25  4  0
  8 12  4  0
  8 24  4  0
  9 15  4  0
  9 17  1  0
  9 21  4  0
 10 20  3  0
 10 22  4  0
 11 14  2  0
 11 24  4  0
 12 15  2  0
 12 22  4  0
 12 25  4  0
 13 20  4  0
 13 25  4  0
 14 19  4  0
 16 19  4  0
 17 18  4  0
 17 23  4  0
 19 22  4  0
 19 25  3  0
 20 23  2  0
 22 25  1  0
M  END
$$$$

 Created by Python create_sdf_string function

 26 30  0  0  0  0  0  0  0  0999 V2000
   10.0000   -2.1213   23.7280 C   0  0  0  0  0  0  0  0  0  0  0  0
    9.9997   -4.3725   16.6893 C   0  0  0  0  0  0  0  0  0  0  0  0
   10.1262   -4.1924   18.0142 C   0  0  0  0  0  0  0  0  0  0  0  0
    8.5307    1.5963   25.4468 N   0  0  0  0  0  0  0  0  0  0  0  0
    6.7460   -7.5966   18.0081 O   0  0  0  0  0  0  0  0  0  0  0  0
    6.1291   -8.3597   16.3296 C   0  0  0  0  0  0  0  0  0  0  0  0
   11.0303   -2.7667   19.5797 C   0  0  0  0  0  0  0  0  0  0  0  0
    9.5555   -0.7319   24.3954 C   0  0  0  0  0  0  0  0  0  0  0  0
    7.3136   -6.9353   16.8349 C   0  0  0  0  0  0  0  0  0  0  0  0
    8.5155    0.3714   26.1493 C   0  0  0  0  0  0  0  0  0  0  0  0
   10.3182   -1.9885   22.3638 N   0  0  0  0  0  0  0  0  0  0  0  0
    9.8155   -4.6202   20.1647 C   0  0  0  0  0  0  0  0  0  0  0  0
    9.9917   -3.0355   24.1294 N   0  0  0  0  0  0  0  0  0  0  0  0
    7.4286   -7.7341   15.6337 N   0  0  0  0  0  0  0  0  0  0  0  0
    5.8520   -8.3002   17.2933 N   0  0  0  0  0  0  0  0  0  0  0  0
    8.5579   -6.1469   17.2434 O   0  0  0  0  0  0  0  0  0  0  0  0
    9.2131   -5.2781   16.1362 C   0  0  0  0  0  0  0  0  0  0  0  0
   10.2821   -4.0795   22.9216 O   0  0  0  0  0  0  0  0  0  0  0  0
    9.6716   -4.9996   18.8739 C   0  0  0  0  0  0  0  0  0  0  0  0
    9.1502    1.4731   24.2738 B   0  0  0  0  0  0  0  0  0  0  0  0
   10.9537   -3.1342   18.3677 N   0  0  0  0  0  0  0  0  0  0  0  0
   10.3135   -3.3366   21.9578 C   0  0  0  0  0  0  0  0  0  0  0  0
    8.9219   -6.0059   18.5122 N   0  0  0  0  0  0  0  0  0  0  0  0
    9.0538   -0.8364   25.6236 C   0  0  0  0  0  0  0  0  0  0  0  0
    9.5222    0.4074   23.6372 He  0  0  0  0  0  0  0  0  0  0  0  0
   10.4734   -3.5393   20.6284 He  0  0  0  0  0  0  0  0  0  0  0  0
  1  8  1  0
  1 11  4  0
  1 13  4  0
  1 20  4  0
  2  3  4  0
  2 17  4  0
  3  4  3  0
  3 19  4  0
  3 21  4  0
  4 10  4  0
  4 20  4  0
  5  9  4  0
  6 11  1  0
  6 14  4  0
  6 15  4  0
  7 18  3  0
  7 21  4  0
  8 24  4  0
  9 14  4  0
  9 16  2  0
 10 24  4  0
 11 22  4  0
 12 16  3  0
 12 19  3  0
 13 18  4  0
 15 20  2  0
 16 17  4  0
 16 23  4  0
 18 22  4  0
 19 23  4  0
M  END
$$$$

 Created by Python create_sdf_string function

 26 36  0  0  0  0  0  0  0  0999 V2000
    9.8942   -1.8907   23.4814 C   0  0  0  0  0  0  0  0  0  0  0  0
   10.0686   -4.4109   16.5209 C   0  0  0  0  0  0  0  0  0  0  0  0
   10.3179   -4.1403   17.9850 C   0  0  0  0  0  0  0  0  0  0  0  0
    8.6591    1.5230   25.4091 N   0  0  0  0  0  0  0  0  0  0  0  0
    6.6356   -7.6477   17.9120 O   0  0  0  0  0  0  0  0  0  0  0  0
    6.1804   -8.5640   16.1706 C   0  0  0  0  0  0  0  0  0  0  0  0
   11.0251   -2.7273   19.6957 C   0  0  0  0  0  0  0  0  0  0  0  0
    9.6034   -0.7025   24.3981 C   0  0  0  0  0  0  0  0  0  0  0  0
    7.4864   -7.0283   17.0527 C   0  0  0  0  0  0  0  0  0  0  0  0
    9.6853    0.3764   23.4923 C   0  0  0  0  0  0  0  0  0  0  0  0
    8.6088    0.2820   26.1420 C   0  0  0  0  0  0  0  0  0  0  0  0
   10.3738   -1.8885   22.3395 N   0  0  0  0  0  0  0  0  0  0  0  0
    9.8426   -4.8657   20.2421 C   0  0  0  0  0  0  0  0  0  0  0  0
   10.0081   -3.1347   24.0915 Se  0  0  0  0  0  0  0  0  0  0  0  0
    7.1196   -7.6225   15.9228 N   0  0  0  0  0  0  0  0  0  0  0  0
    5.9169   -8.2551   17.4038 N   0  0  0  0  0  0  0  0  0  0  0  0
    8.5646   -6.1623   17.1617 C   0  0  0  0  0  0  0  0  0  0  0  0
    9.1967   -5.4968   16.1725 C   0  0  0  0  0  0  0  0  0  0  0  0
   10.2415   -4.0381   23.0014 O   0  0  0  0  0  0  0  0  0  0  0  0
    9.5916   -4.9694   18.7886 C   0  0  0  0  0  0  0  0  0  0  0  0
    8.9744    1.6116   24.2536 C   0  0  0  0  0  0  0  0  0  0  0  0
   10.9018   -2.8799   18.2799 N   0  0  0  0  0  0  0  0  0  0  0  0
    9.0318   -0.8663   25.5539 C   0  0  0  0  0  0  0  0  0  0  0  0
   10.4891   -3.5117   20.5616 C   0  0  0  0  0  0  0  0  0  0  0  0
   10.4061   -3.1995   21.9485 He  0  0  0  0  0  0  0  0  0  0  0  0
    8.8085   -6.0399   18.5509 He  0  0  0  0  0  0  0  0  0  0  0  0
  1  2  4  0
  1  8  1  0
  1 12  4  0
  1 14  4  0
  2  3  4  0
  2 18  4  0
  3  5  2  0
  3 20  4  0
  3 22  4  0
  4  9  1  0
  4 11  4  0
  4 15  1  0
  4 21  4  0
  5  9  4  0
  5 16  4  0
  6 15  4  0
  6 16  4  0
  7 22  4  0
  7 24  4  0
  8 10  4  0
  8 15  2  0
  8 18  3  0
  8 23  4  0
  9 15  4  0
  9 17  1  0
  9 22  2  0
 10 21  4  0
 11 23  4  0
 13 20  4  0
 13 24  4  0
 14 19  4  0
 14 20  4  0
 16 24  1  0
 17 18  4  0
 17 23  4  0
 18 22  2  0
M  END
$$$$

 Created by Python create_sdf_string function

 26 33  0  0  0  0  0  0  0  0999 V2000
    9.9614   -1.9013   23.5941 C   0  0  0  0  0  0  0  0  0  0  0  0
    9.9748   -4.3718   16.6198 C   0  0  0  0  0  0  0  0  0  0  0  0
   10.3107   -4.2055   17.9232 C   0  0  0  0  0  0  0  0  0  0  0  0
    8.4827    1.5958   25.4587 N   0  0  0  0  0  0  0  0  0  0  0  0
    6.6978   -7.4352   17.8988 C   0  0  0  0  0  0  0  0  0  0  0  0
   11.0099   -2.7778   19.6258 C   0  0  0  0  0  0  0  0  0  0  0  0
    9.5769   -0.5866   24.2005 C   0  0  0  0  0  0  0  0  0  0  0  0
    7.3712   -7.0239   17.0307 C   0  0  0  0  0  0  0  0  0  0  0  0
    9.6198    0.5151   23.6549 C   0  0  0  0  0  0  0  0  0  0  0  0
    8.5160    0.2887   26.0922 C   0  0  0  0  0  0  0  0  0  0  0  0
   10.3661   -1.9186   22.3798 N   0  0  0  0  0  0  0  0  0  0  0  0
    9.8893   -4.7702   20.1972 C   0  0  0  0  0  0  0  0  0  0  0  0
   10.0192   -3.2156   24.1222 N   0  0  0  0  0  0  0  0  0  0  0  0
    7.1779   -7.5107   16.0260 N   0  0  0  0  0  0  0  0  0  0  0  0
    5.9708   -8.5175   17.5737 N   0  0  0  0  0  0  0  0  0  0  0  0
    8.6247   -6.2879   17.0974 N   0  0  0  0  0  0  0  0  0  0  0  0
    9.2737   -5.3386   16.2913 C   0  0  0  0  0  0  0  0  0  0  0  0
   10.1633   -4.0497   22.9764 O   0  0  0  0  0  0  0  0  0  0  0  0
    9.7213   -5.0403   18.8617 C   0  0  0  0  0  0  0  0  0  0  0  0
    9.1378    1.5451   24.1253 C   0  0  0  0  0  0  0  0  0  0  0  0
   10.9727   -3.0669   18.2341 N   0  0  0  0  0  0  0  0  0  0  0  0
   10.3045   -3.2890   21.9436 C   0  0  0  0  0  0  0  0  0  0  0  0
    8.7970   -5.9758   18.4954 N   0  0  0  0  0  0  0  0  0  0  0  0
    9.2123   -0.8204   25.5359 C   0  0  0  0  0  0  0  0  0  0  0  0
   10.5773   -3.5939   20.6488 C   0  0  0  0  0  0  0  0  0  0  0  0
    5.9939   -8.5306   16.1990 He  0  0  0  0  0  0  0  0  0  0  0  0
  1  7  1  0
  1 11  4  0
  1 13  4  0
  2  3  4  0
  2 14  1  0
  2 17  4  0
  3 19  4  0
  3 21  4  0
  4 10  4  0
  4 17  1  0
  4 20  4  0
  5  8  4  0
  5 15  4  0
  5 16  1  0
  6 21  4  0
  6 25  4  0
  7  9  4  0
  7 24  4  0
  8 14  4  0
  8 16  1  0
  8 18  4  0
  9 20  4  0
 10 24  4  0
 11 22  4  0
 12 19  4  0
 12 25  4  0
 13 18  4  0
 16 17  4  0
 16 23  4  0
 18 22  4  0
 19 23  4  0
 21 24  3  0
 22 25  1  0
M  END
$$$$

 Created by Python create_sdf_string function

 26 34  0  0  0  0  0  0  0  0999 V2000
    9.9414   -1.8468   23.5780 C   0  0  0  0  0  0  0  0  0  0  0  0
   10.0456   -4.4228   16.5856 C   0  0  0  0  0  0  0  0  0  0  0  0
   10.2111   -4.3490   17.8832 C   0  0  0  0  0  0  0  0  0  0  0  0
    8.5510    1.5058   25.4110 N   0  0  0  0  0  0  0  0  0  0  0  0
    6.8270   -7.5679   17.8951 C   0  0  0  0  0  0  0  0  0  0  0  0
    6.0757   -8.4876   16.2513 N   0  0  0  0  0  0  0  0  0  0  0  0
   10.9815   -2.7729   19.5902 C   0  0  0  0  0  0  0  0  0  0  0  0
    9.6080   -0.6979   24.2950 C   0  0  0  0  0  0  0  0  0  0  0  0
    7.3446   -7.1489   17.0290 C   0  0  0  0  0  0  0  0  0  0  0  0
    9.6021    0.4517   23.5853 C   0  0  0  0  0  0  0  0  0  0  0  0
    8.5738    0.3729   26.2115 C   0  0  0  0  0  0  0  0  0  0  0  0
   10.3850   -1.9085   22.3103 Se  0  0  0  0  0  0  0  0  0  0  0  0
    9.9088   -4.8270   20.1645 C   0  0  0  0  0  0  0  0  0  0  0  0
   10.0185   -3.2065   24.0815 F   0  0  0  0  0  0  0  0  0  0  0  0
    7.0463   -7.5948   15.7968 N   0  0  0  0  0  0  0  0  0  0  0  0
    5.8025   -8.2917   17.3826 O   0  0  0  0  0  0  0  0  0  0  0  0
    8.4337   -6.1787   17.1688 C   0  0  0  0  0  0  0  0  0  0  0  0
   10.1907   -4.0239   23.0352 O   0  0  0  0  0  0  0  0  0  0  0  0
    9.7138   -4.9309   18.7648 C   0  0  0  0  0  0  0  0  0  0  0  0
    9.1015    1.5559   24.1518 C   0  0  0  0  0  0  0  0  0  0  0  0
   10.9318   -3.0585   18.3042 N   0  0  0  0  0  0  0  0  0  0  0  0
   10.3904   -3.2903   21.9203 C   0  0  0  0  0  0  0  0  0  0  0  0
    8.9157   -5.9744   18.5109 P   0  0  0  0  0  0  0  0  0  0  0  0
    9.1224   -0.7382   25.5409 C   0  0  0  0  0  0  0  0  0  0  0  0
   10.4622   -3.4008   20.4801 C   0  0  0  0  0  0  0  0  0  0  0  0
    9.0744   -5.3232   16.2084 He  0  0  0  0  0  0  0  0  0  0  0  0
  1  8  1  0
  1 12  4  0
  1 14  4  0
  2  3  4  0
  3 19  4  0
  3 21  4  0
  4 11  4  0
  4 16  2  0
  4 20  4  0
  5  9  4  0
  5 12  2  0
  5 16  4  0
  5 20  3  0
  6 15  4  0
  6 16  4  0
  7 21  4  0
  7 25  4  0
  8 10  4  0
  8 24  4  0
  9 15  4  0
  9 17  1  0
  9 19  1  0
 10 20  4  0
 11 24  4  0
 12 22  4  0
 13 15  4  0
 13 19  4  0
 13 25  4  0
 14 18  4  0
 15 25  2  0
 17 23  4  0
 18 22  4  0
 19 23  4  0
 22 25  1  0
M  END
$$$$

 Created by Python create_sdf_string function

 26 35  0  0  0  0  0  0  0  0999 V2000
    9.9571   -1.8315   23.5911 C   0  0  0  0  0  0  0  0  0  0  0  0
   10.0013   -4.4360   16.5570 C   0  0  0  0  0  0  0  0  0  0  0  0
   10.1889   -4.1270   17.9263 C   0  0  0  0  0  0  0  0  0  0  0  0
    8.6592    1.6107   25.2673 N   0  0  0  0  0  0  0  0  0  0  0  0
    6.6780   -7.5702   17.9062 C   0  0  0  0  0  0  0  0  0  0  0  0
    6.0245   -8.3482   16.0917 N   0  0  0  0  0  0  0  0  0  0  0  0
   11.0509   -2.8512   19.4877 C   0  0  0  0  0  0  0  0  0  0  0  0
    9.6306   -0.5944   24.1670 C   0  0  0  0  0  0  0  0  0  0  0  0
    7.4747   -7.0818   17.0265 C   0  0  0  0  0  0  0  0  0  0  0  0
    9.5428    0.5004   23.6152 C   0  0  0  0  0  0  0  0  0  0  0  0
    8.4611    0.3442   26.2186 C   0  0  0  0  0  0  0  0  0  0  0  0
   10.2873   -1.8611   22.3291 N   0  0  0  0  0  0  0  0  0  0  0  0
    9.8965   -4.7067   20.2649 C   0  0  0  0  0  0  0  0  0  0  0  0
    9.9915   -3.1112   24.0592 N   0  0  0  0  0  0  0  0  0  0  0  0
    7.1171   -7.5170   15.9103 N   0  0  0  0  0  0  0  0  0  0  0  0
    5.8281   -8.3471   17.3281 N   0  0  0  0  0  0  0  0  0  0  0  0
    8.5560   -6.1511   17.2244 C   0  0  0  0  0  0  0  0  0  0  0  0
    9.1635   -5.2355   16.1538 C   0  0  0  0  0  0  0  0  0  0  0  0
   10.2710   -3.9873   22.9453 O   0  0  0  0  0  0  0  0  0  0  0  0
    9.6987   -5.0656   18.8263 C   0  0  0  0  0  0  0  0  0  0  0  0
    9.1041    1.5695   24.1958 C   0  0  0  0  0  0  0  0  0  0  0  0
   10.9454   -3.1000   18.2291 N   0  0  0  0  0  0  0  0  0  0  0  0
   10.5179   -3.1212   21.8679 C   0  0  0  0  0  0  0  0  0  0  0  0
    8.8579   -6.0263   18.4337 N   0  0  0  0  0  0  0  0  0  0  0  0
    9.0426   -0.7109   25.6209 C   0  0  0  0  0  0  0  0  0  0  0  0
   10.4171   -3.4826   20.5314 C   0  0  0  0  0  0  0  0  0  0  0  0
  1  7  1  0
  1  8  1  0
  1 12  4  0
  1 14  4  0
  2  3  4  0
  2 18  4  0
  3 16  2  0
  3 20  4  0
  3 22  2  0
  4 11  4  0
  4 14  1  0
  4 21  4  0
  5  9  4  0
  5 16  4  0
  6 15  4  0
  6 16  4  0
  6 19  4  0
  7 22  4  0
  7 26  4  0
  8 10  4  0
  8 25  4  0
  9 15  4  0
  9 17  1  0
  9 18  4  0
 10 21  4  0
 11 25  4  0
 12 23  4  0
 13 20  4  0
 13 26  4  0
 14 19  4  0
 17 18  4  0
 17 24  4  0
 19 23  4  0
 20 24  4  0
 23 26  1  0
M  END
$$$$

 Created by Python create_sdf_string function

 26 31  0  0  0  0  0  0  0  0999 V2000
    9.9713   -1.8183   23.5700 C   0  0  0  0  0  0  0  0  0  0  0  0
   10.1362   -4.3803   16.4953 C   0  0  0  0  0  0  0  0  0  0  0  0
    8.5736    1.4945   25.4496 N   0  0  0  0  0  0  0  0  0  0  0  0
    6.6496   -7.6284   17.8430 C   0  0  0  0  0  0  0  0  0  0  0  0
    6.0171   -8.2930   15.9795 N   0  0  0  0  0  0  0  0  0  0  0  0
   11.1360   -2.7191   19.5546 C   0  0  0  0  0  0  0  0  0  0  0  0
    9.5563   -0.7990   24.2352 C   0  0  0  0  0  0  0  0  0  0  0  0
    7.5384   -6.9573   17.0564 C   0  0  0  0  0  0  0  0  0  0  0  0
    9.6325    0.4997   23.4841 C   0  0  0  0  0  0  0  0  0  0  0  0
    8.5425    0.4230   26.1825 P   0  0  0  0  0  0  0  0  0  0  0  0
   10.3897   -1.9214   22.3226 N   0  0  0  0  0  0  0  0  0  0  0  0
    9.8827   -4.7461   20.1878 C   0  0  0  0  0  0  0  0  0  0  0  0
   10.0372   -3.0882   24.1193 N   0  0  0  0  0  0  0  0  0  0  0  0
    7.0342   -7.4475   15.8935 N   0  0  0  0  0  0  0  0  0  0  0  0
    5.7243   -8.4175   17.2748 N   0  0  0  0  0  0  0  0  0  0  0  0
    8.5882   -6.1756   17.0556 C   0  0  0  0  0  0  0  0  0  0  0  0
    9.1374   -5.3563   16.1626 C   0  0  0  0  0  0  0  0  0  0  0  0
   10.2322   -3.9949   22.9381 O   0  0  0  0  0  0  0  0  0  0  0  0
    9.6861   -4.9366   18.9067 C   0  0  0  0  0  0  0  0  0  0  0  0
    9.0941    1.7272   24.1753 C   0  0  0  0  0  0  0  0  0  0  0  0
   10.9823   -3.0407   18.2609 N   0  0  0  0  0  0  0  0  0  0  0  0
   10.4613   -3.1616   21.9078 C   0  0  0  0  0  0  0  0  0  0  0  0
    8.7967   -5.9247   18.5059 N   0  0  0  0  0  0  0  0  0  0  0  0
    8.9918   -0.8048   25.5324 C   0  0  0  0  0  0  0  0  0  0  0  0
   10.6135   -3.5344   20.5273 C   0  0  0  0  0  0  0  0  0  0  0  0
   10.2110   -4.0993   17.9176 He  0  0  0  0  0  0  0  0  0  0  0  0
  1  7  1  0
  1 11  4  0
  1 13  4  0
  2 17  4  0
  3 10  4  0
  3 20  4  0
  4  8  4  0
  4 15  4  0
  5 14  4  0
  5 15  4  0
  6 12  4  0
  6 21  4  0
  6 25  4  0
  7  9  4  0
  7 24  4  0
  8 14  4  0
  8 16  1  0
  9 20  4  0
 10 24  4  0
 11 13  4  0
 11 22  4  0
 12 19  4  0
 12 25  4  0
 13 18  4  0
 13 22  1  0
 16 17  4  0
 16 23  4  0
 18 22  4  0
 19 23  4  0
 22 25  1  0
 23 25  1  0
M  END
$$$$

 Created by Python create_sdf_string function

 26 36  0  0  0  0  0  0  0  0999 V2000
   10.0795   -1.9476   23.5874 C   0  0  0  0  0  0  0  0  0  0  0  0
   10.0269   -4.3979   16.5402 C   0  0  0  0  0  0  0  0  0  0  0  0
   10.2940   -4.1802   17.8727 C   0  0  0  0  0  0  0  0  0  0  0  0
    8.6144    1.6280   25.4106 N   0  0  0  0  0  0  0  0  0  0  0  0
    6.6683   -7.6505   17.8503 C   0  0  0  0  0  0  0  0  0  0  0  0
    6.0136   -8.1862   16.0237 N   0  0  0  0  0  0  0  0  0  0  0  0
   11.1113   -2.7782   19.5796 C   0  0  0  0  0  0  0  0  0  0  0  0
    9.5604   -0.6354   24.2604 C   0  0  0  0  0  0  0  0  0  0  0  0
    7.4543   -7.0234   16.9655 C   0  0  0  0  0  0  0  0  0  0  0  0
    9.6281    0.4859   23.5467 C   0  0  0  0  0  0  0  0  0  0  0  0
    8.5615    0.3744   26.0899 C   0  0  0  0  0  0  0  0  0  0  0  0
   10.4514   -1.9397   22.3380 N   0  0  0  0  0  0  0  0  0  0  0  0
    9.8158   -4.7308   20.1825 C   0  0  0  0  0  0  0  0  0  0  0  0
   10.0636   -3.0660   24.0123 N   0  0  0  0  0  0  0  0  0  0  0  0
    7.1252   -7.4156   15.7994 N   0  0  0  0  0  0  0  0  0  0  0  0
    5.7794   -8.4069   17.3427 N   0  0  0  0  0  0  0  0  0  0  0  0
    8.4843   -6.1745   17.1431 C   0  0  0  0  0  0  0  0  0  0  0  0
    9.1909   -5.3511   16.2408 C   0  0  0  0  0  0  0  0  0  0  0  0
   10.2983   -3.9387   22.8753 O   0  0  0  0  0  0  0  0  0  0  0  0
    9.6971   -4.9153   18.8848 C   0  0  0  0  0  0  0  0  0  0  0  0
    9.0333    1.6046   24.1609 C   0  0  0  0  0  0  0  0  0  0  0  0
   10.9244   -2.9533   18.2357 N   0  0  0  0  0  0  0  0  0  0  0  0
   10.4888   -3.0987   21.8754 C   0  0  0  0  0  0  0  0  0  0  0  0
    8.8385   -5.9597   18.3861 N   0  0  0  0  0  0  0  0  0  0  0  0
    9.0215   -0.8309   25.5600 C   0  0  0  0  0  0  0  0  0  0  0  0
   10.5155   -3.5886   20.6170 C   0  0  0  0  0  0  0  0  0  0  0  0
  1  8  1  0
  1 12  4  0
  1 14  4  0
  2  3  4  0
  2 18  4  0
  3  6  2  0
  3 22  4  0
  4 11  4  0
  4 21  4  0
  5  9  4  0
  5 16  4  0
  6 11  2  0
  6 15  4  0
  6 16  4  0
  7 22  4  0
  7 26  4  0
  8 10  4  0
  8 16  3  0
  8 25  4  0
  9 15  4  0
  9 17  1  0
  9 18  4  0
 10 21  4  0
 11 25  4  0
 12 23  4  0
 13 16  3  0
 13 20  4  0
 13 26  2  0
 14 19  4  0
 17 18  4  0
 17 24  4  0
 18 24  3  0
 19 23  4  0
 20 24  4  0
 21 22  1  0
 23 26  1  0
M  END
$$$$

 Created by Python create_sdf_string function

 26 33  0  0  0  0  0  0  0  0999 V2000
   10.0681   -1.8139   23.5682 C   0  0  0  0  0  0  0  0  0  0  0  0
   10.2256   -4.1474   17.8544 C   0  0  0  0  0  0  0  0  0  0  0  0
    8.5156    1.5853   25.4305 N   0  0  0  0  0  0  0  0  0  0  0  0
    6.6973   -7.5909   17.8908 C   0  0  0  0  0  0  0  0  0  0  0  0
    6.0410   -8.2683   16.0343 N   0  0  0  0  0  0  0  0  0  0  0  0
   11.0251   -2.7242   19.5934 C   0  0  0  0  0  0  0  0  0  0  0  0
    9.5693   -0.7200   24.2850 C   0  0  0  0  0  0  0  0  0  0  0  0
    7.4231   -7.0770   16.8720 C   0  0  0  0  0  0  0  0  0  0  0  0
    9.6164    0.3912   23.5432 C   0  0  0  0  0  0  0  0  0  0  0  0
    8.5521    0.4400   26.2127 C   0  0  0  0  0  0  0  0  0  0  0  0
   10.3858   -1.8189   22.3033 N   0  0  0  0  0  0  0  0  0  0  0  0
    9.8822   -4.8002   20.2320 C   0  0  0  0  0  0  0  0  0  0  0  0
   10.0502   -3.0808   24.0981 N   0  0  0  0  0  0  0  0  0  0  0  0
    7.0856   -7.4382   15.6760 N   0  0  0  0  0  0  0  0  0  0  0  0
    5.7935   -8.4317   17.2936 N   0  0  0  0  0  0  0  0  0  0  0  0
    8.4630   -6.1473   17.1045 C   0  0  0  0  0  0  0  0  0  0  0  0
    9.1951   -5.3940   16.1959 C   0  0  0  0  0  0  0  0  0  0  0  0
   10.2704   -3.9301   22.8995 O   0  0  0  0  0  0  0  0  0  0  0  0
    9.6892   -4.8975   18.8943 C   0  0  0  0  0  0  0  0  0  0  0  0
    9.0852    1.6397   24.0921 C   0  0  0  0  0  0  0  0  0  0  0  0
   10.8997   -3.0178   18.3351 N   0  0  0  0  0  0  0  0  0  0  0  0
   10.4965   -3.1805   21.9535 C   0  0  0  0  0  0  0  0  0  0  0  0
    8.8517   -5.8710   18.4322 N   0  0  0  0  0  0  0  0  0  0  0  0
    9.0199   -0.8088   25.5451 C   0  0  0  0  0  0  0  0  0  0  0  0
   10.5683   -3.4567   20.5280 C   0  0  0  0  0  0  0  0  0  0  0  0
    9.9513   -4.3853   16.4852 He  0  0  0  0  0  0  0  0  0  0  0  0
  1  7  1  0
  1 11  4  0
  1 13  4  0
  2  6  3  0
  2 19  4  0
  2 21  4  0
  3 10  4  0
  3 20  4  0
  4  8  4  0
  4 15  4  0
  5 14  4  0
  5 15  4  0
  6 21  4  0
  6 23  2  0
  6 25  4  0
  7  9  4  0
  7 24  4  0
  8 14  4  0
  8 16  1  0
  9 20  4  0
 10 18  4  0
 10 24  4  0
 11 22  4  0
 12 19  4  0
 12 25  4  0
 13 17  2  0
 13 18  4  0
 16 17  4  0
 16 23  4  0
 18 22  4  0
 19 23  4  0
 20 24  3  0
 22 25  1  0
M  END
$$$$

 Created by Python create_sdf_string function

 26 39  0  0  0  0  0  0  0  0999 V2000
   10.0055   -1.7930   23.5050 C   0  0  0  0  0  0  0  0  0  0  0  0
    9.9397   -4.3926   16.4728 C   0  0  0  0  0  0  0  0  0  0  0  0
   10.1932   -4.0706   17.9079 C   0  0  0  0  0  0  0  0  0  0  0  0
    8.5396    1.5587   25.3533 N   0  0  0  0  0  0  0  0  0  0  0  0
    6.6362   -7.6552   17.9609 C   0  0  0  0  0  0  0  0  0  0  0  0
    6.1155   -8.3395   15.9120 N   0  0  0  0  0  0  0  0  0  0  0  0
   10.9962   -2.7405   19.5867 C   0  0  0  0  0  0  0  0  0  0  0  0
    9.5623   -0.6481   24.2461 C   0  0  0  0  0  0  0  0  0  0  0  0
    7.3892   -6.9910   16.9229 C   0  0  0  0  0  0  0  0  0  0  0  0
    9.6187    0.5507   23.5481 C   0  0  0  0  0  0  0  0  0  0  0  0
    8.5123    0.3674   26.1302 C   0  0  0  0  0  0  0  0  0  0  0  0
   10.4841   -1.9321   22.1873 N   0  0  0  0  0  0  0  0  0  0  0  0
    9.8615   -4.7545   20.2222 C   0  0  0  0  0  0  0  0  0  0  0  0
   10.0417   -3.0257   23.9810 N   0  0  0  0  0  0  0  0  0  0  0  0
    7.0332   -7.4210   15.6926 N   0  0  0  0  0  0  0  0  0  0  0  0
    5.7274   -8.3948   17.3251 N   0  0  0  0  0  0  0  0  0  0  0  0
    8.5793   -6.0564   17.2541 C   0  0  0  0  0  0  0  0  0  0  0  0
    9.1521   -5.3766   16.1573 C   0  0  0  0  0  0  0  0  0  0  0  0
   10.2514   -3.9207   23.0167 O   0  0  0  0  0  0  0  0  0  0  0  0
    9.7214   -4.8827   18.7747 C   0  0  0  0  0  0  0  0  0  0  0  0
    9.1505    1.6481   24.1497 C   0  0  0  0  0  0  0  0  0  0  0  0
   10.8535   -3.0767   18.2977 N   0  0  0  0  0  0  0  0  0  0  0  0
   10.4274   -3.1842   21.9458 I   0  0  0  0  0  0  0  0  0  0  0  0
    8.8177   -5.9603   18.4670 N   0  0  0  0  0  0  0  0  0  0  0  0
    8.9731   -0.7038   25.5201 C   0  0  0  0  0  0  0  0  0  0  0  0
   10.4085   -3.5514   20.5260 C   0  0  0  0  0  0  0  0  0  0  0  0
  1  8  1  0
  1 12  4  0
  1 14  4  0
  2  3  4  0
  2 18  4  0
  3  5  1  0
  3 20  4  0
  3 22  4  0
  4 11  4  0
  4 13  3  0
  4 21  4  0
  5  7  3  0
  5  8  2  0
  5  9  4  0
  5 16  4  0
  6 15  4  0
  6 16  4  0
  7 12  4  0
  7 22  4  0
  7 26  4  0
  8 10  4  0
  8 25  4  0
  9 15  4  0
  9 17  1  0
 10 21  4  0
 10 24  4  0
 11 25  4  0
 12 23  4  0
 13 20  4  0
 13 23  3  0
 13 26  4  0
 14 19  4  0
 17 18  4  0
 17 24  4  0
 19 21  4  0
 19 23  4  0
 20 24  4  0
 23 24  4  0
 23 26  1  0
M  END
$$$$

 Created by Python create_sdf_string function

 26 29  0  0  0  0  0  0  0  0999 V2000
    9.9951   -1.7962   23.4836 C   0  0  0  0  0  0  0  0  0  0  0  0
    9.9357   -4.3407   16.5489 C   0  0  0  0  0  0  0  0  0  0  0  0
   10.2810   -4.0953   17.8697 C   0  0  0  0  0  0  0  0  0  0  0  0
    8.5310    1.6204   25.4117 N   0  0  0  0  0  0  0  0  0  0  0  0
    6.6372   -7.6306   17.9393 C   0  0  0  0  0  0  0  0  0  0  0  0
    6.1712   -8.2812   15.9580 N   0  0  0  0  0  0  0  0  0  0  0  0
   11.0051   -2.7635   19.6047 C   0  0  0  0  0  0  0  0  0  0  0  0
    9.5737   -0.6225   24.2730 C   0  0  0  0  0  0  0  0  0  0  0  0
    7.4450   -6.9749   16.9325 C   0  0  0  0  0  0  0  0  0  0  0  0
    9.5923    0.5092   23.6111 C   0  0  0  0  0  0  0  0  0  0  0  0
    8.4468    0.4612   26.1422 C   0  0  0  0  0  0  0  0  0  0  0  0
   10.4577   -1.9230   22.1705 N   0  0  0  0  0  0  0  0  0  0  0  0
    9.8518   -4.7122   20.2039 C   0  0  0  0  0  0  0  0  0  0  0  0
   10.0398   -3.0633   24.0119 N   0  0  0  0  0  0  0  0  0  0  0  0
    6.9825   -7.3806   15.7595 N   0  0  0  0  0  0  0  0  0  0  0  0
    5.8089   -8.3211   17.2856 N   0  0  0  0  0  0  0  0  0  0  0  0
    8.4504   -6.1042   17.2013 C   0  0  0  0  0  0  0  0  0  0  0  0
    9.0616   -5.2898   16.2481 C   0  0  0  0  0  0  0  0  0  0  0  0
   10.3287   -3.9419   22.9952 O   0  0  0  0  0  0  0  0  0  0  0  0
    9.6717   -4.8823   18.7735 C   0  0  0  0  0  0  0  0  0  0  0  0
    9.1175    1.7073   24.1343 C   0  0  0  0  0  0  0  0  0  0  0  0
    8.8180   -6.0127   18.5305 N   0  0  0  0  0  0  0  0  0  0  0  0
    9.0039   -0.7636   25.5286 C   0  0  0  0  0  0  0  0  0  0  0  0
   10.4451   -3.5891   20.5567 C   0  0  0  0  0  0  0  0  0  0  0  0
   10.9313   -2.9919   18.2945 He  0  0  0  0  0  0  0  0  0  0  0  0
   10.3952   -3.1623   21.8963 He  0  0  0  0  0  0  0  0  0  0  0  0
  1  7  2  0
  1  8  1  0
  1 12  4  0
  1 14  4  0
  2  3  4  0
  2 18  4  0
  3 12  3  0
  3 20  4  0
  4 11  4  0
  4 21  4  0
  5  9  4  0
  5 11  2  0
  5 16  4  0
  6 10  4  0
  6 15  4  0
  6 16  4  0
  7 24  4  0
  8 10  4  0
  8 23  4  0
  9 15  4  0
  9 17  1  0
 11 23  4  0
 13 20  4  0
 13 24  4  0
 14 16  1  0
 14 19  4  0
 17 18  4  0
 17 22  4  0
 20 22  4  0
M  END
$$$$

 Created by Python create_sdf_string function

 26 36  0  0  0  0  0  0  0  0999 V2000
   10.0181   -1.8295   23.4945 C   0  0  0  0  0  0  0  0  0  0  0  0
    9.8850   -4.3154   16.5500 C   0  0  0  0  0  0  0  0  0  0  0  0
   10.1878   -4.0510   17.9279 C   0  0  0  0  0  0  0  0  0  0  0  0
    8.4876    1.5796   25.3466 N   0  0  0  0  0  0  0  0  0  0  0  0
    6.6735   -7.6386   17.8791 C   0  0  0  0  0  0  0  0  0  0  0  0
    6.0769   -8.2889   16.0047 N   0  0  0  0  0  0  0  0  0  0  0  0
   11.0942   -2.7288   19.6233 C   0  0  0  0  0  0  0  0  0  0  0  0
    9.4946   -0.6657   24.2453 C   0  0  0  0  0  0  0  0  0  0  0  0
    7.4034   -6.9546   16.9444 C   0  0  0  0  0  0  0  0  0  0  0  0
    9.5718    0.5487   23.5100 C   0  0  0  0  0  0  0  0  0  0  0  0
    8.4283    0.3651   26.0933 C   0  0  0  0  0  0  0  0  0  0  0  0
   10.4871   -1.9209   22.2422 N   0  0  0  0  0  0  0  0  0  0  0  0
    9.8510   -4.6725   20.1591 C   0  0  0  0  0  0  0  0  0  0  0  0
    9.9580   -3.1199   24.0626 N   0  0  0  0  0  0  0  0  0  0  0  0
    7.0471   -7.3906   15.7318 N   0  0  0  0  0  0  0  0  0  0  0  0
    5.8281   -8.3557   17.2736 N   0  0  0  0  0  0  0  0  0  0  0  0
    8.4073   -6.0857   17.2707 C   0  0  0  0  0  0  0  0  0  0  0  0
    9.0835   -5.3123   16.2397 C   0  0  0  0  0  0  0  0  0  0  0  0
   10.3819   -3.8937   22.9814 O   0  0  0  0  0  0  0  0  0  0  0  0
    9.6412   -4.9098   18.8460 C   0  0  0  0  0  0  0  0  0  0  0  0
    9.1363    1.7461   24.1674 C   0  0  0  0  0  0  0  0  0  0  0  0
   10.9636   -3.0001   18.2817 N   0  0  0  0  0  0  0  0  0  0  0  0
   10.4231   -3.1174   21.8581 C   0  0  0  0  0  0  0  0  0  0  0  0
    8.8382   -5.9352   18.5116 N   0  0  0  0  0  0  0  0  0  0  0  0
    9.0207   -0.7762   25.4881 C   0  0  0  0  0  0  0  0  0  0  0  0
   10.5104   -3.5066   20.5217 C   0  0  0  0  0  0  0  0  0  0  0  0
  1  8  1  0
  1  9  1  0
  1 12  4  0
  1 14  4  0
  1 18  3  0
  2  3  4  0
  2 18  4  0
  3 20  4  0
  3 22  4  0
  4 11  4  0
  4 21  4  0
  5 16  4  0
  6 15  4  0
  6 16  4  0
  7  9  3  0
  7 22  4  0
  7 26  4  0
  8 10  4  0
  8 25  4  0
  9 15  4  0
  9 17  1  0
 10 21  4  0
 11 25  4  0
 12 23  4  0
 12 24  4  0
 13 19  2  0
 13 20  4  0
 13 26  4  0
 14 19  4  0
 17 18  4  0
 17 24  4  0
 19 23  4  0
 19 25  2  0
 20 24  4  0
 23 26  1  0
 24 25  1  0
M  END
$$$$

 Created by Python create_sdf_string function

 26 31  0  0  0  0  0  0  0  0999 V2000
    9.9649   -1.8361   23.5225 C   0  0  0  0  0  0  0  0  0  0  0  0
    9.9160   -4.2855   16.5731 C   0  0  0  0  0  0  0  0  0  0  0  0
   10.1760   -4.0878   17.9051 C   0  0  0  0  0  0  0  0  0  0  0  0
    6.6833   -7.6398   17.8855 C   0  0  0  0  0  0  0  0  0  0  0  0
    6.1109   -8.2486   15.9877 N   0  0  0  0  0  0  0  0  0  0  0  0
   11.1415   -2.6592   19.6257 C   0  0  0  0  0  0  0  0  0  0  0  0
    9.5774   -0.6974   24.2232 C   0  0  0  0  0  0  0  0  0  0  0  0
    7.3808   -7.0192   16.9371 C   0  0  0  0  0  0  0  0  0  0  0  0
    9.5977    0.5610   23.5282 C   0  0  0  0  0  0  0  0  0  0  0  0
    8.4059    0.3903   26.1043 C   0  0  0  0  0  0  0  0  0  0  0  0
   10.4489   -1.8726   22.1853 N   0  0  0  0  0  0  0  0  0  0  0  0
    9.8333   -4.7007   20.1974 C   0  0  0  0  0  0  0  0  0  0  0  0
    9.9859   -3.0495   24.0224 N   0  0  0  0  0  0  0  0  0  0  0  0
    7.0582   -7.4000   15.7529 N   0  0  0  0  0  0  0  0  0  0  0  0
    5.8101   -8.3767   17.2758 N   0  0  0  0  0  0  0  0  0  0  0  0
    8.4457   -6.0727   17.1407 C   0  0  0  0  0  0  0  0  0  0  0  0
    9.0911   -5.3069   16.1974 C   0  0  0  0  0  0  0  0  0  0  0  0
   10.3970   -3.9204   23.0044 O   0  0  0  0  0  0  0  0  0  0  0  0
    9.6279   -4.8747   18.8627 C   0  0  0  0  0  0  0  0  0  0  0  0
    9.0976    1.6821   24.1899 C   0  0  0  0  0  0  0  0  0  0  0  0
   10.9333   -2.9845   18.2778 N   0  0  0  0  0  0  0  0  0  0  0  0
   10.4354   -3.1456   21.8867 C   0  0  0  0  0  0  0  0  0  0  0  0
    8.8046   -5.8894   18.4618 N   0  0  0  0  0  0  0  0  0  0  0  0
    9.0193   -0.7804   25.5259 C   0  0  0  0  0  0  0  0  0  0  0  0
   10.5905   -3.5114   20.5338 C   0  0  0  0  0  0  0  0  0  0  0  0
    8.5371    1.5944   25.4302 He  0  0  0  0  0  0  0  0  0  0  0  0
  1  7  1  0
  1 11  4  0
  1 13  4  0
  2  3  4  0
  2 17  4  0
  3 19  4  0
  3 21  4  0
  3 24  1  0
  4  8  4  0
  4 15  4  0
  5 14  4  0
  5 15  4  0
  6 16  2  0
  6 21  4  0
  6 25  4  0
  7  9  4  0
  7 24  4  0
  8 14  4  0
  8 16  1  0
  9 20  4  0
 10 12  2  0
 10 24  4  0
 11 22  4  0
 12 19  4  0
 12 25  4  0
 13 18  4  0
 16 17  4  0
 16 23  4  0
 18 22  4  0
 19 23  4  0
 22 25  1  0
M  END
$$$$

 Created by Python create_sdf_string function

 26 31  0  0  0  0  0  0  0  0999 V2000
   10.0078   -1.8561   23.4661 C   0  0  0  0  0  0  0  0  0  0  0  0
    9.9158   -4.2799   16.5972 C   0  0  0  0  0  0  0  0  0  0  0  0
   10.2206   -4.0741   17.8810 C   0  0  0  0  0  0  0  0  0  0  0  0
    8.4843    1.5600   25.3862 N   0  0  0  0  0  0  0  0  0  0  0  0
    6.1339   -8.2100   15.9697 N   0  0  0  0  0  0  0  0  0  0  0  0
   11.1156   -2.6998   19.5835 C   0  0  0  0  0  0  0  0  0  0  0  0
    9.5051   -0.6554   24.2387 C   0  0  0  0  0  0  0  0  0  0  0  0
    7.4368   -6.9455   16.9400 C   0  0  0  0  0  0  0  0  0  0  0  0
    9.6089    0.5360   23.5688 C   0  0  0  0  0  0  0  0  0  0  0  0
    8.4470    0.4138   26.1323 C   0  0  0  0  0  0  0  0  0  0  0  0
   10.3833   -1.9001   22.2125 N   0  0  0  0  0  0  0  0  0  0  0  0
    9.9001   -4.6720   20.2204 C   0  0  0  0  0  0  0  0  0  0  0  0
   10.0305   -3.0466   24.0125 N   0  0  0  0  0  0  0  0  0  0  0  0
    7.0746   -7.3705   15.7912 N   0  0  0  0  0  0  0  0  0  0  0  0
    5.7870   -8.3761   17.2564 N   0  0  0  0  0  0  0  0  0  0  0  0
    8.4642   -6.0824   17.1669 C   0  0  0  0  0  0  0  0  0  0  0  0
    9.0860   -5.2784   16.1498 C   0  0  0  0  0  0  0  0  0  0  0  0
   10.3805   -3.9045   22.9801 O   0  0  0  0  0  0  0  0  0  0  0  0
    9.6502   -4.9005   18.8364 C   0  0  0  0  0  0  0  0  0  0  0  0
    9.1405    1.6743   24.0844 C   0  0  0  0  0  0  0  0  0  0  0  0
   10.9781   -2.9891   18.3000 N   0  0  0  0  0  0  0  0  0  0  0  0
   10.4682   -3.1089   21.8865 C   0  0  0  0  0  0  0  0  0  0  0  0
    8.7928   -5.8894   18.4597 N   0  0  0  0  0  0  0  0  0  0  0  0
    9.0010   -0.7417   25.4999 C   0  0  0  0  0  0  0  0  0  0  0  0
   10.4859   -3.5053   20.5827 C   0  0  0  0  0  0  0  0  0  0  0  0
    6.6829   -7.6136   17.8746 He  0  0  0  0  0  0  0  0  0  0  0  0
  1  7  1  0
  1 11  4  0
  1 13  4  0
  2  3  4  0
  2 17  4  0
  3 19  4  0
  3 21  4  0
  4 10  4  0
  4 20  4  0
  4 22  2  0
  5 14  4  0
  5 15  4  0
  6 21  4  0
  6 25  4  0
  7  9  4  0
  7 14  3  0
  7 24  4  0
  8 14  4  0
  8 16  1  0
  9 20  4  0
 10 24  4  0
 11 22  4  0
 12 19  4  0
 12 25  4  0
 13 18  4  0
 13 21  4  0
 16 17  4  0
 16 23  4  0
 18 22  4  0
 19 23  4  0
 22 25  1  0
M  END
$$$$

 Created by Python create_sdf_string function

 26 26  0  0  0  0  0  0  0  0999 V2000
   10.0011   -1.7767   23.5282 C   0  0  0  0  0  0  0  0  0  0  0  0
    9.9067   -4.2957   16.6341 C   0  0  0  0  0  0  0  0  0  0  0  0
   10.2685   -4.0448   17.8846 C   0  0  0  0  0  0  0  0  0  0  0  0
    8.5437    1.6468   25.3570 N   0  0  0  0  0  0  0  0  0  0  0  0
    6.7005   -7.5377   17.9004 C   0  0  0  0  0  0  0  0  0  0  0  0
    6.1384   -8.2256   15.9932 N   0  0  0  0  0  0  0  0  0  0  0  0
   11.1306   -2.7227   19.5728 C   0  0  0  0  0  0  0  0  0  0  0  0
    9.5293   -0.6752   24.2253 S   0  0  0  0  0  0  0  0  0  0  0  0
    7.5019   -6.9528   16.9878 C   0  0  0  0  0  0  0  0  0  0  0  0
    9.6160    0.5731   23.5684 C   0  0  0  0  0  0  0  0  0  0  0  0
    8.4377    0.3725   26.1158 C   0  0  0  0  0  0  0  0  0  0  0  0
   10.4036   -1.8806   22.2681 N   0  0  0  0  0  0  0  0  0  0  0  0
    9.9509   -4.6793   20.2739 C   0  0  0  0  0  0  0  0  0  0  0  0
    8.4350   -6.0492   17.2186 C   0  0  0  0  0  0  0  0  0  0  0  0
    9.1293   -5.2690   16.2134 C   0  0  0  0  0  0  0  0  0  0  0  0
   10.4125   -3.9110   22.9732 O   0  0  0  0  0  0  0  0  0  0  0  0
    9.6417   -4.9024   18.8480 C   0  0  0  0  0  0  0  0  0  0  0  0
    9.1134    1.6890   24.1658 C   0  0  0  0  0  0  0  0  0  0  0  0
   10.9657   -3.0081   18.2845 N   0  0  0  0  0  0  0  0  0  0  0  0
   10.4367   -3.1092   21.8579 C   0  0  0  0  0  0  0  0  0  0  0  0
    8.8302   -5.8837   18.4194 N   0  0  0  0  0  0  0  0  0  0  0  0
    8.9777   -0.7411   25.4884 C   0  0  0  0  0  0  0  0  0  0  0  0
   10.5417   -3.5199   20.5343 C   0  0  0  0  0  0  0  0  0  0  0  0
   10.0401   -3.0499   24.0308 He  0  0  0  0  0  0  0  0  0  0  0  0
    7.1037   -7.3423   15.7278 He  0  0  0  0  0  0  0  0  0  0  0  0
    5.8977   -8.3543   17.2524 He  0  0  0  0  0  0  0  0  0  0  0  0
  1  8  1  0
  1 12  4  0
  1 16  1  0
  2  3  4  0
  2 11  2  0
  2 15  4  0
  3 17  4  0
  3 19  4  0
  4 11  4  0
  4 18  4  0
  5  9  4  0
  7 19  4  0
  7 23  4  0
  8 10  3  0
  8 22  4  0
  9 14  1  0
 10 18  4  0
 11 22  4  0
 12 20  4  0
 13 17  4  0
 13 23  4  0
 14 15  4  0
 14 21  4  0
 16 20  4  0
 17 21  4  0
 20 23  1  0
M  END
$$$$

 Created by Python create_sdf_string function

 26 29  0  0  0  0  0  0  0  0999 V2000
    9.9376   -1.8335   23.5499 C   0  0  0  0  0  0  0  0  0  0  0  0
    9.9479   -4.2809   16.5930 C   0  0  0  0  0  0  0  0  0  0  0  0
   10.2274   -4.0437   17.9029 C   0  0  0  0  0  0  0  0  0  0  0  0
    8.5087    1.5705   25.4174 N   0  0  0  0  0  0  0  0  0  0  0  0
    6.6908   -7.5461   17.8887 C   0  0  0  0  0  0  0  0  0  0  0  0
    6.1720   -8.2219   15.9999 N   0  0  0  0  0  0  0  0  0  0  0  0
   11.1348   -2.7091   19.5744 F   0  0  0  0  0  0  0  0  0  0  0  0
    9.5285   -0.6506   24.2120 C   0  0  0  0  0  0  0  0  0  0  0  0
    7.5154   -6.9185   16.9647 C   0  0  0  0  0  0  0  0  0  0  0  0
    9.6280    0.5303   23.5498 C   0  0  0  0  0  0  0  0  0  0  0  0
    8.4629    0.3874   26.0868 C   0  0  0  0  0  0  0  0  0  0  0  0
   10.3816   -1.8662   22.2609 N   0  0  0  0  0  0  0  0  0  0  0  0
    9.9012   -4.6796   20.2353 C   0  0  0  0  0  0  0  0  0  0  0  0
   10.0192   -3.0459   24.0691 N   0  0  0  0  0  0  0  0  0  0  0  0
    7.1228   -7.3501   15.7414 C   0  0  0  0  0  0  0  0  0  0  0  0
    5.9140   -8.3411   17.2442 N   0  0  0  0  0  0  0  0  0  0  0  0
    8.4673   -6.0509   17.2029 C   0  0  0  0  0  0  0  0  0  0  0  0
    9.0982   -5.2486   16.2129 C   0  0  0  0  0  0  0  0  0  0  0  0
   10.4148   -3.8663   22.9802 O   0  0  0  0  0  0  0  0  0  0  0  0
    9.7009   -4.9032   18.8688 C   0  0  0  0  0  0  0  0  0  0  0  0
    9.1395    1.6737   24.1338 C   0  0  0  0  0  0  0  0  0  0  0  0
   10.9821   -3.0083   18.2589 N   0  0  0  0  0  0  0  0  0  0  0  0
   10.5087   -3.0754   21.8598 C   0  0  0  0  0  0  0  0  0  0  0  0
    8.8424   -5.8573   18.4956 N   0  0  0  0  0  0  0  0  0  0  0  0
   10.5302   -3.5063   20.5039 C   0  0  0  0  0  0  0  0  0  0  0  0
    8.9785   -0.7801   25.5151 He  0  0  0  0  0  0  0  0  0  0  0  0
  1  8  1  0
  1 12  4  0
  1 14  4  0
  2  3  4  0
  2 18  4  0
  3 20  4  0
  3 22  4  0
  4 11  4  0
  4 21  4  0
  5  9  4  0
  5 16  4  0
  5 19  2  0
  6 15  4  0
  6 16  4  0
  7 22  4  0
  7 25  4  0
  8 10  4  0
  9 15  4  0
  9 17  1  0
 10 21  4  0
 12 23  4  0
 13 20  4  0
 13 25  4  0
 14 19  4  0
 17 18  4  0
 17 24  4  0
 19 23  4  0
 20 24  4  0
 23 25  1  0
M  END
$$$$

 Created by Python create_sdf_string function

 26 31  0  0  0  0  0  0  0  0999 V2000
    9.9563   -1.8371   23.5241 C   0  0  0  0  0  0  0  0  0  0  0  0
    9.9596   -4.2968   16.5682 C   0  0  0  0  0  0  0  0  0  0  0  0
   10.2476   -4.0543   17.9116 C   0  0  0  0  0  0  0  0  0  0  0  0
    8.5123    1.5826   25.3728 N   0  0  0  0  0  0  0  0  0  0  0  0
    6.7123   -7.5407   17.8844 C   0  0  0  0  0  0  0  0  0  0  0  0
    6.1536   -8.2042   15.9794 N   0  0  0  0  0  0  0  0  0  0  0  0
   11.1462   -2.7008   19.5825 C   0  0  0  0  0  0  0  0  0  0  0  0
    9.5169   -0.6662   24.2204 C   0  0  0  0  0  0  0  0  0  0  0  0
    7.4781   -6.9332   16.9516 C   0  0  0  0  0  0  0  0  0  0  0  0
    9.6629    0.5541   23.5332 C   0  0  0  0  0  0  0  0  0  0  0  0
    8.4384    0.3805   26.0867 C   0  0  0  0  0  0  0  0  0  0  0  0
   10.4057   -1.8480   22.2529 N   0  0  0  0  0  0  0  0  0  0  0  0
    9.8948   -4.6748   20.2032 C   0  0  0  0  0  0  0  0  0  0  0  0
   10.0291   -3.0466   24.0389 N   0  0  0  0  0  0  0  0  0  0  0  0
    7.1119   -7.3702   15.7844 C   0  0  0  0  0  0  0  0  0  0  0  0
    5.8966   -8.3328   17.2478 N   0  0  0  0  0  0  0  0  0  0  0  0
    8.4735   -6.0426   17.2133 C   0  0  0  0  0  0  0  0  0  0  0  0
    9.1262   -5.2366   16.2077 C   0  0  0  0  0  0  0  0  0  0  0  0
   10.3947   -3.8633   22.9636 O   0  0  0  0  0  0  0  0  0  0  0  0
    9.6769   -4.8704   18.8577 C   0  0  0  0  0  0  0  0  0  0  0  0
    9.1176    1.6698   24.1601 C   0  0  0  0  0  0  0  0  0  0  0  0
   11.0172   -3.0000   18.2536 N   0  0  0  0  0  0  0  0  0  0  0  0
   10.4629   -3.0830   21.8735 C   0  0  0  0  0  0  0  0  0  0  0  0
    8.8415   -5.8570   18.4814 N   0  0  0  0  0  0  0  0  0  0  0  0
    8.9704   -0.7804   25.4749 C   0  0  0  0  0  0  0  0  0  0  0  0
   10.5692   -3.5003   20.5381 C   0  0  0  0  0  0  0  0  0  0  0  0
  1  8  1  0
  1 12  4  0
  1 14  4  0
  2  3  4  0
  2 18  4  0
  3 20  4  0
  3 22  4  0
  4 11  4  0
  4 21  4  0
  5  9  4  0
  5 16  4  0
  6 15  4  0
  6 16  4  0
  7 22  4  0
  7 26  4  0
  8 10  4  0
  8 25  4  0
  9 15  4  0
  9 17  1  0
 10 21  4  0
 10 24  3  0
 11 25  4  0
 12 23  4  0
 13 20  4  0
 13 26  4  0
 14 19  4  0
 17 18  4  0
 17 24  4  0
 19 23  4  0
 20 24  4  0
 23 26  1  0
M  END
$$$$

 Created by Python create_sdf_string function

 26 31  0  0  0  0  0  0  0  0999 V2000
    9.9734   -1.8151   23.5389 C   0  0  0  0  0  0  0  0  0  0  0  0
    9.9599   -4.2674   16.5714 C   0  0  0  0  0  0  0  0  0  0  0  0
   10.2555   -4.0343   17.8966 C   0  0  0  0  0  0  0  0  0  0  0  0
    8.5242    1.5680   25.3842 N   0  0  0  0  0  0  0  0  0  0  0  0
    6.7326   -7.5562   17.8821 C   0  0  0  0  0  0  0  0  0  0  0  0
    6.1521   -8.2234   15.9573 N   0  0  0  0  0  0  0  0  0  0  0  0
   11.1562   -2.6997   19.5666 C   0  0  0  0  0  0  0  0  0  0  0  0
    9.5584   -0.6476   24.1933 C   0  0  0  0  0  0  0  0  0  0  0  0
    7.5132   -6.9568   16.9802 C   0  0  0  0  0  0  0  0  0  0  0  0
    9.6872    0.5505   23.5327 C   0  0  0  0  0  0  0  0  0  0  0  0
    8.4519    0.3635   26.0917 C   0  0  0  0  0  0  0  0  0  0  0  0
   10.3986   -1.8155   22.2414 N   0  0  0  0  0  0  0  0  0  0  0  0
    9.9214   -4.6561   20.1883 C   0  0  0  0  0  0  0  0  0  0  0  0
   10.0247   -3.0499   24.0310 N   0  0  0  0  0  0  0  0  0  0  0  0
    7.1202   -7.3725   15.7610 C   0  0  0  0  0  0  0  0  0  0  0  0
    5.9038   -8.3182   17.2532 N   0  0  0  0  0  0  0  0  0  0  0  0
    8.5078   -6.0025   17.2033 C   0  0  0  0  0  0  0  0  0  0  0  0
    9.1433   -5.2330   16.2106 C   0  0  0  0  0  0  0  0  0  0  0  0
   10.3582   -3.8600   22.9616 O   0  0  0  0  0  0  0  0  0  0  0  0
    9.6829   -4.8853   18.8601 C   0  0  0  0  0  0  0  0  0  0  0  0
    9.1455    1.7137   24.1316 C   0  0  0  0  0  0  0  0  0  0  0  0
   11.0125   -2.9988   18.2833 N   0  0  0  0  0  0  0  0  0  0  0  0
   10.4896   -3.0918   21.8639 C   0  0  0  0  0  0  0  0  0  0  0  0
    8.8548   -5.8432   18.4731 N   0  0  0  0  0  0  0  0  0  0  0  0
    8.9725   -0.7826   25.4779 C   0  0  0  0  0  0  0  0  0  0  0  0
   10.5658   -3.4725   20.5180 C   0  0  0  0  0  0  0  0  0  0  0  0
  1  8  1  0
  1 12  4  0
  1 14  4  0
  2  3  4  0
  2 18  4  0
  3 20  4  0
  3 22  4  0
  3 24  2  0
  4 11  4  0
  4 21  4  0
  5  9  4  0
  5 16  4  0
  6 15  4  0
  6 16  4  0
  7 22  4  0
  7 26  4  0
  8 10  4  0
  8 25  4  0
  9 15  4  0
  9 17  1  0
 10 21  4  0
 11 25  4  0
 12 23  4  0
 13 20  4  0
 13 26  4  0
 14 19  4  0
 17 18  4  0
 17 24  4  0
 19 23  4  0
 20 24  4  0
 23 26  1  0
M  END
$$$$

 Created by Python create_sdf_string function

 26 31  0  0  0  0  0  0  0  0999 V2000
   10.0064   -1.8062   23.5284 C   0  0  0  0  0  0  0  0  0  0  0  0
    9.9768   -4.2664   16.5666 C   0  0  0  0  0  0  0  0  0  0  0  0
   10.2477   -4.0365   17.8957 C   0  0  0  0  0  0  0  0  0  0  0  0
    8.5394    1.5591   25.3874 N   0  0  0  0  0  0  0  0  0  0  0  0
    6.7592   -7.5634   17.8808 C   0  0  0  0  0  0  0  0  0  0  0  0
    6.1668   -8.2233   15.9696 N   0  0  0  0  0  0  0  0  0  0  0  0
   11.1588   -2.6818   19.5591 C   0  0  0  0  0  0  0  0  0  0  0  0
    9.5460   -0.6465   24.2023 C   0  0  0  0  0  0  0  0  0  0  0  0
    7.5095   -6.9403   16.9499 C   0  0  0  0  0  0  0  0  0  0  0  0
    9.6850    0.5640   23.5262 C   0  0  0  0  0  0  0  0  0  0  0  0
    8.4479    0.3714   26.0786 C   0  0  0  0  0  0  0  0  0  0  0  0
   10.4057   -1.7992   22.2321 N   0  0  0  0  0  0  0  0  0  0  0  0
    9.9583   -4.6184   20.1850 C   0  0  0  0  0  0  0  0  0  0  0  0
   10.0289   -3.0542   24.0152 N   0  0  0  0  0  0  0  0  0  0  0  0
    7.1147   -7.3744   15.7619 C   0  0  0  0  0  0  0  0  0  0  0  0
    5.9330   -8.3233   17.2614 N   0  0  0  0  0  0  0  0  0  0  0  0
    8.5185   -6.0135   17.1803 C   0  0  0  0  0  0  0  0  0  0  0  0
    9.1337   -5.2185   16.2085 C   0  0  0  0  0  0  0  0  0  0  0  0
   10.3541   -3.8476   22.9569 O   0  0  0  0  0  0  0  0  0  0  0  0
    9.6803   -4.8700   18.8550 C   0  0  0  0  0  0  0  0  0  0  0  0
    9.1556    1.7038   24.1368 C   0  0  0  0  0  0  0  0  0  0  0  0
   11.0274   -2.9890   18.2731 N   0  0  0  0  0  0  0  0  0  0  0  0
   10.4783   -3.0589   21.8763 C   0  0  0  0  0  0  0  0  0  0  0  0
    8.8496   -5.8277   18.4718 N   0  0  0  0  0  0  0  0  0  0  0  0
    8.9760   -0.7874   25.4765 C   0  0  0  0  0  0  0  0  0  0  0  0
   10.5513   -3.4751   20.5404 C   0  0  0  0  0  0  0  0  0  0  0  0
  1  8  1  0
  1 12  4  0
  1 14  4  0
  2  3  4  0
  2 18  4  0
  3 20  4  0
  3 22  4  0
  4 11  4  0
  4 21  4  0
  5  9  4  0
  5 16  4  0
  6 15  4  0
  6 16  4  0
  7 22  4  0
  7 26  4  0
  8 10  4  0
  8 25  4  0
  9 15  4  0
  9 17  1  0
 10 17  3  0
 10 21  4  0
 11 25  4  0
 12 23  4  0
 13 20  4  0
 13 26  4  0
 14 19  4  0
 17 18  4  0
 17 24  4  0
 19 23  4  0
 20 24  4  0
 23 26  1  0
M  END
$$$$

 Created by Python create_sdf_string function

 26 30  0  0  0  0  0  0  0  0999 V2000
   10.0012   -1.8093   23.5095 C   0  0  0  0  0  0  0  0  0  0  0  0
    9.9874   -4.2572   16.5624 C   0  0  0  0  0  0  0  0  0  0  0  0
   10.2616   -4.0116   17.8852 C   0  0  0  0  0  0  0  0  0  0  0  0
    8.5556    1.5542   25.3822 N   0  0  0  0  0  0  0  0  0  0  0  0
    6.7864   -7.5510   17.8813 C   0  0  0  0  0  0  0  0  0  0  0  0
    6.1655   -8.2256   15.9763 N   0  0  0  0  0  0  0  0  0  0  0  0
   11.1685   -2.6782   19.5634 C   0  0  0  0  0  0  0  0  0  0  0  0
    9.5471   -0.6378   24.1962 C   0  0  0  0  0  0  0  0  0  0  0  0
    7.5153   -6.9332   16.9524 C   0  0  0  0  0  0  0  0  0  0  0  0
    9.6769    0.5685   23.5250 C   0  0  0  0  0  0  0  0  0  0  0  0
    8.4459    0.3541   26.0847 C   0  0  0  0  0  0  0  0  0  0  0  0
   10.4163   -1.7798   22.2222 N   0  0  0  0  0  0  0  0  0  0  0  0
    9.9449   -4.6070   20.1777 C   0  0  0  0  0  0  0  0  0  0  0  0
   10.0330   -3.0603   23.9997 N   0  0  0  0  0  0  0  0  0  0  0  0
    7.1139   -7.3709   15.7693 C   0  0  0  0  0  0  0  0  0  0  0  0
    5.9467   -8.3255   17.2664 N   0  0  0  0  0  0  0  0  0  0  0  0
    8.5324   -5.9937   17.1887 C   0  0  0  0  0  0  0  0  0  0  0  0
    9.1425   -5.2157   16.2108 C   0  0  0  0  0  0  0  0  0  0  0  0
   10.3436   -3.8367   22.9424 O   0  0  0  0  0  0  0  0  0  0  0  0
    9.6900   -4.8550   18.8586 C   0  0  0  0  0  0  0  0  0  0  0  0
    9.1574    1.7038   24.1374 C   0  0  0  0  0  0  0  0  0  0  0  0
   11.0363   -2.9851   18.2760 N   0  0  0  0  0  0  0  0  0  0  0  0
   10.4744   -3.0582   21.8691 C   0  0  0  0  0  0  0  0  0  0  0  0
    8.8606   -5.8195   18.4734 N   0  0  0  0  0  0  0  0  0  0  0  0
    8.9817   -0.7879   25.4600 C   0  0  0  0  0  0  0  0  0  0  0  0
   10.5611   -3.4548   20.5369 C   0  0  0  0  0  0  0  0  0  0  0  0
  1  8  1  0
  1 12  4  0
  1 14  4  0
  2  3  4  0
  2 18  4  0
  3 20  4  0
  3 22  4  0
  4 11  4  0
  4 21  4  0
  5  9  4  0
  5 16  4  0
  6 15  4  0
  6 16  4  0
  7 22  4  0
  7 26  4  0
  8 10  4  0
  8 25  4  0
  9 15  4  0
  9 17  1  0
 10 21  4  0
 11 25  4  0
 12 23  4  0
 13 20  4  0
 13 26  4  0
 14 19  4  0
 17 18  4  0
 17 24  4  0
 19 23  4  0
 20 24  4  0
 23 26  1  0
M  END
$$$$

 Created by Python create_sdf_string function

 26 30  0  0  0  0  0  0  0  0999 V2000
   10.0084   -1.8019   23.4945 C   0  0  0  0  0  0  0  0  0  0  0  0
   10.0005   -4.2520   16.5631 C   0  0  0  0  0  0  0  0  0  0  0  0
   10.2759   -4.0036   17.8845 C   0  0  0  0  0  0  0  0  0  0  0  0
    8.5652    1.5478   25.3778 N   0  0  0  0  0  0  0  0  0  0  0  0
    6.8048   -7.5457   17.8752 C   0  0  0  0  0  0  0  0  0  0  0  0
    6.1721   -8.2186   15.9886 N   0  0  0  0  0  0  0  0  0  0  0  0
   11.1764   -2.6600   19.5604 C   0  0  0  0  0  0  0  0  0  0  0  0
    9.5491   -0.6380   24.1912 C   0  0  0  0  0  0  0  0  0  0  0  0
    7.5337   -6.9256   16.9519 C   0  0  0  0  0  0  0  0  0  0  0  0
    9.6782    0.5671   23.5143 C   0  0  0  0  0  0  0  0  0  0  0  0
    8.4532    0.3482   26.0821 C   0  0  0  0  0  0  0  0  0  0  0  0
   10.4239   -1.7677   22.2230 N   0  0  0  0  0  0  0  0  0  0  0  0
    9.9468   -4.5953   20.1709 C   0  0  0  0  0  0  0  0  0  0  0  0
   10.0366   -3.0590   23.9864 N   0  0  0  0  0  0  0  0  0  0  0  0
    7.1191   -7.3636   15.7739 C   0  0  0  0  0  0  0  0  0  0  0  0
    5.9612   -8.3203   17.2732 N   0  0  0  0  0  0  0  0  0  0  0  0
    8.5296   -5.9814   17.1841 C   0  0  0  0  0  0  0  0  0  0  0  0
    9.1527   -5.2118   16.2116 C   0  0  0  0  0  0  0  0  0  0  0  0
   10.3364   -3.8368   22.9255 O   0  0  0  0  0  0  0  0  0  0  0  0
    9.6947   -4.8407   18.8534 C   0  0  0  0  0  0  0  0  0  0  0  0
    9.1596    1.7042   24.1381 C   0  0  0  0  0  0  0  0  0  0  0  0
   11.0456   -2.9774   18.2694 N   0  0  0  0  0  0  0  0  0  0  0  0
   10.4788   -3.0457   21.8593 C   0  0  0  0  0  0  0  0  0  0  0  0
    8.8693   -5.8099   18.4657 N   0  0  0  0  0  0  0  0  0  0  0  0
    8.9892   -0.7926   25.4573 C   0  0  0  0  0  0  0  0  0  0  0  0
   10.5677   -3.4462   20.5323 C   0  0  0  0  0  0  0  0  0  0  0  0
  1  8  1  0
  1 12  4  0
  1 14  4  0
  2  3  4  0
  2 18  4  0
  3 20  4  0
  3 22  4  0
  4 11  4  0
  4 21  4  0
  5  9  4  0
  5 16  4  0
  6 15  4  0
  6 16  4  0
  7 22  4  0
  7 26  4  0
  8 10  4  0
  8 25  4  0
  9 15  4  0
  9 17  1  0
 10 21  4  0
 11 25  4  0
 12 23  4  0
 13 20  4  0
 13 26  4  0
 14 19  4  0
 17 18  4  0
 17 24  4  0
 19 23  4  0
 20 24  4  0
 23 26  1  0
M  END
$$$$

 Created by Python create_sdf_string function

 26 30  0  0  0  0  0  0  0  0999 V2000
   10.0084   -1.8019   23.4945 C   0  0  0  0  0  0  0  0  0  0  0  0
   10.0005   -4.2520   16.5631 C   0  0  0  0  0  0  0  0  0  0  0  0
   10.2759   -4.0036   17.8845 C   0  0  0  0  0  0  0  0  0  0  0  0
    8.5652    1.5478   25.3778 N   0  0  0  0  0  0  0  0  0  0  0  0
    6.8048   -7.5457   17.8752 C   0  0  0  0  0  0  0  0  0  0  0  0
    6.1721   -8.2186   15.9886 N   0  0  0  0  0  0  0  0  0  0  0  0
   11.1764   -2.6600   19.5604 C   0  0  0  0  0  0  0  0  0  0  0  0
    9.5491   -0.6380   24.1912 C   0  0  0  0  0  0  0  0  0  0  0  0
    7.5337   -6.9256   16.9519 C   0  0  0  0  0  0  0  0  0  0  0  0
    9.6782    0.5671   23.5143 C   0  0  0  0  0  0  0  0  0  0  0  0
    8.4532    0.3482   26.0821 C   0  0  0  0  0  0  0  0  0  0  0  0
   10.4239   -1.7677   22.2230 N   0  0  0  0  0  0  0  0  0  0  0  0
    9.9468   -4.5953   20.1709 C   0  0  0  0  0  0  0  0  0  0  0  0
   10.0366   -3.0590   23.9864 N   0  0  0  0  0  0  0  0  0  0  0  0
    7.1191   -7.3636   15.7739 C   0  0  0  0  0  0  0  0  0  0  0  0
    5.9612   -8.3203   17.2732 N   0  0  0  0  0  0  0  0  0  0  0  0
    8.5296   -5.9814   17.1841 C   0  0  0  0  0  0  0  0  0  0  0  0
    9.1527   -5.2118   16.2116 C   0  0  0  0  0  0  0  0  0  0  0  0
   10.3364   -3.8368   22.9255 O   0  0  0  0  0  0  0  0  0  0  0  0
    9.6947   -4.8407   18.8534 C   0  0  0  0  0  0  0  0  0  0  0  0
    9.1596    1.7042   24.1381 C   0  0  0  0  0  0  0  0  0  0  0  0
   11.0456   -2.9774   18.2694 N   0  0  0  0  0  0  0  0  0  0  0  0
   10.4788   -3.0457   21.8593 C   0  0  0  0  0  0  0  0  0  0  0  0
    8.8693   -5.8099   18.4657 N   0  0  0  0  0  0  0  0  0  0  0  0
    8.9892   -0.7926   25.4573 C   0  0  0  0  0  0  0  0  0  0  0  0
   10.5677   -3.4462   20.5323 C   0  0  0  0  0  0  0  0  0  0  0  0
  1  8  1  0
  1 12  4  0
  1 14  4  0
  2  3  4  0
  2 18  4  0
  3 20  4  0
  3 22  4  0
  4 11  4  0
  4 21  4  0
  5  9  4  0
  5 16  4  0
  6 15  4  0
  6 16  4  0
  7 22  4  0
  7 26  4  0
  8 10  4  0
  8 25  4  0
  9 15  4  0
  9 17  1  0
 10 21  4  0
 11 25  4  0
 12 23  4  0
 13 20  4  0
 13 26  4  0
 14 19  4  0
 17 18  4  0
 17 24  4  0
 19 23  4  0
 20 24  4  0
 23 26  1  0
M  END
$$$$

 Created by Python create_sdf_string function

 26 30  0  0  0  0  0  0  0  0999 V2000
   10.0084   -1.8019   23.4945 C   0  0  0  0  0  0  0  0  0  0  0  0
   10.0005   -4.2520   16.5631 C   0  0  0  0  0  0  0  0  0  0  0  0
   10.2759   -4.0036   17.8845 C   0  0  0  0  0  0  0  0  0  0  0  0
    8.5652    1.5478   25.3778 N   0  0  0  0  0  0  0  0  0  0  0  0
    6.8048   -7.5457   17.8752 C   0  0  0  0  0  0  0  0  0  0  0  0
    6.1721   -8.2186   15.9886 N   0  0  0  0  0  0  0  0  0  0  0  0
   11.1764   -2.6600   19.5604 C   0  0  0  0  0  0  0  0  0  0  0  0
    9.5491   -0.6380   24.1912 C   0  0  0  0  0  0  0  0  0  0  0  0
    7.5337   -6.9256   16.9519 C   0  0  0  0  0  0  0  0  0  0  0  0
    9.6782    0.5671   23.5143 C   0  0  0  0  0  0  0  0  0  0  0  0
    8.4532    0.3482   26.0821 C   0  0  0  0  0  0  0  0  0  0  0  0
   10.4239   -1.7677   22.2230 N   0  0  0  0  0  0  0  0  0  0  0  0
    9.9468   -4.5953   20.1709 C   0  0  0  0  0  0  0  0  0  0  0  0
   10.0366   -3.0590   23.9864 N   0  0  0  0  0  0  0  0  0  0  0  0
    7.1191   -7.3636   15.7739 C   0  0  0  0  0  0  0  0  0  0  0  0
    5.9612   -8.3203   17.2732 N   0  0  0  0  0  0  0  0  0  0  0  0
    8.5296   -5.9814   17.1841 C   0  0  0  0  0  0  0  0  0  0  0  0
    9.1527   -5.2118   16.2116 C   0  0  0  0  0  0  0  0  0  0  0  0
   10.3364   -3.8368   22.9255 O   0  0  0  0  0  0  0  0  0  0  0  0
    9.6947   -4.8407   18.8534 C   0  0  0  0  0  0  0  0  0  0  0  0
    9.1596    1.7042   24.1381 C   0  0  0  0  0  0  0  0  0  0  0  0
   11.0456   -2.9774   18.2694 N   0  0  0  0  0  0  0  0  0  0  0  0
   10.4788   -3.0457   21.8593 C   0  0  0  0  0  0  0  0  0  0  0  0
    8.8693   -5.8099   18.4657 N   0  0  0  0  0  0  0  0  0  0  0  0
    8.9892   -0.7926   25.4573 C   0  0  0  0  0  0  0  0  0  0  0  0
   10.5677   -3.4462   20.5323 C   0  0  0  0  0  0  0  0  0  0  0  0
  1  8  1  0
  1 12  4  0
  1 14  4  0
  2  3  4  0
  2 18  4  0
  3 20  4  0
  3 22  4  0
  4 11  4  0
  4 21  4  0
  5  9  4  0
  5 16  4  0
  6 15  4  0
  6 16  4  0
  7 22  4  0
  7 26  4  0
  8 10  4  0
  8 25  4  0
  9 15  4  0
  9 17  1  0
 10 21  4  0
 11 25  4  0
 12 23  4  0
 13 20  4  0
 13 26  4  0
 14 19  4  0
 17 18  4  0
 17 24  4  0
 19 23  4  0
 20 24  4  0
 23 26  1  0
M  END
$$$$

 Created by Python create_sdf_string function

 26 30  0  0  0  0  0  0  0  0999 V2000
   10.0084   -1.8019   23.4945 C   0  0  0  0  0  0  0  0  0  0  0  0
   10.0005   -4.2520   16.5631 C   0  0  0  0  0  0  0  0  0  0  0  0
   10.2759   -4.0036   17.8845 C   0  0  0  0  0  0  0  0  0  0  0  0
    8.5652    1.5478   25.3778 N   0  0  0  0  0  0  0  0  0  0  0  0
    6.8048   -7.5457   17.8752 C   0  0  0  0  0  0  0  0  0  0  0  0
    6.1721   -8.2186   15.9886 N   0  0  0  0  0  0  0  0  0  0  0  0
   11.1764   -2.6600   19.5604 C   0  0  0  0  0  0  0  0  0  0  0  0
    9.5491   -0.6380   24.1912 C   0  0  0  0  0  0  0  0  0  0  0  0
    7.5337   -6.9256   16.9519 C   0  0  0  0  0  0  0  0  0  0  0  0
    9.6782    0.5671   23.5143 C   0  0  0  0  0  0  0  0  0  0  0  0
    8.4532    0.3482   26.0821 C   0  0  0  0  0  0  0  0  0  0  0  0
   10.4239   -1.7677   22.2230 N   0  0  0  0  0  0  0  0  0  0  0  0
    9.9468   -4.5953   20.1709 C   0  0  0  0  0  0  0  0  0  0  0  0
   10.0366   -3.0590   23.9864 N   0  0  0  0  0  0  0  0  0  0  0  0
    7.1191   -7.3636   15.7739 C   0  0  0  0  0  0  0  0  0  0  0  0
    5.9612   -8.3203   17.2732 N   0  0  0  0  0  0  0  0  0  0  0  0
    8.5296   -5.9814   17.1841 C   0  0  0  0  0  0  0  0  0  0  0  0
    9.1527   -5.2118   16.2116 C   0  0  0  0  0  0  0  0  0  0  0  0
   10.3364   -3.8368   22.9255 O   0  0  0  0  0  0  0  0  0  0  0  0
    9.6947   -4.8407   18.8534 C   0  0  0  0  0  0  0  0  0  0  0  0
    9.1596    1.7042   24.1381 C   0  0  0  0  0  0  0  0  0  0  0  0
   11.0456   -2.9774   18.2694 N   0  0  0  0  0  0  0  0  0  0  0  0
   10.4788   -3.0457   21.8593 C   0  0  0  0  0  0  0  0  0  0  0  0
    8.8693   -5.8099   18.4657 N   0  0  0  0  0  0  0  0  0  0  0  0
    8.9892   -0.7926   25.4573 C   0  0  0  0  0  0  0  0  0  0  0  0
   10.5677   -3.4462   20.5323 C   0  0  0  0  0  0  0  0  0  0  0  0
  1  8  1  0
  1 12  4  0
  1 14  4  0
  2  3  4  0
  2 18  4  0
  3 20  4  0
  3 22  4  0
  4 11  4  0
  4 21  4  0
  5  9  4  0
  5 16  4  0
  6 15  4  0
  6 16  4  0
  7 22  4  0
  7 26  4  0
  8 10  4  0
  8 25  4  0
  9 15  4  0
  9 17  1  0
 10 21  4  0
 11 25  4  0
 12 23  4  0
 13 20  4  0
 13 26  4  0
 14 19  4  0
 17 18  4  0
 17 24  4  0
 19 23  4  0
 20 24  4  0
 23 26  1  0
M  END
$$$$

 Created by Python create_sdf_string function

 26 30  0  0  0  0  0  0  0  0999 V2000
   10.0084   -1.8019   23.4945 C   0  0  0  0  0  0  0  0  0  0  0  0
   10.0005   -4.2520   16.5631 C   0  0  0  0  0  0  0  0  0  0  0  0
   10.2759   -4.0036   17.8845 C   0  0  0  0  0  0  0  0  0  0  0  0
    8.5652    1.5478   25.3778 N   0  0  0  0  0  0  0  0  0  0  0  0
    6.8048   -7.5457   17.8752 C   0  0  0  0  0  0  0  0  0  0  0  0
    6.1721   -8.2186   15.9886 N   0  0  0  0  0  0  0  0  0  0  0  0
   11.1764   -2.6600   19.5604 C   0  0  0  0  0  0  0  0  0  0  0  0
    9.5491   -0.6380   24.1912 C   0  0  0  0  0  0  0  0  0  0  0  0
    7.5337   -6.9256   16.9519 C   0  0  0  0  0  0  0  0  0  0  0  0
    9.6782    0.5671   23.5143 C   0  0  0  0  0  0  0  0  0  0  0  0
    8.4532    0.3482   26.0821 C   0  0  0  0  0  0  0  0  0  0  0  0
   10.4239   -1.7677   22.2230 N   0  0  0  0  0  0  0  0  0  0  0  0
    9.9468   -4.5953   20.1709 C   0  0  0  0  0  0  0  0  0  0  0  0
   10.0366   -3.0590   23.9864 N   0  0  0  0  0  0  0  0  0  0  0  0
    7.1191   -7.3636   15.7739 C   0  0  0  0  0  0  0  0  0  0  0  0
    5.9612   -8.3203   17.2732 N   0  0  0  0  0  0  0  0  0  0  0  0
    8.5296   -5.9814   17.1841 C   0  0  0  0  0  0  0  0  0  0  0  0
    9.1527   -5.2118   16.2116 C   0  0  0  0  0  0  0  0  0  0  0  0
   10.3364   -3.8368   22.9255 O   0  0  0  0  0  0  0  0  0  0  0  0
    9.6947   -4.8407   18.8534 C   0  0  0  0  0  0  0  0  0  0  0  0
    9.1596    1.7042   24.1381 C   0  0  0  0  0  0  0  0  0  0  0  0
   11.0456   -2.9774   18.2694 N   0  0  0  0  0  0  0  0  0  0  0  0
   10.4788   -3.0457   21.8593 C   0  0  0  0  0  0  0  0  0  0  0  0
    8.8693   -5.8099   18.4657 N   0  0  0  0  0  0  0  0  0  0  0  0
    8.9892   -0.7926   25.4573 C   0  0  0  0  0  0  0  0  0  0  0  0
   10.5677   -3.4462   20.5323 C   0  0  0  0  0  0  0  0  0  0  0  0
  1  8  1  0
  1 12  4  0
  1 14  4  0
  2  3  4  0
  2 18  4  0
  3 20  4  0
  3 22  4  0
  4 11  4  0
  4 21  4  0
  5  9  4  0
  5 16  4  0
  6 15  4  0
  6 16  4  0
  7 22  4  0
  7 26  4  0
  8 10  4  0
  8 25  4  0
  9 15  4  0
  9 17  1  0
 10 21  4  0
 11 25  4  0
 12 23  4  0
 13 20  4  0
 13 26  4  0
 14 19  4  0
 17 18  4  0
 17 24  4  0
 19 23  4  0
 20 24  4  0
 23 26  1  0
M  END
$$$$

 Created by Python create_sdf_string function

 26 30  0  0  0  0  0  0  0  0999 V2000
   10.0084   -1.8019   23.4945 C   0  0  0  0  0  0  0  0  0  0  0  0
   10.0005   -4.2520   16.5631 C   0  0  0  0  0  0  0  0  0  0  0  0
   10.2759   -4.0036   17.8845 C   0  0  0  0  0  0  0  0  0  0  0  0
    8.5652    1.5478   25.3778 N   0  0  0  0  0  0  0  0  0  0  0  0
    6.8048   -7.5457   17.8752 C   0  0  0  0  0  0  0  0  0  0  0  0
    6.1721   -8.2186   15.9886 N   0  0  0  0  0  0  0  0  0  0  0  0
   11.1764   -2.6600   19.5604 C   0  0  0  0  0  0  0  0  0  0  0  0
    9.5491   -0.6380   24.1912 C   0  0  0  0  0  0  0  0  0  0  0  0
    7.5337   -6.9256   16.9519 C   0  0  0  0  0  0  0  0  0  0  0  0
    9.6782    0.5671   23.5143 C   0  0  0  0  0  0  0  0  0  0  0  0
    8.4532    0.3482   26.0821 C   0  0  0  0  0  0  0  0  0  0  0  0
   10.4239   -1.7677   22.2230 N   0  0  0  0  0  0  0  0  0  0  0  0
    9.9468   -4.5953   20.1709 C   0  0  0  0  0  0  0  0  0  0  0  0
   10.0366   -3.0590   23.9864 N   0  0  0  0  0  0  0  0  0  0  0  0
    7.1191   -7.3636   15.7739 C   0  0  0  0  0  0  0  0  0  0  0  0
    5.9612   -8.3203   17.2732 N   0  0  0  0  0  0  0  0  0  0  0  0
    8.5296   -5.9814   17.1841 C   0  0  0  0  0  0  0  0  0  0  0  0
    9.1527   -5.2118   16.2116 C   0  0  0  0  0  0  0  0  0  0  0  0
   10.3364   -3.8368   22.9255 O   0  0  0  0  0  0  0  0  0  0  0  0
    9.6947   -4.8407   18.8534 C   0  0  0  0  0  0  0  0  0  0  0  0
    9.1596    1.7042   24.1381 C   0  0  0  0  0  0  0  0  0  0  0  0
   11.0456   -2.9774   18.2694 N   0  0  0  0  0  0  0  0  0  0  0  0
   10.4788   -3.0457   21.8593 C   0  0  0  0  0  0  0  0  0  0  0  0
    8.8693   -5.8099   18.4657 N   0  0  0  0  0  0  0  0  0  0  0  0
    8.9892   -0.7926   25.4573 C   0  0  0  0  0  0  0  0  0  0  0  0
   10.5677   -3.4462   20.5323 C   0  0  0  0  0  0  0  0  0  0  0  0
  1  8  1  0
  1 12  4  0
  1 14  4  0
  2  3  4  0
  2 18  4  0
  3 20  4  0
  3 22  4  0
  4 11  4  0
  4 21  4  0
  5  9  4  0
  5 16  4  0
  6 15  4  0
  6 16  4  0
  7 22  4  0
  7 26  4  0
  8 10  4  0
  8 25  4  0
  9 15  4  0
  9 17  1  0
 10 21  4  0
 11 25  4  0
 12 23  4  0
 13 20  4  0
 13 26  4  0
 14 19  4  0
 17 18  4  0
 17 24  4  0
 19 23  4  0
 20 24  4  0
 23 26  1  0
M  END
$$$$

 Created by Python create_sdf_string function

 26 30  0  0  0  0  0  0  0  0999 V2000
   10.0084   -1.8019   23.4945 C   0  0  0  0  0  0  0  0  0  0  0  0
   10.0005   -4.2520   16.5631 C   0  0  0  0  0  0  0  0  0  0  0  0
   10.2759   -4.0036   17.8845 C   0  0  0  0  0  0  0  0  0  0  0  0
    8.5652    1.5478   25.3778 N   0  0  0  0  0  0  0  0  0  0  0  0
    6.8048   -7.5457   17.8752 C   0  0  0  0  0  0  0  0  0  0  0  0
    6.1721   -8.2186   15.9886 N   0  0  0  0  0  0  0  0  0  0  0  0
   11.1764   -2.6600   19.5604 C   0  0  0  0  0  0  0  0  0  0  0  0
    9.5491   -0.6380   24.1912 C   0  0  0  0  0  0  0  0  0  0  0  0
    7.5337   -6.9256   16.9519 C   0  0  0  0  0  0  0  0  0  0  0  0
    9.6782    0.5671   23.5143 C   0  0  0  0  0  0  0  0  0  0  0  0
    8.4532    0.3482   26.0821 C   0  0  0  0  0  0  0  0  0  0  0  0
   10.4239   -1.7677   22.2230 N   0  0  0  0  0  0  0  0  0  0  0  0
    9.9468   -4.5953   20.1709 C   0  0  0  0  0  0  0  0  0  0  0  0
   10.0366   -3.0590   23.9864 N   0  0  0  0  0  0  0  0  0  0  0  0
    7.1191   -7.3636   15.7739 C   0  0  0  0  0  0  0  0  0  0  0  0
    5.9612   -8.3203   17.2732 N   0  0  0  0  0  0  0  0  0  0  0  0
    8.5296   -5.9814   17.1841 C   0  0  0  0  0  0  0  0  0  0  0  0
    9.1527   -5.2118   16.2116 C   0  0  0  0  0  0  0  0  0  0  0  0
   10.3364   -3.8368   22.9255 O   0  0  0  0  0  0  0  0  0  0  0  0
    9.6947   -4.8407   18.8534 C   0  0  0  0  0  0  0  0  0  0  0  0
    9.1596    1.7042   24.1381 C   0  0  0  0  0  0  0  0  0  0  0  0
   11.0456   -2.9774   18.2694 N   0  0  0  0  0  0  0  0  0  0  0  0
   10.4788   -3.0457   21.8593 C   0  0  0  0  0  0  0  0  0  0  0  0
    8.8693   -5.8099   18.4657 N   0  0  0  0  0  0  0  0  0  0  0  0
    8.9892   -0.7926   25.4573 C   0  0  0  0  0  0  0  0  0  0  0  0
   10.5677   -3.4462   20.5323 C   0  0  0  0  0  0  0  0  0  0  0  0
  1  8  1  0
  1 12  4  0
  1 14  4  0
  2  3  4  0
  2 18  4  0
  3 20  4  0
  3 22  4  0
  4 11  4  0
  4 21  4  0
  5  9  4  0
  5 16  4  0
  6 15  4  0
  6 16  4  0
  7 22  4  0
  7 26  4  0
  8 10  4  0
  8 25  4  0
  9 15  4  0
  9 17  1  0
 10 21  4  0
 11 25  4  0
 12 23  4  0
 13 20  4  0
 13 26  4  0
 14 19  4  0
 17 18  4  0
 17 24  4  0
 19 23  4  0
 20 24  4  0
 23 26  1  0
M  END
$$$$

 Created by Python create_sdf_string function

 26 30  0  0  0  0  0  0  0  0999 V2000
   10.0084   -1.8019   23.4945 C   0  0  0  0  0  0  0  0  0  0  0  0
   10.0005   -4.2520   16.5631 C   0  0  0  0  0  0  0  0  0  0  0  0
   10.2759   -4.0036   17.8845 C   0  0  0  0  0  0  0  0  0  0  0  0
    8.5652    1.5478   25.3778 N   0  0  0  0  0  0  0  0  0  0  0  0
    6.8048   -7.5457   17.8752 C   0  0  0  0  0  0  0  0  0  0  0  0
    6.1721   -8.2186   15.9886 N   0  0  0  0  0  0  0  0  0  0  0  0
   11.1764   -2.6600   19.5604 C   0  0  0  0  0  0  0  0  0  0  0  0
    9.5491   -0.6380   24.1912 C   0  0  0  0  0  0  0  0  0  0  0  0
    7.5337   -6.9256   16.9519 C   0  0  0  0  0  0  0  0  0  0  0  0
    9.6782    0.5671   23.5143 C   0  0  0  0  0  0  0  0  0  0  0  0
    8.4532    0.3482   26.0821 C   0  0  0  0  0  0  0  0  0  0  0  0
   10.4239   -1.7677   22.2230 N   0  0  0  0  0  0  0  0  0  0  0  0
    9.9468   -4.5953   20.1709 C   0  0  0  0  0  0  0  0  0  0  0  0
   10.0366   -3.0590   23.9864 N   0  0  0  0  0  0  0  0  0  0  0  0
    7.1191   -7.3636   15.7739 C   0  0  0  0  0  0  0  0  0  0  0  0
    5.9612   -8.3203   17.2732 N   0  0  0  0  0  0  0  0  0  0  0  0
    8.5296   -5.9814   17.1841 C   0  0  0  0  0  0  0  0  0  0  0  0
    9.1527   -5.2118   16.2116 C   0  0  0  0  0  0  0  0  0  0  0  0
   10.3364   -3.8368   22.9255 O   0  0  0  0  0  0  0  0  0  0  0  0
    9.6947   -4.8407   18.8534 C   0  0  0  0  0  0  0  0  0  0  0  0
    9.1596    1.7042   24.1381 C   0  0  0  0  0  0  0  0  0  0  0  0
   11.0456   -2.9774   18.2694 N   0  0  0  0  0  0  0  0  0  0  0  0
   10.4788   -3.0457   21.8593 C   0  0  0  0  0  0  0  0  0  0  0  0
    8.8693   -5.8099   18.4657 N   0  0  0  0  0  0  0  0  0  0  0  0
    8.9892   -0.7926   25.4573 C   0  0  0  0  0  0  0  0  0  0  0  0
   10.5677   -3.4462   20.5323 C   0  0  0  0  0  0  0  0  0  0  0  0
  1  8  1  0
  1 12  4  0
  1 14  4  0
  2  3  4  0
  2 18  4  0
  3 20  4  0
  3 22  4  0
  4 11  4  0
  4 21  4  0
  5  9  4  0
  5 16  4  0
  6 15  4  0
  6 16  4  0
  7 22  4  0
  7 26  4  0
  8 10  4  0
  8 25  4  0
  9 15  4  0
  9 17  1  0
 10 21  4  0
 11 25  4  0
 12 23  4  0
 13 20  4  0
 13 26  4  0
 14 19  4  0
 17 18  4  0
 17 24  4  0
 19 23  4  0
 20 24  4  0
 23 26  1  0
M  END
$$$$

 Created by Python create_sdf_string function

 26 30  0  0  0  0  0  0  0  0999 V2000
   10.0084   -1.8019   23.4945 C   0  0  0  0  0  0  0  0  0  0  0  0
   10.0005   -4.2520   16.5631 C   0  0  0  0  0  0  0  0  0  0  0  0
   10.2759   -4.0036   17.8845 C   0  0  0  0  0  0  0  0  0  0  0  0
    8.5652    1.5478   25.3778 N   0  0  0  0  0  0  0  0  0  0  0  0
    6.8048   -7.5457   17.8752 C   0  0  0  0  0  0  0  0  0  0  0  0
    6.1721   -8.2186   15.9886 N   0  0  0  0  0  0  0  0  0  0  0  0
   11.1764   -2.6600   19.5604 C   0  0  0  0  0  0  0  0  0  0  0  0
    9.5491   -0.6380   24.1912 C   0  0  0  0  0  0  0  0  0  0  0  0
    7.5337   -6.9256   16.9519 C   0  0  0  0  0  0  0  0  0  0  0  0
    9.6782    0.5671   23.5143 C   0  0  0  0  0  0  0  0  0  0  0  0
    8.4532    0.3482   26.0821 C   0  0  0  0  0  0  0  0  0  0  0  0
   10.4239   -1.7677   22.2230 N   0  0  0  0  0  0  0  0  0  0  0  0
    9.9468   -4.5953   20.1709 C   0  0  0  0  0  0  0  0  0  0  0  0
   10.0366   -3.0590   23.9864 N   0  0  0  0  0  0  0  0  0  0  0  0
    7.1191   -7.3636   15.7739 C   0  0  0  0  0  0  0  0  0  0  0  0
    5.9612   -8.3203   17.2732 N   0  0  0  0  0  0  0  0  0  0  0  0
    8.5296   -5.9814   17.1841 C   0  0  0  0  0  0  0  0  0  0  0  0
    9.1527   -5.2118   16.2116 C   0  0  0  0  0  0  0  0  0  0  0  0
   10.3364   -3.8368   22.9255 O   0  0  0  0  0  0  0  0  0  0  0  0
    9.6947   -4.8407   18.8534 C   0  0  0  0  0  0  0  0  0  0  0  0
    9.1596    1.7042   24.1381 C   0  0  0  0  0  0  0  0  0  0  0  0
   11.0456   -2.9774   18.2694 N   0  0  0  0  0  0  0  0  0  0  0  0
   10.4788   -3.0457   21.8593 C   0  0  0  0  0  0  0  0  0  0  0  0
    8.8693   -5.8099   18.4657 N   0  0  0  0  0  0  0  0  0  0  0  0
    8.9892   -0.7926   25.4573 C   0  0  0  0  0  0  0  0  0  0  0  0
   10.5677   -3.4462   20.5323 C   0  0  0  0  0  0  0  0  0  0  0  0
  1  8  1  0
  1 12  4  0
  1 14  4  0
  2  3  4  0
  2 18  4  0
  3 20  4  0
  3 22  4  0
  4 11  4  0
  4 21  4  0
  5  9  4  0
  5 16  4  0
  6 15  4  0
  6 16  4  0
  7 22  4  0
  7 26  4  0
  8 10  4  0
  8 25  4  0
  9 15  4  0
  9 17  1  0
 10 21  4  0
 11 25  4  0
 12 23  4  0
 13 20  4  0
 13 26  4  0
 14 19  4  0
 17 18  4  0
 17 24  4  0
 19 23  4  0
 20 24  4  0
 23 26  1  0
M  END
$$$$

 Created by Python create_sdf_string function

 26 30  0  0  0  0  0  0  0  0999 V2000
   10.0084   -1.8019   23.4945 C   0  0  0  0  0  0  0  0  0  0  0  0
   10.0005   -4.2520   16.5631 C   0  0  0  0  0  0  0  0  0  0  0  0
   10.2759   -4.0036   17.8845 C   0  0  0  0  0  0  0  0  0  0  0  0
    8.5652    1.5478   25.3778 N   0  0  0  0  0  0  0  0  0  0  0  0
    6.8048   -7.5457   17.8752 C   0  0  0  0  0  0  0  0  0  0  0  0
    6.1721   -8.2186   15.9886 N   0  0  0  0  0  0  0  0  0  0  0  0
   11.1764   -2.6600   19.5604 C   0  0  0  0  0  0  0  0  0  0  0  0
    9.5491   -0.6380   24.1912 C   0  0  0  0  0  0  0  0  0  0  0  0
    7.5337   -6.9256   16.9519 C   0  0  0  0  0  0  0  0  0  0  0  0
    9.6782    0.5671   23.5143 C   0  0  0  0  0  0  0  0  0  0  0  0
    8.4532    0.3482   26.0821 C   0  0  0  0  0  0  0  0  0  0  0  0
   10.4239   -1.7677   22.2230 N   0  0  0  0  0  0  0  0  0  0  0  0
    9.9468   -4.5953   20.1709 C   0  0  0  0  0  0  0  0  0  0  0  0
   10.0366   -3.0590   23.9864 N   0  0  0  0  0  0  0  0  0  0  0  0
    7.1191   -7.3636   15.7739 C   0  0  0  0  0  0  0  0  0  0  0  0
    5.9612   -8.3203   17.2732 N   0  0  0  0  0  0  0  0  0  0  0  0
    8.5296   -5.9814   17.1841 C   0  0  0  0  0  0  0  0  0  0  0  0
    9.1527   -5.2118   16.2116 C   0  0  0  0  0  0  0  0  0  0  0  0
   10.3364   -3.8368   22.9255 O   0  0  0  0  0  0  0  0  0  0  0  0
    9.6947   -4.8407   18.8534 C   0  0  0  0  0  0  0  0  0  0  0  0
    9.1596    1.7042   24.1381 C   0  0  0  0  0  0  0  0  0  0  0  0
   11.0456   -2.9774   18.2694 N   0  0  0  0  0  0  0  0  0  0  0  0
   10.4788   -3.0457   21.8593 C   0  0  0  0  0  0  0  0  0  0  0  0
    8.8693   -5.8099   18.4657 N   0  0  0  0  0  0  0  0  0  0  0  0
    8.9892   -0.7926   25.4573 C   0  0  0  0  0  0  0  0  0  0  0  0
   10.5677   -3.4462   20.5323 C   0  0  0  0  0  0  0  0  0  0  0  0
  1  8  1  0
  1 12  4  0
  1 14  4  0
  2  3  4  0
  2 18  4  0
  3 20  4  0
  3 22  4  0
  4 11  4  0
  4 21  4  0
  5  9  4  0
  5 16  4  0
  6 15  4  0
  6 16  4  0
  7 22  4  0
  7 26  4  0
  8 10  4  0
  8 25  4  0
  9 15  4  0
  9 17  1  0
 10 21  4  0
 11 25  4  0
 12 23  4  0
 13 20  4  0
 13 26  4  0
 14 19  4  0
 17 18  4  0
 17 24  4  0
 19 23  4  0
 20 24  4  0
 23 26  1  0
M  END
$$$$

 Created by Python create_sdf_string function

 26 30  0  0  0  0  0  0  0  0999 V2000
   10.0084   -1.8019   23.4945 C   0  0  0  0  0  0  0  0  0  0  0  0
   10.0005   -4.2520   16.5631 C   0  0  0  0  0  0  0  0  0  0  0  0
   10.2759   -4.0036   17.8845 C   0  0  0  0  0  0  0  0  0  0  0  0
    8.5652    1.5478   25.3778 N   0  0  0  0  0  0  0  0  0  0  0  0
    6.8048   -7.5457   17.8752 C   0  0  0  0  0  0  0  0  0  0  0  0
    6.1721   -8.2186   15.9886 N   0  0  0  0  0  0  0  0  0  0  0  0
   11.1764   -2.6600   19.5604 C   0  0  0  0  0  0  0  0  0  0  0  0
    9.5491   -0.6380   24.1912 C   0  0  0  0  0  0  0  0  0  0  0  0
    7.5337   -6.9256   16.9519 C   0  0  0  0  0  0  0  0  0  0  0  0
    9.6782    0.5671   23.5143 C   0  0  0  0  0  0  0  0  0  0  0  0
    8.4532    0.3482   26.0821 C   0  0  0  0  0  0  0  0  0  0  0  0
   10.4239   -1.7677   22.2230 N   0  0  0  0  0  0  0  0  0  0  0  0
    9.9468   -4.5953   20.1709 C   0  0  0  0  0  0  0  0  0  0  0  0
   10.0366   -3.0590   23.9864 N   0  0  0  0  0  0  0  0  0  0  0  0
    7.1191   -7.3636   15.7739 C   0  0  0  0  0  0  0  0  0  0  0  0
    5.9612   -8.3203   17.2732 N   0  0  0  0  0  0  0  0  0  0  0  0
    8.5296   -5.9814   17.1841 C   0  0  0  0  0  0  0  0  0  0  0  0
    9.1527   -5.2118   16.2116 C   0  0  0  0  0  0  0  0  0  0  0  0
   10.3364   -3.8368   22.9255 O   0  0  0  0  0  0  0  0  0  0  0  0
    9.6947   -4.8407   18.8534 C   0  0  0  0  0  0  0  0  0  0  0  0
    9.1596    1.7042   24.1381 C   0  0  0  0  0  0  0  0  0  0  0  0
   11.0456   -2.9774   18.2694 N   0  0  0  0  0  0  0  0  0  0  0  0
   10.4788   -3.0457   21.8593 C   0  0  0  0  0  0  0  0  0  0  0  0
    8.8693   -5.8099   18.4657 N   0  0  0  0  0  0  0  0  0  0  0  0
    8.9892   -0.7926   25.4573 C   0  0  0  0  0  0  0  0  0  0  0  0
   10.5677   -3.4462   20.5323 C   0  0  0  0  0  0  0  0  0  0  0  0
  1  8  1  0
  1 12  4  0
  1 14  4  0
  2  3  4  0
  2 18  4  0
  3 20  4  0
  3 22  4  0
  4 11  4  0
  4 21  4  0
  5  9  4  0
  5 16  4  0
  6 15  4  0
  6 16  4  0
  7 22  4  0
  7 26  4  0
  8 10  4  0
  8 25  4  0
  9 15  4  0
  9 17  1  0
 10 21  4  0
 11 25  4  0
 12 23  4  0
 13 20  4  0
 13 26  4  0
 14 19  4  0
 17 18  4  0
 17 24  4  0
 19 23  4  0
 20 24  4  0
 23 26  1  0
M  END
$$$$

 Created by Python create_sdf_string function

 26 30  0  0  0  0  0  0  0  0999 V2000
   10.0084   -1.8019   23.4945 C   0  0  0  0  0  0  0  0  0  0  0  0
   10.0005   -4.2520   16.5631 C   0  0  0  0  0  0  0  0  0  0  0  0
   10.2759   -4.0036   17.8845 C   0  0  0  0  0  0  0  0  0  0  0  0
    8.5652    1.5478   25.3778 N   0  0  0  0  0  0  0  0  0  0  0  0
    6.8048   -7.5457   17.8752 C   0  0  0  0  0  0  0  0  0  0  0  0
    6.1721   -8.2186   15.9886 N   0  0  0  0  0  0  0  0  0  0  0  0
   11.1764   -2.6600   19.5604 C   0  0  0  0  0  0  0  0  0  0  0  0
    9.5491   -0.6380   24.1912 C   0  0  0  0  0  0  0  0  0  0  0  0
    7.5337   -6.9256   16.9519 C   0  0  0  0  0  0  0  0  0  0  0  0
    9.6782    0.5671   23.5143 C   0  0  0  0  0  0  0  0  0  0  0  0
    8.4532    0.3482   26.0821 C   0  0  0  0  0  0  0  0  0  0  0  0
   10.4239   -1.7677   22.2230 N   0  0  0  0  0  0  0  0  0  0  0  0
    9.9468   -4.5953   20.1709 C   0  0  0  0  0  0  0  0  0  0  0  0
   10.0366   -3.0590   23.9864 N   0  0  0  0  0  0  0  0  0  0  0  0
    7.1191   -7.3636   15.7739 C   0  0  0  0  0  0  0  0  0  0  0  0
    5.9612   -8.3203   17.2732 N   0  0  0  0  0  0  0  0  0  0  0  0
    8.5296   -5.9814   17.1841 C   0  0  0  0  0  0  0  0  0  0  0  0
    9.1527   -5.2118   16.2116 C   0  0  0  0  0  0  0  0  0  0  0  0
   10.3364   -3.8368   22.9255 O   0  0  0  0  0  0  0  0  0  0  0  0
    9.6947   -4.8407   18.8534 C   0  0  0  0  0  0  0  0  0  0  0  0
    9.1596    1.7042   24.1381 C   0  0  0  0  0  0  0  0  0  0  0  0
   11.0456   -2.9774   18.2694 N   0  0  0  0  0  0  0  0  0  0  0  0
   10.4788   -3.0457   21.8593 C   0  0  0  0  0  0  0  0  0  0  0  0
    8.8693   -5.8099   18.4657 N   0  0  0  0  0  0  0  0  0  0  0  0
    8.9892   -0.7926   25.4573 C   0  0  0  0  0  0  0  0  0  0  0  0
   10.5677   -3.4462   20.5323 C   0  0  0  0  0  0  0  0  0  0  0  0
  1  8  1  0
  1 12  4  0
  1 14  4  0
  2  3  4  0
  2 18  4  0
  3 20  4  0
  3 22  4  0
  4 11  4  0
  4 21  4  0
  5  9  4  0
  5 16  4  0
  6 15  4  0
  6 16  4  0
  7 22  4  0
  7 26  4  0
  8 10  4  0
  8 25  4  0
  9 15  4  0
  9 17  1  0
 10 21  4  0
 11 25  4  0
 12 23  4  0
 13 20  4  0
 13 26  4  0
 14 19  4  0
 17 18  4  0
 17 24  4  0
 19 23  4  0
 20 24  4  0
 23 26  1  0
M  END
$$$$

 Created by Python create_sdf_string function

 26 30  0  0  0  0  0  0  0  0999 V2000
   10.0084   -1.8019   23.4945 C   0  0  0  0  0  0  0  0  0  0  0  0
   10.0005   -4.2520   16.5631 C   0  0  0  0  0  0  0  0  0  0  0  0
   10.2759   -4.0036   17.8845 C   0  0  0  0  0  0  0  0  0  0  0  0
    8.5652    1.5478   25.3778 N   0  0  0  0  0  0  0  0  0  0  0  0
    6.8048   -7.5457   17.8752 C   0  0  0  0  0  0  0  0  0  0  0  0
    6.1721   -8.2186   15.9886 N   0  0  0  0  0  0  0  0  0  0  0  0
   11.1764   -2.6600   19.5604 C   0  0  0  0  0  0  0  0  0  0  0  0
    9.5491   -0.6380   24.1912 C   0  0  0  0  0  0  0  0  0  0  0  0
    7.5337   -6.9256   16.9519 C   0  0  0  0  0  0  0  0  0  0  0  0
    9.6782    0.5671   23.5143 C   0  0  0  0  0  0  0  0  0  0  0  0
    8.4532    0.3482   26.0821 C   0  0  0  0  0  0  0  0  0  0  0  0
   10.4239   -1.7677   22.2230 N   0  0  0  0  0  0  0  0  0  0  0  0
    9.9468   -4.5953   20.1709 C   0  0  0  0  0  0  0  0  0  0  0  0
   10.0366   -3.0590   23.9864 N   0  0  0  0  0  0  0  0  0  0  0  0
    7.1191   -7.3636   15.7739 C   0  0  0  0  0  0  0  0  0  0  0  0
    5.9612   -8.3203   17.2732 N   0  0  0  0  0  0  0  0  0  0  0  0
    8.5296   -5.9814   17.1841 C   0  0  0  0  0  0  0  0  0  0  0  0
    9.1527   -5.2118   16.2116 C   0  0  0  0  0  0  0  0  0  0  0  0
   10.3364   -3.8368   22.9255 O   0  0  0  0  0  0  0  0  0  0  0  0
    9.6947   -4.8407   18.8534 C   0  0  0  0  0  0  0  0  0  0  0  0
    9.1596    1.7042   24.1381 C   0  0  0  0  0  0  0  0  0  0  0  0
   11.0456   -2.9774   18.2694 N   0  0  0  0  0  0  0  0  0  0  0  0
   10.4788   -3.0457   21.8593 C   0  0  0  0  0  0  0  0  0  0  0  0
    8.8693   -5.8099   18.4657 N   0  0  0  0  0  0  0  0  0  0  0  0
    8.9892   -0.7926   25.4573 C   0  0  0  0  0  0  0  0  0  0  0  0
   10.5677   -3.4462   20.5323 C   0  0  0  0  0  0  0  0  0  0  0  0
  1  8  1  0
  1 12  4  0
  1 14  4  0
  2  3  4  0
  2 18  4  0
  3 20  4  0
  3 22  4  0
  4 11  4  0
  4 21  4  0
  5  9  4  0
  5 16  4  0
  6 15  4  0
  6 16  4  0
  7 22  4  0
  7 26  4  0
  8 10  4  0
  8 25  4  0
  9 15  4  0
  9 17  1  0
 10 21  4  0
 11 25  4  0
 12 23  4  0
 13 20  4  0
 13 26  4  0
 14 19  4  0
 17 18  4  0
 17 24  4  0
 19 23  4  0
 20 24  4  0
 23 26  1  0
M  END
$$$$

 Created by Python create_sdf_string function

 26 30  0  0  0  0  0  0  0  0999 V2000
   10.0084   -1.8019   23.4945 C   0  0  0  0  0  0  0  0  0  0  0  0
   10.0005   -4.2520   16.5631 C   0  0  0  0  0  0  0  0  0  0  0  0
   10.2759   -4.0036   17.8845 C   0  0  0  0  0  0  0  0  0  0  0  0
    8.5652    1.5478   25.3778 N   0  0  0  0  0  0  0  0  0  0  0  0
    6.8048   -7.5457   17.8752 C   0  0  0  0  0  0  0  0  0  0  0  0
    6.1721   -8.2186   15.9886 N   0  0  0  0  0  0  0  0  0  0  0  0
   11.1764   -2.6600   19.5604 C   0  0  0  0  0  0  0  0  0  0  0  0
    9.5491   -0.6380   24.1912 C   0  0  0  0  0  0  0  0  0  0  0  0
    7.5337   -6.9256   16.9519 C   0  0  0  0  0  0  0  0  0  0  0  0
    9.6782    0.5671   23.5143 C   0  0  0  0  0  0  0  0  0  0  0  0
    8.4532    0.3482   26.0821 C   0  0  0  0  0  0  0  0  0  0  0  0
   10.4239   -1.7677   22.2230 N   0  0  0  0  0  0  0  0  0  0  0  0
    9.9468   -4.5953   20.1709 C   0  0  0  0  0  0  0  0  0  0  0  0
   10.0366   -3.0590   23.9864 N   0  0  0  0  0  0  0  0  0  0  0  0
    7.1191   -7.3636   15.7739 C   0  0  0  0  0  0  0  0  0  0  0  0
    5.9612   -8.3203   17.2732 N   0  0  0  0  0  0  0  0  0  0  0  0
    8.5296   -5.9814   17.1841 C   0  0  0  0  0  0  0  0  0  0  0  0
    9.1527   -5.2118   16.2116 C   0  0  0  0  0  0  0  0  0  0  0  0
   10.3364   -3.8368   22.9255 O   0  0  0  0  0  0  0  0  0  0  0  0
    9.6947   -4.8407   18.8534 C   0  0  0  0  0  0  0  0  0  0  0  0
    9.1596    1.7042   24.1381 C   0  0  0  0  0  0  0  0  0  0  0  0
   11.0456   -2.9774   18.2694 N   0  0  0  0  0  0  0  0  0  0  0  0
   10.4788   -3.0457   21.8593 C   0  0  0  0  0  0  0  0  0  0  0  0
    8.8693   -5.8099   18.4657 N   0  0  0  0  0  0  0  0  0  0  0  0
    8.9892   -0.7926   25.4573 C   0  0  0  0  0  0  0  0  0  0  0  0
   10.5677   -3.4462   20.5323 C   0  0  0  0  0  0  0  0  0  0  0  0
  1  8  1  0
  1 12  4  0
  1 14  4  0
  2  3  4  0
  2 18  4  0
  3 20  4  0
  3 22  4  0
  4 11  4  0
  4 21  4  0
  5  9  4  0
  5 16  4  0
  6 15  4  0
  6 16  4  0
  7 22  4  0
  7 26  4  0
  8 10  4  0
  8 25  4  0
  9 15  4  0
  9 17  1  0
 10 21  4  0
 11 25  4  0
 12 23  4  0
 13 20  4  0
 13 26  4  0
 14 19  4  0
 17 18  4  0
 17 24  4  0
 19 23  4  0
 20 24  4  0
 23 26  1  0
M  END
$$$$

 Created by Python create_sdf_string function

 26 30  0  0  0  0  0  0  0  0999 V2000
   10.0084   -1.8019   23.4945 C   0  0  0  0  0  0  0  0  0  0  0  0
   10.0005   -4.2520   16.5631 C   0  0  0  0  0  0  0  0  0  0  0  0
   10.2759   -4.0036   17.8845 C   0  0  0  0  0  0  0  0  0  0  0  0
    8.5652    1.5478   25.3778 N   0  0  0  0  0  0  0  0  0  0  0  0
    6.8048   -7.5457   17.8752 C   0  0  0  0  0  0  0  0  0  0  0  0
    6.1721   -8.2186   15.9886 N   0  0  0  0  0  0  0  0  0  0  0  0
   11.1764   -2.6600   19.5604 C   0  0  0  0  0  0  0  0  0  0  0  0
    9.5491   -0.6380   24.1912 C   0  0  0  0  0  0  0  0  0  0  0  0
    7.5337   -6.9256   16.9519 C   0  0  0  0  0  0  0  0  0  0  0  0
    9.6782    0.5671   23.5143 C   0  0  0  0  0  0  0  0  0  0  0  0
    8.4532    0.3482   26.0821 C   0  0  0  0  0  0  0  0  0  0  0  0
   10.4239   -1.7677   22.2230 N   0  0  0  0  0  0  0  0  0  0  0  0
    9.9468   -4.5953   20.1709 C   0  0  0  0  0  0  0  0  0  0  0  0
   10.0366   -3.0590   23.9864 N   0  0  0  0  0  0  0  0  0  0  0  0
    7.1191   -7.3636   15.7739 C   0  0  0  0  0  0  0  0  0  0  0  0
    5.9612   -8.3203   17.2732 N   0  0  0  0  0  0  0  0  0  0  0  0
    8.5296   -5.9814   17.1841 C   0  0  0  0  0  0  0  0  0  0  0  0
    9.1527   -5.2118   16.2116 C   0  0  0  0  0  0  0  0  0  0  0  0
   10.3364   -3.8368   22.9255 O   0  0  0  0  0  0  0  0  0  0  0  0
    9.6947   -4.8407   18.8534 C   0  0  0  0  0  0  0  0  0  0  0  0
    9.1596    1.7042   24.1381 C   0  0  0  0  0  0  0  0  0  0  0  0
   11.0456   -2.9774   18.2694 N   0  0  0  0  0  0  0  0  0  0  0  0
   10.4788   -3.0457   21.8593 C   0  0  0  0  0  0  0  0  0  0  0  0
    8.8693   -5.8099   18.4657 N   0  0  0  0  0  0  0  0  0  0  0  0
    8.9892   -0.7926   25.4573 C   0  0  0  0  0  0  0  0  0  0  0  0
   10.5677   -3.4462   20.5323 C   0  0  0  0  0  0  0  0  0  0  0  0
  1  8  1  0
  1 12  4  0
  1 14  4  0
  2  3  4  0
  2 18  4  0
  3 20  4  0
  3 22  4  0
  4 11  4  0
  4 21  4  0
  5  9  4  0
  5 16  4  0
  6 15  4  0
  6 16  4  0
  7 22  4  0
  7 26  4  0
  8 10  4  0
  8 25  4  0
  9 15  4  0
  9 17  1  0
 10 21  4  0
 11 25  4  0
 12 23  4  0
 13 20  4  0
 13 26  4  0
 14 19  4  0
 17 18  4  0
 17 24  4  0
 19 23  4  0
 20 24  4  0
 23 26  1  0
M  END
$$$$

 Created by Python create_sdf_string function

 26 30  0  0  0  0  0  0  0  0999 V2000
   10.0084   -1.8019   23.4945 C   0  0  0  0  0  0  0  0  0  0  0  0
   10.0005   -4.2520   16.5631 C   0  0  0  0  0  0  0  0  0  0  0  0
   10.2759   -4.0036   17.8845 C   0  0  0  0  0  0  0  0  0  0  0  0
    8.5652    1.5478   25.3778 N   0  0  0  0  0  0  0  0  0  0  0  0
    6.8048   -7.5457   17.8752 C   0  0  0  0  0  0  0  0  0  0  0  0
    6.1721   -8.2186   15.9886 N   0  0  0  0  0  0  0  0  0  0  0  0
   11.1764   -2.6600   19.5604 C   0  0  0  0  0  0  0  0  0  0  0  0
    9.5491   -0.6380   24.1912 C   0  0  0  0  0  0  0  0  0  0  0  0
    7.5337   -6.9256   16.9519 C   0  0  0  0  0  0  0  0  0  0  0  0
    9.6782    0.5671   23.5143 C   0  0  0  0  0  0  0  0  0  0  0  0
    8.4532    0.3482   26.0821 C   0  0  0  0  0  0  0  0  0  0  0  0
   10.4239   -1.7677   22.2230 N   0  0  0  0  0  0  0  0  0  0  0  0
    9.9468   -4.5953   20.1709 C   0  0  0  0  0  0  0  0  0  0  0  0
   10.0366   -3.0590   23.9864 N   0  0  0  0  0  0  0  0  0  0  0  0
    7.1191   -7.3636   15.7739 C   0  0  0  0  0  0  0  0  0  0  0  0
    5.9612   -8.3203   17.2732 N   0  0  0  0  0  0  0  0  0  0  0  0
    8.5296   -5.9814   17.1841 C   0  0  0  0  0  0  0  0  0  0  0  0
    9.1527   -5.2118   16.2116 C   0  0  0  0  0  0  0  0  0  0  0  0
   10.3364   -3.8368   22.9255 O   0  0  0  0  0  0  0  0  0  0  0  0
    9.6947   -4.8407   18.8534 C   0  0  0  0  0  0  0  0  0  0  0  0
    9.1596    1.7042   24.1381 C   0  0  0  0  0  0  0  0  0  0  0  0
   11.0456   -2.9774   18.2694 N   0  0  0  0  0  0  0  0  0  0  0  0
   10.4788   -3.0457   21.8593 C   0  0  0  0  0  0  0  0  0  0  0  0
    8.8693   -5.8099   18.4657 N   0  0  0  0  0  0  0  0  0  0  0  0
    8.9892   -0.7926   25.4573 C   0  0  0  0  0  0  0  0  0  0  0  0
   10.5677   -3.4462   20.5323 C   0  0  0  0  0  0  0  0  0  0  0  0
  1  8  1  0
  1 12  4  0
  1 14  4  0
  2  3  4  0
  2 18  4  0
  3 20  4  0
  3 22  4  0
  4 11  4  0
  4 21  4  0
  5  9  4  0
  5 16  4  0
  6 15  4  0
  6 16  4  0
  7 22  4  0
  7 26  4  0
  8 10  4  0
  8 25  4  0
  9 15  4  0
  9 17  1  0
 10 21  4  0
 11 25  4  0
 12 23  4  0
 13 20  4  0
 13 26  4  0
 14 19  4  0
 17 18  4  0
 17 24  4  0
 19 23  4  0
 20 24  4  0
 23 26  1  0
M  END
$$$$

 Created by Python create_sdf_string function

 26 30  0  0  0  0  0  0  0  0999 V2000
   10.0084   -1.8019   23.4945 C   0  0  0  0  0  0  0  0  0  0  0  0
   10.0005   -4.2520   16.5631 C   0  0  0  0  0  0  0  0  0  0  0  0
   10.2759   -4.0036   17.8845 C   0  0  0  0  0  0  0  0  0  0  0  0
    8.5652    1.5478   25.3778 N   0  0  0  0  0  0  0  0  0  0  0  0
    6.8048   -7.5457   17.8752 C   0  0  0  0  0  0  0  0  0  0  0  0
    6.1721   -8.2186   15.9886 N   0  0  0  0  0  0  0  0  0  0  0  0
   11.1764   -2.6600   19.5604 C   0  0  0  0  0  0  0  0  0  0  0  0
    9.5491   -0.6380   24.1912 C   0  0  0  0  0  0  0  0  0  0  0  0
    7.5337   -6.9256   16.9519 C   0  0  0  0  0  0  0  0  0  0  0  0
    9.6782    0.5671   23.5143 C   0  0  0  0  0  0  0  0  0  0  0  0
    8.4532    0.3482   26.0821 C   0  0  0  0  0  0  0  0  0  0  0  0
   10.4239   -1.7677   22.2230 N   0  0  0  0  0  0  0  0  0  0  0  0
    9.9468   -4.5953   20.1709 C   0  0  0  0  0  0  0  0  0  0  0  0
   10.0366   -3.0590   23.9864 N   0  0  0  0  0  0  0  0  0  0  0  0
    7.1191   -7.3636   15.7739 C   0  0  0  0  0  0  0  0  0  0  0  0
    5.9612   -8.3203   17.2732 N   0  0  0  0  0  0  0  0  0  0  0  0
    8.5296   -5.9814   17.1841 C   0  0  0  0  0  0  0  0  0  0  0  0
    9.1527   -5.2118   16.2116 C   0  0  0  0  0  0  0  0  0  0  0  0
   10.3364   -3.8368   22.9255 O   0  0  0  0  0  0  0  0  0  0  0  0
    9.6947   -4.8407   18.8534 C   0  0  0  0  0  0  0  0  0  0  0  0
    9.1596    1.7042   24.1381 C   0  0  0  0  0  0  0  0  0  0  0  0
   11.0456   -2.9774   18.2694 N   0  0  0  0  0  0  0  0  0  0  0  0
   10.4788   -3.0457   21.8593 C   0  0  0  0  0  0  0  0  0  0  0  0
    8.8693   -5.8099   18.4657 N   0  0  0  0  0  0  0  0  0  0  0  0
    8.9892   -0.7926   25.4573 C   0  0  0  0  0  0  0  0  0  0  0  0
   10.5677   -3.4462   20.5323 C   0  0  0  0  0  0  0  0  0  0  0  0
  1  8  1  0
  1 12  4  0
  1 14  4  0
  2  3  4  0
  2 18  4  0
  3 20  4  0
  3 22  4  0
  4 11  4  0
  4 21  4  0
  5  9  4  0
  5 16  4  0
  6 15  4  0
  6 16  4  0
  7 22  4  0
  7 26  4  0
  8 10  4  0
  8 25  4  0
  9 15  4  0
  9 17  1  0
 10 21  4  0
 11 25  4  0
 12 23  4  0
 13 20  4  0
 13 26  4  0
 14 19  4  0
 17 18  4  0
 17 24  4  0
 19 23  4  0
 20 24  4  0
 23 26  1  0
M  END
$$$$

 Created by Python create_sdf_string function

 26 30  0  0  0  0  0  0  0  0999 V2000
   10.0084   -1.8019   23.4945 C   0  0  0  0  0  0  0  0  0  0  0  0
   10.0005   -4.2520   16.5631 C   0  0  0  0  0  0  0  0  0  0  0  0
   10.2759   -4.0036   17.8845 C   0  0  0  0  0  0  0  0  0  0  0  0
    8.5652    1.5478   25.3778 N   0  0  0  0  0  0  0  0  0  0  0  0
    6.8048   -7.5457   17.8752 C   0  0  0  0  0  0  0  0  0  0  0  0
    6.1721   -8.2186   15.9886 N   0  0  0  0  0  0  0  0  0  0  0  0
   11.1764   -2.6600   19.5604 C   0  0  0  0  0  0  0  0  0  0  0  0
    9.5491   -0.6380   24.1912 C   0  0  0  0  0  0  0  0  0  0  0  0
    7.5337   -6.9256   16.9519 C   0  0  0  0  0  0  0  0  0  0  0  0
    9.6782    0.5671   23.5143 C   0  0  0  0  0  0  0  0  0  0  0  0
    8.4532    0.3482   26.0821 C   0  0  0  0  0  0  0  0  0  0  0  0
   10.4239   -1.7677   22.2230 N   0  0  0  0  0  0  0  0  0  0  0  0
    9.9468   -4.5953   20.1709 C   0  0  0  0  0  0  0  0  0  0  0  0
   10.0366   -3.0590   23.9864 N   0  0  0  0  0  0  0  0  0  0  0  0
    7.1191   -7.3636   15.7739 C   0  0  0  0  0  0  0  0  0  0  0  0
    5.9612   -8.3203   17.2732 N   0  0  0  0  0  0  0  0  0  0  0  0
    8.5296   -5.9814   17.1841 C   0  0  0  0  0  0  0  0  0  0  0  0
    9.1527   -5.2118   16.2116 C   0  0  0  0  0  0  0  0  0  0  0  0
   10.3364   -3.8368   22.9255 O   0  0  0  0  0  0  0  0  0  0  0  0
    9.6947   -4.8407   18.8534 C   0  0  0  0  0  0  0  0  0  0  0  0
    9.1596    1.7042   24.1381 C   0  0  0  0  0  0  0  0  0  0  0  0
   11.0456   -2.9774   18.2694 N   0  0  0  0  0  0  0  0  0  0  0  0
   10.4788   -3.0457   21.8593 C   0  0  0  0  0  0  0  0  0  0  0  0
    8.8693   -5.8099   18.4657 N   0  0  0  0  0  0  0  0  0  0  0  0
    8.9892   -0.7926   25.4573 C   0  0  0  0  0  0  0  0  0  0  0  0
   10.5677   -3.4462   20.5323 C   0  0  0  0  0  0  0  0  0  0  0  0
  1  8  1  0
  1 12  4  0
  1 14  4  0
  2  3  4  0
  2 18  4  0
  3 20  4  0
  3 22  4  0
  4 11  4  0
  4 21  4  0
  5  9  4  0
  5 16  4  0
  6 15  4  0
  6 16  4  0
  7 22  4  0
  7 26  4  0
  8 10  4  0
  8 25  4  0
  9 15  4  0
  9 17  1  0
 10 21  4  0
 11 25  4  0
 12 23  4  0
 13 20  4  0
 13 26  4  0
 14 19  4  0
 17 18  4  0
 17 24  4  0
 19 23  4  0
 20 24  4  0
 23 26  1  0
M  END
$$$$

 Created by Python create_sdf_string function

 26 30  0  0  0  0  0  0  0  0999 V2000
   10.0084   -1.8019   23.4945 C   0  0  0  0  0  0  0  0  0  0  0  0
   10.0005   -4.2520   16.5631 C   0  0  0  0  0  0  0  0  0  0  0  0
   10.2759   -4.0036   17.8845 C   0  0  0  0  0  0  0  0  0  0  0  0
    8.5652    1.5478   25.3778 N   0  0  0  0  0  0  0  0  0  0  0  0
    6.8048   -7.5457   17.8752 C   0  0  0  0  0  0  0  0  0  0  0  0
    6.1721   -8.2186   15.9886 N   0  0  0  0  0  0  0  0  0  0  0  0
   11.1764   -2.6600   19.5604 C   0  0  0  0  0  0  0  0  0  0  0  0
    9.5491   -0.6380   24.1912 C   0  0  0  0  0  0  0  0  0  0  0  0
    7.5337   -6.9256   16.9519 C   0  0  0  0  0  0  0  0  0  0  0  0
    9.6782    0.5671   23.5143 C   0  0  0  0  0  0  0  0  0  0  0  0
    8.4532    0.3482   26.0821 C   0  0  0  0  0  0  0  0  0  0  0  0
   10.4239   -1.7677   22.2230 N   0  0  0  0  0  0  0  0  0  0  0  0
    9.9468   -4.5953   20.1709 C   0  0  0  0  0  0  0  0  0  0  0  0
   10.0366   -3.0590   23.9864 N   0  0  0  0  0  0  0  0  0  0  0  0
    7.1191   -7.3636   15.7739 C   0  0  0  0  0  0  0  0  0  0  0  0
    5.9612   -8.3203   17.2732 N   0  0  0  0  0  0  0  0  0  0  0  0
    8.5296   -5.9814   17.1841 C   0  0  0  0  0  0  0  0  0  0  0  0
    9.1527   -5.2118   16.2116 C   0  0  0  0  0  0  0  0  0  0  0  0
   10.3364   -3.8368   22.9255 O   0  0  0  0  0  0  0  0  0  0  0  0
    9.6947   -4.8407   18.8534 C   0  0  0  0  0  0  0  0  0  0  0  0
    9.1596    1.7042   24.1381 C   0  0  0  0  0  0  0  0  0  0  0  0
   11.0456   -2.9774   18.2694 N   0  0  0  0  0  0  0  0  0  0  0  0
   10.4788   -3.0457   21.8593 C   0  0  0  0  0  0  0  0  0  0  0  0
    8.8693   -5.8099   18.4657 N   0  0  0  0  0  0  0  0  0  0  0  0
    8.9892   -0.7926   25.4573 C   0  0  0  0  0  0  0  0  0  0  0  0
   10.5677   -3.4462   20.5323 C   0  0  0  0  0  0  0  0  0  0  0  0
  1  8  1  0
  1 12  4  0
  1 14  4  0
  2  3  4  0
  2 18  4  0
  3 20  4  0
  3 22  4  0
  4 11  4  0
  4 21  4  0
  5  9  4  0
  5 16  4  0
  6 15  4  0
  6 16  4  0
  7 22  4  0
  7 26  4  0
  8 10  4  0
  8 25  4  0
  9 15  4  0
  9 17  1  0
 10 21  4  0
 11 25  4  0
 12 23  4  0
 13 20  4  0
 13 26  4  0
 14 19  4  0
 17 18  4  0
 17 24  4  0
 19 23  4  0
 20 24  4  0
 23 26  1  0
M  END
$$$$

 Created by Python create_sdf_string function

 26 30  0  0  0  0  0  0  0  0999 V2000
   10.0084   -1.8019   23.4945 C   0  0  0  0  0  0  0  0  0  0  0  0
   10.0005   -4.2520   16.5631 C   0  0  0  0  0  0  0  0  0  0  0  0
   10.2759   -4.0036   17.8845 C   0  0  0  0  0  0  0  0  0  0  0  0
    8.5652    1.5478   25.3778 N   0  0  0  0  0  0  0  0  0  0  0  0
    6.8048   -7.5457   17.8752 C   0  0  0  0  0  0  0  0  0  0  0  0
    6.1721   -8.2186   15.9886 N   0  0  0  0  0  0  0  0  0  0  0  0
   11.1764   -2.6600   19.5604 C   0  0  0  0  0  0  0  0  0  0  0  0
    9.5491   -0.6380   24.1912 C   0  0  0  0  0  0  0  0  0  0  0  0
    7.5337   -6.9256   16.9519 C   0  0  0  0  0  0  0  0  0  0  0  0
    9.6782    0.5671   23.5143 C   0  0  0  0  0  0  0  0  0  0  0  0
    8.4532    0.3482   26.0821 C   0  0  0  0  0  0  0  0  0  0  0  0
   10.4239   -1.7677   22.2230 N   0  0  0  0  0  0  0  0  0  0  0  0
    9.9468   -4.5953   20.1709 C   0  0  0  0  0  0  0  0  0  0  0  0
   10.0366   -3.0590   23.9864 N   0  0  0  0  0  0  0  0  0  0  0  0
    7.1191   -7.3636   15.7739 C   0  0  0  0  0  0  0  0  0  0  0  0
    5.9612   -8.3203   17.2732 N   0  0  0  0  0  0  0  0  0  0  0  0
    8.5296   -5.9814   17.1841 C   0  0  0  0  0  0  0  0  0  0  0  0
    9.1527   -5.2118   16.2116 C   0  0  0  0  0  0  0  0  0  0  0  0
   10.3364   -3.8368   22.9255 O   0  0  0  0  0  0  0  0  0  0  0  0
    9.6947   -4.8407   18.8534 C   0  0  0  0  0  0  0  0  0  0  0  0
    9.1596    1.7042   24.1381 C   0  0  0  0  0  0  0  0  0  0  0  0
   11.0456   -2.9774   18.2694 N   0  0  0  0  0  0  0  0  0  0  0  0
   10.4788   -3.0457   21.8593 C   0  0  0  0  0  0  0  0  0  0  0  0
    8.8693   -5.8099   18.4657 N   0  0  0  0  0  0  0  0  0  0  0  0
    8.9892   -0.7926   25.4573 C   0  0  0  0  0  0  0  0  0  0  0  0
   10.5677   -3.4462   20.5323 C   0  0  0  0  0  0  0  0  0  0  0  0
  1  8  1  0
  1 12  4  0
  1 14  4  0
  2  3  4  0
  2 18  4  0
  3 20  4  0
  3 22  4  0
  4 11  4  0
  4 21  4  0
  5  9  4  0
  5 16  4  0
  6 15  4  0
  6 16  4  0
  7 22  4  0
  7 26  4  0
  8 10  4  0
  8 25  4  0
  9 15  4  0
  9 17  1  0
 10 21  4  0
 11 25  4  0
 12 23  4  0
 13 20  4  0
 13 26  4  0
 14 19  4  0
 17 18  4  0
 17 24  4  0
 19 23  4  0
 20 24  4  0
 23 26  1  0
M  END
$$$$

 Created by Python create_sdf_string function

 26 30  0  0  0  0  0  0  0  0999 V2000
   10.0084   -1.8019   23.4945 C   0  0  0  0  0  0  0  0  0  0  0  0
   10.0005   -4.2520   16.5631 C   0  0  0  0  0  0  0  0  0  0  0  0
   10.2759   -4.0036   17.8845 C   0  0  0  0  0  0  0  0  0  0  0  0
    8.5652    1.5478   25.3778 N   0  0  0  0  0  0  0  0  0  0  0  0
    6.8048   -7.5457   17.8752 C   0  0  0  0  0  0  0  0  0  0  0  0
    6.1721   -8.2186   15.9886 N   0  0  0  0  0  0  0  0  0  0  0  0
   11.1764   -2.6600   19.5604 C   0  0  0  0  0  0  0  0  0  0  0  0
    9.5491   -0.6380   24.1912 C   0  0  0  0  0  0  0  0  0  0  0  0
    7.5337   -6.9256   16.9519 C   0  0  0  0  0  0  0  0  0  0  0  0
    9.6782    0.5671   23.5143 C   0  0  0  0  0  0  0  0  0  0  0  0
    8.4532    0.3482   26.0821 C   0  0  0  0  0  0  0  0  0  0  0  0
   10.4239   -1.7677   22.2230 N   0  0  0  0  0  0  0  0  0  0  0  0
    9.9468   -4.5953   20.1709 C   0  0  0  0  0  0  0  0  0  0  0  0
   10.0366   -3.0590   23.9864 N   0  0  0  0  0  0  0  0  0  0  0  0
    7.1191   -7.3636   15.7739 C   0  0  0  0  0  0  0  0  0  0  0  0
    5.9612   -8.3203   17.2732 N   0  0  0  0  0  0  0  0  0  0  0  0
    8.5296   -5.9814   17.1841 C   0  0  0  0  0  0  0  0  0  0  0  0
    9.1527   -5.2118   16.2116 C   0  0  0  0  0  0  0  0  0  0  0  0
   10.3364   -3.8368   22.9255 O   0  0  0  0  0  0  0  0  0  0  0  0
    9.6947   -4.8407   18.8534 C   0  0  0  0  0  0  0  0  0  0  0  0
    9.1596    1.7042   24.1381 C   0  0  0  0  0  0  0  0  0  0  0  0
   11.0456   -2.9774   18.2694 N   0  0  0  0  0  0  0  0  0  0  0  0
   10.4788   -3.0457   21.8593 C   0  0  0  0  0  0  0  0  0  0  0  0
    8.8693   -5.8099   18.4657 N   0  0  0  0  0  0  0  0  0  0  0  0
    8.9892   -0.7926   25.4573 C   0  0  0  0  0  0  0  0  0  0  0  0
   10.5677   -3.4462   20.5323 C   0  0  0  0  0  0  0  0  0  0  0  0
  1  8  1  0
  1 12  4  0
  1 14  4  0
  2  3  4  0
  2 18  4  0
  3 20  4  0
  3 22  4  0
  4 11  4  0
  4 21  4  0
  5  9  4  0
  5 16  4  0
  6 15  4  0
  6 16  4  0
  7 22  4  0
  7 26  4  0
  8 10  4  0
  8 25  4  0
  9 15  4  0
  9 17  1  0
 10 21  4  0
 11 25  4  0
 12 23  4  0
 13 20  4  0
 13 26  4  0
 14 19  4  0
 17 18  4  0
 17 24  4  0
 19 23  4  0
 20 24  4  0
 23 26  1  0
M  END
$$$$

 Created by Python create_sdf_string function

 26 30  0  0  0  0  0  0  0  0999 V2000
   10.0084   -1.8019   23.4945 C   0  0  0  0  0  0  0  0  0  0  0  0
   10.0005   -4.2520   16.5631 C   0  0  0  0  0  0  0  0  0  0  0  0
   10.2759   -4.0036   17.8845 C   0  0  0  0  0  0  0  0  0  0  0  0
    8.5652    1.5478   25.3778 N   0  0  0  0  0  0  0  0  0  0  0  0
    6.8048   -7.5457   17.8752 C   0  0  0  0  0  0  0  0  0  0  0  0
    6.1721   -8.2186   15.9886 N   0  0  0  0  0  0  0  0  0  0  0  0
   11.1764   -2.6600   19.5604 C   0  0  0  0  0  0  0  0  0  0  0  0
    9.5491   -0.6380   24.1912 C   0  0  0  0  0  0  0  0  0  0  0  0
    7.5337   -6.9256   16.9519 C   0  0  0  0  0  0  0  0  0  0  0  0
    9.6782    0.5671   23.5143 C   0  0  0  0  0  0  0  0  0  0  0  0
    8.4532    0.3482   26.0821 C   0  0  0  0  0  0  0  0  0  0  0  0
   10.4239   -1.7677   22.2230 N   0  0  0  0  0  0  0  0  0  0  0  0
    9.9468   -4.5953   20.1709 C   0  0  0  0  0  0  0  0  0  0  0  0
   10.0366   -3.0590   23.9864 N   0  0  0  0  0  0  0  0  0  0  0  0
    7.1191   -7.3636   15.7739 C   0  0  0  0  0  0  0  0  0  0  0  0
    5.9612   -8.3203   17.2732 N   0  0  0  0  0  0  0  0  0  0  0  0
    8.5296   -5.9814   17.1841 C   0  0  0  0  0  0  0  0  0  0  0  0
    9.1527   -5.2118   16.2116 C   0  0  0  0  0  0  0  0  0  0  0  0
   10.3364   -3.8368   22.9255 O   0  0  0  0  0  0  0  0  0  0  0  0
    9.6947   -4.8407   18.8534 C   0  0  0  0  0  0  0  0  0  0  0  0
    9.1596    1.7042   24.1381 C   0  0  0  0  0  0  0  0  0  0  0  0
   11.0456   -2.9774   18.2694 N   0  0  0  0  0  0  0  0  0  0  0  0
   10.4788   -3.0457   21.8593 C   0  0  0  0  0  0  0  0  0  0  0  0
    8.8693   -5.8099   18.4657 N   0  0  0  0  0  0  0  0  0  0  0  0
    8.9892   -0.7926   25.4573 C   0  0  0  0  0  0  0  0  0  0  0  0
   10.5677   -3.4462   20.5323 C   0  0  0  0  0  0  0  0  0  0  0  0
  1  8  1  0
  1 12  4  0
  1 14  4  0
  2  3  4  0
  2 18  4  0
  3 20  4  0
  3 22  4  0
  4 11  4  0
  4 21  4  0
  5  9  4  0
  5 16  4  0
  6 15  4  0
  6 16  4  0
  7 22  4  0
  7 26  4  0
  8 10  4  0
  8 25  4  0
  9 15  4  0
  9 17  1  0
 10 21  4  0
 11 25  4  0
 12 23  4  0
 13 20  4  0
 13 26  4  0
 14 19  4  0
 17 18  4  0
 17 24  4  0
 19 23  4  0
 20 24  4  0
 23 26  1  0
M  END
$$$$

 Created by Python create_sdf_string function

 26 30  0  0  0  0  0  0  0  0999 V2000
   10.0084   -1.8019   23.4945 C   0  0  0  0  0  0  0  0  0  0  0  0
   10.0005   -4.2520   16.5631 C   0  0  0  0  0  0  0  0  0  0  0  0
   10.2759   -4.0036   17.8845 C   0  0  0  0  0  0  0  0  0  0  0  0
    8.5652    1.5478   25.3778 N   0  0  0  0  0  0  0  0  0  0  0  0
    6.8048   -7.5457   17.8752 C   0  0  0  0  0  0  0  0  0  0  0  0
    6.1721   -8.2186   15.9886 N   0  0  0  0  0  0  0  0  0  0  0  0
   11.1764   -2.6600   19.5604 C   0  0  0  0  0  0  0  0  0  0  0  0
    9.5491   -0.6380   24.1912 C   0  0  0  0  0  0  0  0  0  0  0  0
    7.5337   -6.9256   16.9519 C   0  0  0  0  0  0  0  0  0  0  0  0
    9.6782    0.5671   23.5143 C   0  0  0  0  0  0  0  0  0  0  0  0
    8.4532    0.3482   26.0821 C   0  0  0  0  0  0  0  0  0  0  0  0
   10.4239   -1.7677   22.2230 N   0  0  0  0  0  0  0  0  0  0  0  0
    9.9468   -4.5953   20.1709 C   0  0  0  0  0  0  0  0  0  0  0  0
   10.0366   -3.0590   23.9864 N   0  0  0  0  0  0  0  0  0  0  0  0
    7.1191   -7.3636   15.7739 C   0  0  0  0  0  0  0  0  0  0  0  0
    5.9612   -8.3203   17.2732 N   0  0  0  0  0  0  0  0  0  0  0  0
    8.5296   -5.9814   17.1841 C   0  0  0  0  0  0  0  0  0  0  0  0
    9.1527   -5.2118   16.2116 C   0  0  0  0  0  0  0  0  0  0  0  0
   10.3364   -3.8368   22.9255 O   0  0  0  0  0  0  0  0  0  0  0  0
    9.6947   -4.8407   18.8534 C   0  0  0  0  0  0  0  0  0  0  0  0
    9.1596    1.7042   24.1381 C   0  0  0  0  0  0  0  0  0  0  0  0
   11.0456   -2.9774   18.2694 N   0  0  0  0  0  0  0  0  0  0  0  0
   10.4788   -3.0457   21.8593 C   0  0  0  0  0  0  0  0  0  0  0  0
    8.8693   -5.8099   18.4657 N   0  0  0  0  0  0  0  0  0  0  0  0
    8.9892   -0.7926   25.4573 C   0  0  0  0  0  0  0  0  0  0  0  0
   10.5677   -3.4462   20.5323 C   0  0  0  0  0  0  0  0  0  0  0  0
  1  8  1  0
  1 12  4  0
  1 14  4  0
  2  3  4  0
  2 18  4  0
  3 20  4  0
  3 22  4  0
  4 11  4  0
  4 21  4  0
  5  9  4  0
  5 16  4  0
  6 15  4  0
  6 16  4  0
  7 22  4  0
  7 26  4  0
  8 10  4  0
  8 25  4  0
  9 15  4  0
  9 17  1  0
 10 21  4  0
 11 25  4  0
 12 23  4  0
 13 20  4  0
 13 26  4  0
 14 19  4  0
 17 18  4  0
 17 24  4  0
 19 23  4  0
 20 24  4  0
 23 26  1  0
M  END
$$$$

 Created by Python create_sdf_string function

 26 30  0  0  0  0  0  0  0  0999 V2000
   10.0084   -1.8019   23.4945 C   0  0  0  0  0  0  0  0  0  0  0  0
   10.0005   -4.2520   16.5631 C   0  0  0  0  0  0  0  0  0  0  0  0
   10.2759   -4.0036   17.8845 C   0  0  0  0  0  0  0  0  0  0  0  0
    8.5652    1.5478   25.3778 N   0  0  0  0  0  0  0  0  0  0  0  0
    6.8048   -7.5457   17.8752 C   0  0  0  0  0  0  0  0  0  0  0  0
    6.1721   -8.2186   15.9886 N   0  0  0  0  0  0  0  0  0  0  0  0
   11.1764   -2.6600   19.5604 C   0  0  0  0  0  0  0  0  0  0  0  0
    9.5491   -0.6380   24.1912 C   0  0  0  0  0  0  0  0  0  0  0  0
    7.5337   -6.9256   16.9519 C   0  0  0  0  0  0  0  0  0  0  0  0
    9.6782    0.5671   23.5143 C   0  0  0  0  0  0  0  0  0  0  0  0
    8.4532    0.3482   26.0821 C   0  0  0  0  0  0  0  0  0  0  0  0
   10.4239   -1.7677   22.2230 N   0  0  0  0  0  0  0  0  0  0  0  0
    9.9468   -4.5953   20.1709 C   0  0  0  0  0  0  0  0  0  0  0  0
   10.0366   -3.0590   23.9864 N   0  0  0  0  0  0  0  0  0  0  0  0
    7.1191   -7.3636   15.7739 C   0  0  0  0  0  0  0  0  0  0  0  0
    5.9612   -8.3203   17.2732 N   0  0  0  0  0  0  0  0  0  0  0  0
    8.5296   -5.9814   17.1841 C   0  0  0  0  0  0  0  0  0  0  0  0
    9.1527   -5.2118   16.2116 C   0  0  0  0  0  0  0  0  0  0  0  0
   10.3364   -3.8368   22.9255 O   0  0  0  0  0  0  0  0  0  0  0  0
    9.6947   -4.8407   18.8534 C   0  0  0  0  0  0  0  0  0  0  0  0
    9.1596    1.7042   24.1381 C   0  0  0  0  0  0  0  0  0  0  0  0
   11.0456   -2.9774   18.2694 N   0  0  0  0  0  0  0  0  0  0  0  0
   10.4788   -3.0457   21.8593 C   0  0  0  0  0  0  0  0  0  0  0  0
    8.8693   -5.8099   18.4657 N   0  0  0  0  0  0  0  0  0  0  0  0
    8.9892   -0.7926   25.4573 C   0  0  0  0  0  0  0  0  0  0  0  0
   10.5677   -3.4462   20.5323 C   0  0  0  0  0  0  0  0  0  0  0  0
  1  8  1  0
  1 12  4  0
  1 14  4  0
  2  3  4  0
  2 18  4  0
  3 20  4  0
  3 22  4  0
  4 11  4  0
  4 21  4  0
  5  9  4  0
  5 16  4  0
  6 15  4  0
  6 16  4  0
  7 22  4  0
  7 26  4  0
  8 10  4  0
  8 25  4  0
  9 15  4  0
  9 17  1  0
 10 21  4  0
 11 25  4  0
 12 23  4  0
 13 20  4  0
 13 26  4  0
 14 19  4  0
 17 18  4  0
 17 24  4  0
 19 23  4  0
 20 24  4  0
 23 26  1  0
M  END
$$$$

 Created by Python create_sdf_string function

 26 30  0  0  0  0  0  0  0  0999 V2000
   10.0084   -1.8019   23.4945 C   0  0  0  0  0  0  0  0  0  0  0  0
   10.0005   -4.2520   16.5631 C   0  0  0  0  0  0  0  0  0  0  0  0
   10.2759   -4.0036   17.8845 C   0  0  0  0  0  0  0  0  0  0  0  0
    8.5652    1.5478   25.3778 N   0  0  0  0  0  0  0  0  0  0  0  0
    6.8048   -7.5457   17.8752 C   0  0  0  0  0  0  0  0  0  0  0  0
    6.1721   -8.2186   15.9886 N   0  0  0  0  0  0  0  0  0  0  0  0
   11.1764   -2.6600   19.5604 C   0  0  0  0  0  0  0  0  0  0  0  0
    9.5491   -0.6380   24.1912 C   0  0  0  0  0  0  0  0  0  0  0  0
    7.5337   -6.9256   16.9519 C   0  0  0  0  0  0  0  0  0  0  0  0
    9.6782    0.5671   23.5143 C   0  0  0  0  0  0  0  0  0  0  0  0
    8.4532    0.3482   26.0821 C   0  0  0  0  0  0  0  0  0  0  0  0
   10.4239   -1.7677   22.2230 N   0  0  0  0  0  0  0  0  0  0  0  0
    9.9468   -4.5953   20.1709 C   0  0  0  0  0  0  0  0  0  0  0  0
   10.0366   -3.0590   23.9864 N   0  0  0  0  0  0  0  0  0  0  0  0
    7.1191   -7.3636   15.7739 C   0  0  0  0  0  0  0  0  0  0  0  0
    5.9612   -8.3203   17.2732 N   0  0  0  0  0  0  0  0  0  0  0  0
    8.5296   -5.9814   17.1841 C   0  0  0  0  0  0  0  0  0  0  0  0
    9.1527   -5.2118   16.2116 C   0  0  0  0  0  0  0  0  0  0  0  0
   10.3364   -3.8368   22.9255 O   0  0  0  0  0  0  0  0  0  0  0  0
    9.6947   -4.8407   18.8534 C   0  0  0  0  0  0  0  0  0  0  0  0
    9.1596    1.7042   24.1381 C   0  0  0  0  0  0  0  0  0  0  0  0
   11.0456   -2.9774   18.2694 N   0  0  0  0  0  0  0  0  0  0  0  0
   10.4788   -3.0457   21.8593 C   0  0  0  0  0  0  0  0  0  0  0  0
    8.8693   -5.8099   18.4657 N   0  0  0  0  0  0  0  0  0  0  0  0
    8.9892   -0.7926   25.4573 C   0  0  0  0  0  0  0  0  0  0  0  0
   10.5677   -3.4462   20.5323 C   0  0  0  0  0  0  0  0  0  0  0  0
  1  8  1  0
  1 12  4  0
  1 14  4  0
  2  3  4  0
  2 18  4  0
  3 20  4  0
  3 22  4  0
  4 11  4  0
  4 21  4  0
  5  9  4  0
  5 16  4  0
  6 15  4  0
  6 16  4  0
  7 22  4  0
  7 26  4  0
  8 10  4  0
  8 25  4  0
  9 15  4  0
  9 17  1  0
 10 21  4  0
 11 25  4  0
 12 23  4  0
 13 20  4  0
 13 26  4  0
 14 19  4  0
 17 18  4  0
 17 24  4  0
 19 23  4  0
 20 24  4  0
 23 26  1  0
M  END
$$$$

 Created by Python create_sdf_string function

 26 30  0  0  0  0  0  0  0  0999 V2000
   10.0084   -1.8019   23.4945 C   0  0  0  0  0  0  0  0  0  0  0  0
   10.0005   -4.2520   16.5631 C   0  0  0  0  0  0  0  0  0  0  0  0
   10.2759   -4.0036   17.8845 C   0  0  0  0  0  0  0  0  0  0  0  0
    8.5652    1.5478   25.3778 N   0  0  0  0  0  0  0  0  0  0  0  0
    6.8048   -7.5457   17.8752 C   0  0  0  0  0  0  0  0  0  0  0  0
    6.1721   -8.2186   15.9886 N   0  0  0  0  0  0  0  0  0  0  0  0
   11.1764   -2.6600   19.5604 C   0  0  0  0  0  0  0  0  0  0  0  0
    9.5491   -0.6380   24.1912 C   0  0  0  0  0  0  0  0  0  0  0  0
    7.5337   -6.9256   16.9519 C   0  0  0  0  0  0  0  0  0  0  0  0
    9.6782    0.5671   23.5143 C   0  0  0  0  0  0  0  0  0  0  0  0
    8.4532    0.3482   26.0821 C   0  0  0  0  0  0  0  0  0  0  0  0
   10.4239   -1.7677   22.2230 N   0  0  0  0  0  0  0  0  0  0  0  0
    9.9468   -4.5953   20.1709 C   0  0  0  0  0  0  0  0  0  0  0  0
   10.0366   -3.0590   23.9864 N   0  0  0  0  0  0  0  0  0  0  0  0
    7.1191   -7.3636   15.7739 C   0  0  0  0  0  0  0  0  0  0  0  0
    5.9612   -8.3203   17.2732 N   0  0  0  0  0  0  0  0  0  0  0  0
    8.5296   -5.9814   17.1841 C   0  0  0  0  0  0  0  0  0  0  0  0
    9.1527   -5.2118   16.2116 C   0  0  0  0  0  0  0  0  0  0  0  0
   10.3364   -3.8368   22.9255 O   0  0  0  0  0  0  0  0  0  0  0  0
    9.6947   -4.8407   18.8534 C   0  0  0  0  0  0  0  0  0  0  0  0
    9.1596    1.7042   24.1381 C   0  0  0  0  0  0  0  0  0  0  0  0
   11.0456   -2.9774   18.2694 N   0  0  0  0  0  0  0  0  0  0  0  0
   10.4788   -3.0457   21.8593 C   0  0  0  0  0  0  0  0  0  0  0  0
    8.8693   -5.8099   18.4657 N   0  0  0  0  0  0  0  0  0  0  0  0
    8.9892   -0.7926   25.4573 C   0  0  0  0  0  0  0  0  0  0  0  0
   10.5677   -3.4462   20.5323 C   0  0  0  0  0  0  0  0  0  0  0  0
  1  8  1  0
  1 12  4  0
  1 14  4  0
  2  3  4  0
  2 18  4  0
  3 20  4  0
  3 22  4  0
  4 11  4  0
  4 21  4  0
  5  9  4  0
  5 16  4  0
  6 15  4  0
  6 16  4  0
  7 22  4  0
  7 26  4  0
  8 10  4  0
  8 25  4  0
  9 15  4  0
  9 17  1  0
 10 21  4  0
 11 25  4  0
 12 23  4  0
 13 20  4  0
 13 26  4  0
 14 19  4  0
 17 18  4  0
 17 24  4  0
 19 23  4  0
 20 24  4  0
 23 26  1  0
M  END
$$$$

 Created by Python create_sdf_string function

 26 30  0  0  0  0  0  0  0  0999 V2000
   10.0084   -1.8019   23.4945 C   0  0  0  0  0  0  0  0  0  0  0  0
   10.0005   -4.2520   16.5631 C   0  0  0  0  0  0  0  0  0  0  0  0
   10.2759   -4.0036   17.8845 C   0  0  0  0  0  0  0  0  0  0  0  0
    8.5652    1.5478   25.3778 N   0  0  0  0  0  0  0  0  0  0  0  0
    6.8048   -7.5457   17.8752 C   0  0  0  0  0  0  0  0  0  0  0  0
    6.1721   -8.2186   15.9886 N   0  0  0  0  0  0  0  0  0  0  0  0
   11.1764   -2.6600   19.5604 C   0  0  0  0  0  0  0  0  0  0  0  0
    9.5491   -0.6380   24.1912 C   0  0  0  0  0  0  0  0  0  0  0  0
    7.5337   -6.9256   16.9519 C   0  0  0  0  0  0  0  0  0  0  0  0
    9.6782    0.5671   23.5143 C   0  0  0  0  0  0  0  0  0  0  0  0
    8.4532    0.3482   26.0821 C   0  0  0  0  0  0  0  0  0  0  0  0
   10.4239   -1.7677   22.2230 N   0  0  0  0  0  0  0  0  0  0  0  0
    9.9468   -4.5953   20.1709 C   0  0  0  0  0  0  0  0  0  0  0  0
   10.0366   -3.0590   23.9864 N   0  0  0  0  0  0  0  0  0  0  0  0
    7.1191   -7.3636   15.7739 C   0  0  0  0  0  0  0  0  0  0  0  0
    5.9612   -8.3203   17.2732 N   0  0  0  0  0  0  0  0  0  0  0  0
    8.5296   -5.9814   17.1841 C   0  0  0  0  0  0  0  0  0  0  0  0
    9.1527   -5.2118   16.2116 C   0  0  0  0  0  0  0  0  0  0  0  0
   10.3364   -3.8368   22.9255 O   0  0  0  0  0  0  0  0  0  0  0  0
    9.6947   -4.8407   18.8534 C   0  0  0  0  0  0  0  0  0  0  0  0
    9.1596    1.7042   24.1381 C   0  0  0  0  0  0  0  0  0  0  0  0
   11.0456   -2.9774   18.2694 N   0  0  0  0  0  0  0  0  0  0  0  0
   10.4788   -3.0457   21.8593 C   0  0  0  0  0  0  0  0  0  0  0  0
    8.8693   -5.8099   18.4657 N   0  0  0  0  0  0  0  0  0  0  0  0
    8.9892   -0.7926   25.4573 C   0  0  0  0  0  0  0  0  0  0  0  0
   10.5677   -3.4462   20.5323 C   0  0  0  0  0  0  0  0  0  0  0  0
  1  8  1  0
  1 12  4  0
  1 14  4  0
  2  3  4  0
  2 18  4  0
  3 20  4  0
  3 22  4  0
  4 11  4  0
  4 21  4  0
  5  9  4  0
  5 16  4  0
  6 15  4  0
  6 16  4  0
  7 22  4  0
  7 26  4  0
  8 10  4  0
  8 25  4  0
  9 15  4  0
  9 17  1  0
 10 21  4  0
 11 25  4  0
 12 23  4  0
 13 20  4  0
 13 26  4  0
 14 19  4  0
 17 18  4  0
 17 24  4  0
 19 23  4  0
 20 24  4  0
 23 26  1  0
M  END
$$$$

 Created by Python create_sdf_string function

 26 30  0  0  0  0  0  0  0  0999 V2000
   10.0084   -1.8019   23.4945 C   0  0  0  0  0  0  0  0  0  0  0  0
   10.0005   -4.2520   16.5631 C   0  0  0  0  0  0  0  0  0  0  0  0
   10.2759   -4.0036   17.8845 C   0  0  0  0  0  0  0  0  0  0  0  0
    8.5652    1.5478   25.3778 N   0  0  0  0  0  0  0  0  0  0  0  0
    6.8048   -7.5457   17.8752 C   0  0  0  0  0  0  0  0  0  0  0  0
    6.1721   -8.2186   15.9886 N   0  0  0  0  0  0  0  0  0  0  0  0
   11.1764   -2.6600   19.5604 C   0  0  0  0  0  0  0  0  0  0  0  0
    9.5491   -0.6380   24.1912 C   0  0  0  0  0  0  0  0  0  0  0  0
    7.5337   -6.9256   16.9519 C   0  0  0  0  0  0  0  0  0  0  0  0
    9.6782    0.5671   23.5143 C   0  0  0  0  0  0  0  0  0  0  0  0
    8.4532    0.3482   26.0821 C   0  0  0  0  0  0  0  0  0  0  0  0
   10.4239   -1.7677   22.2230 N   0  0  0  0  0  0  0  0  0  0  0  0
    9.9468   -4.5953   20.1709 C   0  0  0  0  0  0  0  0  0  0  0  0
   10.0366   -3.0590   23.9864 N   0  0  0  0  0  0  0  0  0  0  0  0
    7.1191   -7.3636   15.7739 C   0  0  0  0  0  0  0  0  0  0  0  0
    5.9612   -8.3203   17.2732 N   0  0  0  0  0  0  0  0  0  0  0  0
    8.5296   -5.9814   17.1841 C   0  0  0  0  0  0  0  0  0  0  0  0
    9.1527   -5.2118   16.2116 C   0  0  0  0  0  0  0  0  0  0  0  0
   10.3364   -3.8368   22.9255 O   0  0  0  0  0  0  0  0  0  0  0  0
    9.6947   -4.8407   18.8534 C   0  0  0  0  0  0  0  0  0  0  0  0
    9.1596    1.7042   24.1381 C   0  0  0  0  0  0  0  0  0  0  0  0
   11.0456   -2.9774   18.2694 N   0  0  0  0  0  0  0  0  0  0  0  0
   10.4788   -3.0457   21.8593 C   0  0  0  0  0  0  0  0  0  0  0  0
    8.8693   -5.8099   18.4657 N   0  0  0  0  0  0  0  0  0  0  0  0
    8.9892   -0.7926   25.4573 C   0  0  0  0  0  0  0  0  0  0  0  0
   10.5677   -3.4462   20.5323 C   0  0  0  0  0  0  0  0  0  0  0  0
  1  8  1  0
  1 12  4  0
  1 14  4  0
  2  3  4  0
  2 18  4  0
  3 20  4  0
  3 22  4  0
  4 11  4  0
  4 21  4  0
  5  9  4  0
  5 16  4  0
  6 15  4  0
  6 16  4  0
  7 22  4  0
  7 26  4  0
  8 10  4  0
  8 25  4  0
  9 15  4  0
  9 17  1  0
 10 21  4  0
 11 25  4  0
 12 23  4  0
 13 20  4  0
 13 26  4  0
 14 19  4  0
 17 18  4  0
 17 24  4  0
 19 23  4  0
 20 24  4  0
 23 26  1  0
M  END
$$$$

 Created by Python create_sdf_string function

 26 30  0  0  0  0  0  0  0  0999 V2000
   10.0084   -1.8019   23.4945 C   0  0  0  0  0  0  0  0  0  0  0  0
   10.0005   -4.2520   16.5631 C   0  0  0  0  0  0  0  0  0  0  0  0
   10.2759   -4.0036   17.8845 C   0  0  0  0  0  0  0  0  0  0  0  0
    8.5652    1.5478   25.3778 N   0  0  0  0  0  0  0  0  0  0  0  0
    6.8048   -7.5457   17.8752 C   0  0  0  0  0  0  0  0  0  0  0  0
    6.1721   -8.2186   15.9886 N   0  0  0  0  0  0  0  0  0  0  0  0
   11.1764   -2.6600   19.5604 C   0  0  0  0  0  0  0  0  0  0  0  0
    9.5491   -0.6380   24.1912 C   0  0  0  0  0  0  0  0  0  0  0  0
    7.5337   -6.9256   16.9519 C   0  0  0  0  0  0  0  0  0  0  0  0
    9.6782    0.5671   23.5143 C   0  0  0  0  0  0  0  0  0  0  0  0
    8.4532    0.3482   26.0821 C   0  0  0  0  0  0  0  0  0  0  0  0
   10.4239   -1.7677   22.2230 N   0  0  0  0  0  0  0  0  0  0  0  0
    9.9468   -4.5953   20.1709 C   0  0  0  0  0  0  0  0  0  0  0  0
   10.0366   -3.0590   23.9864 N   0  0  0  0  0  0  0  0  0  0  0  0
    7.1191   -7.3636   15.7739 C   0  0  0  0  0  0  0  0  0  0  0  0
    5.9612   -8.3203   17.2732 N   0  0  0  0  0  0  0  0  0  0  0  0
    8.5296   -5.9814   17.1841 C   0  0  0  0  0  0  0  0  0  0  0  0
    9.1527   -5.2118   16.2116 C   0  0  0  0  0  0  0  0  0  0  0  0
   10.3364   -3.8368   22.9255 O   0  0  0  0  0  0  0  0  0  0  0  0
    9.6947   -4.8407   18.8534 C   0  0  0  0  0  0  0  0  0  0  0  0
    9.1596    1.7042   24.1381 C   0  0  0  0  0  0  0  0  0  0  0  0
   11.0456   -2.9774   18.2694 N   0  0  0  0  0  0  0  0  0  0  0  0
   10.4788   -3.0457   21.8593 C   0  0  0  0  0  0  0  0  0  0  0  0
    8.8693   -5.8099   18.4657 N   0  0  0  0  0  0  0  0  0  0  0  0
    8.9892   -0.7926   25.4573 C   0  0  0  0  0  0  0  0  0  0  0  0
   10.5677   -3.4462   20.5323 C   0  0  0  0  0  0  0  0  0  0  0  0
  1  8  1  0
  1 12  4  0
  1 14  4  0
  2  3  4  0
  2 18  4  0
  3 20  4  0
  3 22  4  0
  4 11  4  0
  4 21  4  0
  5  9  4  0
  5 16  4  0
  6 15  4  0
  6 16  4  0
  7 22  4  0
  7 26  4  0
  8 10  4  0
  8 25  4  0
  9 15  4  0
  9 17  1  0
 10 21  4  0
 11 25  4  0
 12 23  4  0
 13 20  4  0
 13 26  4  0
 14 19  4  0
 17 18  4  0
 17 24  4  0
 19 23  4  0
 20 24  4  0
 23 26  1  0
M  END
$$$$

 Created by Python create_sdf_string function

 26 30  0  0  0  0  0  0  0  0999 V2000
   10.0084   -1.8019   23.4945 C   0  0  0  0  0  0  0  0  0  0  0  0
   10.0005   -4.2520   16.5631 C   0  0  0  0  0  0  0  0  0  0  0  0
   10.2759   -4.0036   17.8845 C   0  0  0  0  0  0  0  0  0  0  0  0
    8.5652    1.5478   25.3778 N   0  0  0  0  0  0  0  0  0  0  0  0
    6.8048   -7.5457   17.8752 C   0  0  0  0  0  0  0  0  0  0  0  0
    6.1721   -8.2186   15.9886 N   0  0  0  0  0  0  0  0  0  0  0  0
   11.1764   -2.6600   19.5604 C   0  0  0  0  0  0  0  0  0  0  0  0
    9.5491   -0.6380   24.1912 C   0  0  0  0  0  0  0  0  0  0  0  0
    7.5337   -6.9256   16.9519 C   0  0  0  0  0  0  0  0  0  0  0  0
    9.6782    0.5671   23.5143 C   0  0  0  0  0  0  0  0  0  0  0  0
    8.4532    0.3482   26.0821 C   0  0  0  0  0  0  0  0  0  0  0  0
   10.4239   -1.7677   22.2230 N   0  0  0  0  0  0  0  0  0  0  0  0
    9.9468   -4.5953   20.1709 C   0  0  0  0  0  0  0  0  0  0  0  0
   10.0366   -3.0590   23.9864 N   0  0  0  0  0  0  0  0  0  0  0  0
    7.1191   -7.3636   15.7739 C   0  0  0  0  0  0  0  0  0  0  0  0
    5.9612   -8.3203   17.2732 N   0  0  0  0  0  0  0  0  0  0  0  0
    8.5296   -5.9814   17.1841 C   0  0  0  0  0  0  0  0  0  0  0  0
    9.1527   -5.2118   16.2116 C   0  0  0  0  0  0  0  0  0  0  0  0
   10.3364   -3.8368   22.9255 O   0  0  0  0  0  0  0  0  0  0  0  0
    9.6947   -4.8407   18.8534 C   0  0  0  0  0  0  0  0  0  0  0  0
    9.1596    1.7042   24.1381 C   0  0  0  0  0  0  0  0  0  0  0  0
   11.0456   -2.9774   18.2694 N   0  0  0  0  0  0  0  0  0  0  0  0
   10.4788   -3.0457   21.8593 C   0  0  0  0  0  0  0  0  0  0  0  0
    8.8693   -5.8099   18.4657 N   0  0  0  0  0  0  0  0  0  0  0  0
    8.9892   -0.7926   25.4573 C   0  0  0  0  0  0  0  0  0  0  0  0
   10.5677   -3.4462   20.5323 C   0  0  0  0  0  0  0  0  0  0  0  0
  1  8  1  0
  1 12  4  0
  1 14  4  0
  2  3  4  0
  2 18  4  0
  3 20  4  0
  3 22  4  0
  4 11  4  0
  4 21  4  0
  5  9  4  0
  5 16  4  0
  6 15  4  0
  6 16  4  0
  7 22  4  0
  7 26  4  0
  8 10  4  0
  8 25  4  0
  9 15  4  0
  9 17  1  0
 10 21  4  0
 11 25  4  0
 12 23  4  0
 13 20  4  0
 13 26  4  0
 14 19  4  0
 17 18  4  0
 17 24  4  0
 19 23  4  0
 20 24  4  0
 23 26  1  0
M  END
$$$$

 Created by Python create_sdf_string function

 26 30  0  0  0  0  0  0  0  0999 V2000
   10.0084   -1.8019   23.4945 C   0  0  0  0  0  0  0  0  0  0  0  0
   10.0005   -4.2520   16.5631 C   0  0  0  0  0  0  0  0  0  0  0  0
   10.2759   -4.0036   17.8845 C   0  0  0  0  0  0  0  0  0  0  0  0
    8.5652    1.5478   25.3778 N   0  0  0  0  0  0  0  0  0  0  0  0
    6.8048   -7.5457   17.8752 C   0  0  0  0  0  0  0  0  0  0  0  0
    6.1721   -8.2186   15.9886 N   0  0  0  0  0  0  0  0  0  0  0  0
   11.1764   -2.6600   19.5604 C   0  0  0  0  0  0  0  0  0  0  0  0
    9.5491   -0.6380   24.1912 C   0  0  0  0  0  0  0  0  0  0  0  0
    7.5337   -6.9256   16.9519 C   0  0  0  0  0  0  0  0  0  0  0  0
    9.6782    0.5671   23.5143 C   0  0  0  0  0  0  0  0  0  0  0  0
    8.4532    0.3482   26.0821 C   0  0  0  0  0  0  0  0  0  0  0  0
   10.4239   -1.7677   22.2230 N   0  0  0  0  0  0  0  0  0  0  0  0
    9.9468   -4.5953   20.1709 C   0  0  0  0  0  0  0  0  0  0  0  0
   10.0366   -3.0590   23.9864 N   0  0  0  0  0  0  0  0  0  0  0  0
    7.1191   -7.3636   15.7739 C   0  0  0  0  0  0  0  0  0  0  0  0
    5.9612   -8.3203   17.2732 N   0  0  0  0  0  0  0  0  0  0  0  0
    8.5296   -5.9814   17.1841 C   0  0  0  0  0  0  0  0  0  0  0  0
    9.1527   -5.2118   16.2116 C   0  0  0  0  0  0  0  0  0  0  0  0
   10.3364   -3.8368   22.9255 O   0  0  0  0  0  0  0  0  0  0  0  0
    9.6947   -4.8407   18.8534 C   0  0  0  0  0  0  0  0  0  0  0  0
    9.1596    1.7042   24.1381 C   0  0  0  0  0  0  0  0  0  0  0  0
   11.0456   -2.9774   18.2694 N   0  0  0  0  0  0  0  0  0  0  0  0
   10.4788   -3.0457   21.8593 C   0  0  0  0  0  0  0  0  0  0  0  0
    8.8693   -5.8099   18.4657 N   0  0  0  0  0  0  0  0  0  0  0  0
    8.9892   -0.7926   25.4573 C   0  0  0  0  0  0  0  0  0  0  0  0
   10.5677   -3.4462   20.5323 C   0  0  0  0  0  0  0  0  0  0  0  0
  1  8  1  0
  1 12  4  0
  1 14  4  0
  2  3  4  0
  2 18  4  0
  3 20  4  0
  3 22  4  0
  4 11  4  0
  4 21  4  0
  5  9  4  0
  5 16  4  0
  6 15  4  0
  6 16  4  0
  7 22  4  0
  7 26  4  0
  8 10  4  0
  8 25  4  0
  9 15  4  0
  9 17  1  0
 10 21  4  0
 11 25  4  0
 12 23  4  0
 13 20  4  0
 13 26  4  0
 14 19  4  0
 17 18  4  0
 17 24  4  0
 19 23  4  0
 20 24  4  0
 23 26  1  0
M  END
$$$$

 Created by Python create_sdf_string function

 26 30  0  0  0  0  0  0  0  0999 V2000
   10.0084   -1.8019   23.4945 C   0  0  0  0  0  0  0  0  0  0  0  0
   10.0005   -4.2520   16.5631 C   0  0  0  0  0  0  0  0  0  0  0  0
   10.2759   -4.0036   17.8845 C   0  0  0  0  0  0  0  0  0  0  0  0
    8.5652    1.5478   25.3778 N   0  0  0  0  0  0  0  0  0  0  0  0
    6.8048   -7.5457   17.8752 C   0  0  0  0  0  0  0  0  0  0  0  0
    6.1721   -8.2186   15.9886 N   0  0  0  0  0  0  0  0  0  0  0  0
   11.1764   -2.6600   19.5604 C   0  0  0  0  0  0  0  0  0  0  0  0
    9.5491   -0.6380   24.1912 C   0  0  0  0  0  0  0  0  0  0  0  0
    7.5337   -6.9256   16.9519 C   0  0  0  0  0  0  0  0  0  0  0  0
    9.6782    0.5671   23.5143 C   0  0  0  0  0  0  0  0  0  0  0  0
    8.4532    0.3482   26.0821 C   0  0  0  0  0  0  0  0  0  0  0  0
   10.4239   -1.7677   22.2230 N   0  0  0  0  0  0  0  0  0  0  0  0
    9.9468   -4.5953   20.1709 C   0  0  0  0  0  0  0  0  0  0  0  0
   10.0366   -3.0590   23.9864 N   0  0  0  0  0  0  0  0  0  0  0  0
    7.1191   -7.3636   15.7739 C   0  0  0  0  0  0  0  0  0  0  0  0
    5.9612   -8.3203   17.2732 N   0  0  0  0  0  0  0  0  0  0  0  0
    8.5296   -5.9814   17.1841 C   0  0  0  0  0  0  0  0  0  0  0  0
    9.1527   -5.2118   16.2116 C   0  0  0  0  0  0  0  0  0  0  0  0
   10.3364   -3.8368   22.9255 O   0  0  0  0  0  0  0  0  0  0  0  0
    9.6947   -4.8407   18.8534 C   0  0  0  0  0  0  0  0  0  0  0  0
    9.1596    1.7042   24.1381 C   0  0  0  0  0  0  0  0  0  0  0  0
   11.0456   -2.9774   18.2694 N   0  0  0  0  0  0  0  0  0  0  0  0
   10.4788   -3.0457   21.8593 C   0  0  0  0  0  0  0  0  0  0  0  0
    8.8693   -5.8099   18.4657 N   0  0  0  0  0  0  0  0  0  0  0  0
    8.9892   -0.7926   25.4573 C   0  0  0  0  0  0  0  0  0  0  0  0
   10.5677   -3.4462   20.5323 C   0  0  0  0  0  0  0  0  0  0  0  0
  1  8  1  0
  1 12  4  0
  1 14  4  0
  2  3  4  0
  2 18  4  0
  3 20  4  0
  3 22  4  0
  4 11  4  0
  4 21  4  0
  5  9  4  0
  5 16  4  0
  6 15  4  0
  6 16  4  0
  7 22  4  0
  7 26  4  0
  8 10  4  0
  8 25  4  0
  9 15  4  0
  9 17  1  0
 10 21  4  0
 11 25  4  0
 12 23  4  0
 13 20  4  0
 13 26  4  0
 14 19  4  0
 17 18  4  0
 17 24  4  0
 19 23  4  0
 20 24  4  0
 23 26  1  0
M  END
$$$$

 Created by Python create_sdf_string function

 26 30  0  0  0  0  0  0  0  0999 V2000
   10.0084   -1.8019   23.4945 C   0  0  0  0  0  0  0  0  0  0  0  0
   10.0005   -4.2520   16.5631 C   0  0  0  0  0  0  0  0  0  0  0  0
   10.2759   -4.0036   17.8845 C   0  0  0  0  0  0  0  0  0  0  0  0
    8.5652    1.5478   25.3778 N   0  0  0  0  0  0  0  0  0  0  0  0
    6.8048   -7.5457   17.8752 C   0  0  0  0  0  0  0  0  0  0  0  0
    6.1721   -8.2186   15.9886 N   0  0  0  0  0  0  0  0  0  0  0  0
   11.1764   -2.6600   19.5604 C   0  0  0  0  0  0  0  0  0  0  0  0
    9.5491   -0.6380   24.1912 C   0  0  0  0  0  0  0  0  0  0  0  0
    7.5337   -6.9256   16.9519 C   0  0  0  0  0  0  0  0  0  0  0  0
    9.6782    0.5671   23.5143 C   0  0  0  0  0  0  0  0  0  0  0  0
    8.4532    0.3482   26.0821 C   0  0  0  0  0  0  0  0  0  0  0  0
   10.4239   -1.7677   22.2230 N   0  0  0  0  0  0  0  0  0  0  0  0
    9.9468   -4.5953   20.1709 C   0  0  0  0  0  0  0  0  0  0  0  0
   10.0366   -3.0590   23.9864 N   0  0  0  0  0  0  0  0  0  0  0  0
    7.1191   -7.3636   15.7739 C   0  0  0  0  0  0  0  0  0  0  0  0
    5.9612   -8.3203   17.2732 N   0  0  0  0  0  0  0  0  0  0  0  0
    8.5296   -5.9814   17.1841 C   0  0  0  0  0  0  0  0  0  0  0  0
    9.1527   -5.2118   16.2116 C   0  0  0  0  0  0  0  0  0  0  0  0
   10.3364   -3.8368   22.9255 O   0  0  0  0  0  0  0  0  0  0  0  0
    9.6947   -4.8407   18.8534 C   0  0  0  0  0  0  0  0  0  0  0  0
    9.1596    1.7042   24.1381 C   0  0  0  0  0  0  0  0  0  0  0  0
   11.0456   -2.9774   18.2694 N   0  0  0  0  0  0  0  0  0  0  0  0
   10.4788   -3.0457   21.8593 C   0  0  0  0  0  0  0  0  0  0  0  0
    8.8693   -5.8099   18.4657 N   0  0  0  0  0  0  0  0  0  0  0  0
    8.9892   -0.7926   25.4573 C   0  0  0  0  0  0  0  0  0  0  0  0
   10.5677   -3.4462   20.5323 C   0  0  0  0  0  0  0  0  0  0  0  0
  1  8  1  0
  1 12  4  0
  1 14  4  0
  2  3  4  0
  2 18  4  0
  3 20  4  0
  3 22  4  0
  4 11  4  0
  4 21  4  0
  5  9  4  0
  5 16  4  0
  6 15  4  0
  6 16  4  0
  7 22  4  0
  7 26  4  0
  8 10  4  0
  8 25  4  0
  9 15  4  0
  9 17  1  0
 10 21  4  0
 11 25  4  0
 12 23  4  0
 13 20  4  0
 13 26  4  0
 14 19  4  0
 17 18  4  0
 17 24  4  0
 19 23  4  0
 20 24  4  0
 23 26  1  0
M  END
$$$$

 Created by Python create_sdf_string function

 26 30  0  0  0  0  0  0  0  0999 V2000
   10.0084   -1.8019   23.4945 C   0  0  0  0  0  0  0  0  0  0  0  0
   10.0005   -4.2520   16.5631 C   0  0  0  0  0  0  0  0  0  0  0  0
   10.2759   -4.0036   17.8845 C   0  0  0  0  0  0  0  0  0  0  0  0
    8.5652    1.5478   25.3778 N   0  0  0  0  0  0  0  0  0  0  0  0
    6.8048   -7.5457   17.8752 C   0  0  0  0  0  0  0  0  0  0  0  0
    6.1721   -8.2186   15.9886 N   0  0  0  0  0  0  0  0  0  0  0  0
   11.1764   -2.6600   19.5604 C   0  0  0  0  0  0  0  0  0  0  0  0
    9.5491   -0.6380   24.1912 C   0  0  0  0  0  0  0  0  0  0  0  0
    7.5337   -6.9256   16.9519 C   0  0  0  0  0  0  0  0  0  0  0  0
    9.6782    0.5671   23.5143 C   0  0  0  0  0  0  0  0  0  0  0  0
    8.4532    0.3482   26.0821 C   0  0  0  0  0  0  0  0  0  0  0  0
   10.4239   -1.7677   22.2230 N   0  0  0  0  0  0  0  0  0  0  0  0
    9.9468   -4.5953   20.1709 C   0  0  0  0  0  0  0  0  0  0  0  0
   10.0366   -3.0590   23.9864 N   0  0  0  0  0  0  0  0  0  0  0  0
    7.1191   -7.3636   15.7739 C   0  0  0  0  0  0  0  0  0  0  0  0
    5.9612   -8.3203   17.2732 N   0  0  0  0  0  0  0  0  0  0  0  0
    8.5296   -5.9814   17.1841 C   0  0  0  0  0  0  0  0  0  0  0  0
    9.1527   -5.2118   16.2116 C   0  0  0  0  0  0  0  0  0  0  0  0
   10.3364   -3.8368   22.9255 O   0  0  0  0  0  0  0  0  0  0  0  0
    9.6947   -4.8407   18.8534 C   0  0  0  0  0  0  0  0  0  0  0  0
    9.1596    1.7042   24.1381 C   0  0  0  0  0  0  0  0  0  0  0  0
   11.0456   -2.9774   18.2694 N   0  0  0  0  0  0  0  0  0  0  0  0
   10.4788   -3.0457   21.8593 C   0  0  0  0  0  0  0  0  0  0  0  0
    8.8693   -5.8099   18.4657 N   0  0  0  0  0  0  0  0  0  0  0  0
    8.9892   -0.7926   25.4573 C   0  0  0  0  0  0  0  0  0  0  0  0
   10.5677   -3.4462   20.5323 C   0  0  0  0  0  0  0  0  0  0  0  0
  1  8  1  0
  1 12  4  0
  1 14  4  0
  2  3  4  0
  2 18  4  0
  3 20  4  0
  3 22  4  0
  4 11  4  0
  4 21  4  0
  5  9  4  0
  5 16  4  0
  6 15  4  0
  6 16  4  0
  7 22  4  0
  7 26  4  0
  8 10  4  0
  8 25  4  0
  9 15  4  0
  9 17  1  0
 10 21  4  0
 11 25  4  0
 12 23  4  0
 13 20  4  0
 13 26  4  0
 14 19  4  0
 17 18  4  0
 17 24  4  0
 19 23  4  0
 20 24  4  0
 23 26  1  0
M  END
$$$$

 Created by Python create_sdf_string function

 26 30  0  0  0  0  0  0  0  0999 V2000
   10.0084   -1.8019   23.4945 C   0  0  0  0  0  0  0  0  0  0  0  0
   10.0005   -4.2520   16.5631 C   0  0  0  0  0  0  0  0  0  0  0  0
   10.2759   -4.0036   17.8845 C   0  0  0  0  0  0  0  0  0  0  0  0
    8.5652    1.5478   25.3778 N   0  0  0  0  0  0  0  0  0  0  0  0
    6.8048   -7.5457   17.8752 C   0  0  0  0  0  0  0  0  0  0  0  0
    6.1721   -8.2186   15.9886 N   0  0  0  0  0  0  0  0  0  0  0  0
   11.1764   -2.6600   19.5604 C   0  0  0  0  0  0  0  0  0  0  0  0
    9.5491   -0.6380   24.1912 C   0  0  0  0  0  0  0  0  0  0  0  0
    7.5337   -6.9256   16.9519 C   0  0  0  0  0  0  0  0  0  0  0  0
    9.6782    0.5671   23.5143 C   0  0  0  0  0  0  0  0  0  0  0  0
    8.4532    0.3482   26.0821 C   0  0  0  0  0  0  0  0  0  0  0  0
   10.4239   -1.7677   22.2230 N   0  0  0  0  0  0  0  0  0  0  0  0
    9.9468   -4.5953   20.1709 C   0  0  0  0  0  0  0  0  0  0  0  0
   10.0366   -3.0590   23.9864 N   0  0  0  0  0  0  0  0  0  0  0  0
    7.1191   -7.3636   15.7739 C   0  0  0  0  0  0  0  0  0  0  0  0
    5.9612   -8.3203   17.2732 N   0  0  0  0  0  0  0  0  0  0  0  0
    8.5296   -5.9814   17.1841 C   0  0  0  0  0  0  0  0  0  0  0  0
    9.1527   -5.2118   16.2116 C   0  0  0  0  0  0  0  0  0  0  0  0
   10.3364   -3.8368   22.9255 O   0  0  0  0  0  0  0  0  0  0  0  0
    9.6947   -4.8407   18.8534 C   0  0  0  0  0  0  0  0  0  0  0  0
    9.1596    1.7042   24.1381 C   0  0  0  0  0  0  0  0  0  0  0  0
   11.0456   -2.9774   18.2694 N   0  0  0  0  0  0  0  0  0  0  0  0
   10.4788   -3.0457   21.8593 C   0  0  0  0  0  0  0  0  0  0  0  0
    8.8693   -5.8099   18.4657 N   0  0  0  0  0  0  0  0  0  0  0  0
    8.9892   -0.7926   25.4573 C   0  0  0  0  0  0  0  0  0  0  0  0
   10.5677   -3.4462   20.5323 C   0  0  0  0  0  0  0  0  0  0  0  0
  1  8  1  0
  1 12  4  0
  1 14  4  0
  2  3  4  0
  2 18  4  0
  3 20  4  0
  3 22  4  0
  4 11  4  0
  4 21  4  0
  5  9  4  0
  5 16  4  0
  6 15  4  0
  6 16  4  0
  7 22  4  0
  7 26  4  0
  8 10  4  0
  8 25  4  0
  9 15  4  0
  9 17  1  0
 10 21  4  0
 11 25  4  0
 12 23  4  0
 13 20  4  0
 13 26  4  0
 14 19  4  0
 17 18  4  0
 17 24  4  0
 19 23  4  0
 20 24  4  0
 23 26  1  0
M  END
$$$$

 Created by Python create_sdf_string function

 26 30  0  0  0  0  0  0  0  0999 V2000
   10.0084   -1.8019   23.4945 C   0  0  0  0  0  0  0  0  0  0  0  0
   10.0005   -4.2520   16.5631 C   0  0  0  0  0  0  0  0  0  0  0  0
   10.2759   -4.0036   17.8845 C   0  0  0  0  0  0  0  0  0  0  0  0
    8.5652    1.5478   25.3778 N   0  0  0  0  0  0  0  0  0  0  0  0
    6.8048   -7.5457   17.8752 C   0  0  0  0  0  0  0  0  0  0  0  0
    6.1721   -8.2186   15.9886 N   0  0  0  0  0  0  0  0  0  0  0  0
   11.1764   -2.6600   19.5604 C   0  0  0  0  0  0  0  0  0  0  0  0
    9.5491   -0.6380   24.1912 C   0  0  0  0  0  0  0  0  0  0  0  0
    7.5337   -6.9256   16.9519 C   0  0  0  0  0  0  0  0  0  0  0  0
    9.6782    0.5671   23.5143 C   0  0  0  0  0  0  0  0  0  0  0  0
    8.4532    0.3482   26.0821 C   0  0  0  0  0  0  0  0  0  0  0  0
   10.4239   -1.7677   22.2230 N   0  0  0  0  0  0  0  0  0  0  0  0
    9.9468   -4.5953   20.1709 C   0  0  0  0  0  0  0  0  0  0  0  0
   10.0366   -3.0590   23.9864 N   0  0  0  0  0  0  0  0  0  0  0  0
    7.1191   -7.3636   15.7739 C   0  0  0  0  0  0  0  0  0  0  0  0
    5.9612   -8.3203   17.2732 N   0  0  0  0  0  0  0  0  0  0  0  0
    8.5296   -5.9814   17.1841 C   0  0  0  0  0  0  0  0  0  0  0  0
    9.1527   -5.2118   16.2116 C   0  0  0  0  0  0  0  0  0  0  0  0
   10.3364   -3.8368   22.9255 O   0  0  0  0  0  0  0  0  0  0  0  0
    9.6947   -4.8407   18.8534 C   0  0  0  0  0  0  0  0  0  0  0  0
    9.1596    1.7042   24.1381 C   0  0  0  0  0  0  0  0  0  0  0  0
   11.0456   -2.9774   18.2694 N   0  0  0  0  0  0  0  0  0  0  0  0
   10.4788   -3.0457   21.8593 C   0  0  0  0  0  0  0  0  0  0  0  0
    8.8693   -5.8099   18.4657 N   0  0  0  0  0  0  0  0  0  0  0  0
    8.9892   -0.7926   25.4573 C   0  0  0  0  0  0  0  0  0  0  0  0
   10.5677   -3.4462   20.5323 C   0  0  0  0  0  0  0  0  0  0  0  0
  1  8  1  0
  1 12  4  0
  1 14  4  0
  2  3  4  0
  2 18  4  0
  3 20  4  0
  3 22  4  0
  4 11  4  0
  4 21  4  0
  5  9  4  0
  5 16  4  0
  6 15  4  0
  6 16  4  0
  7 22  4  0
  7 26  4  0
  8 10  4  0
  8 25  4  0
  9 15  4  0
  9 17  1  0
 10 21  4  0
 11 25  4  0
 12 23  4  0
 13 20  4  0
 13 26  4  0
 14 19  4  0
 17 18  4  0
 17 24  4  0
 19 23  4  0
 20 24  4  0
 23 26  1  0
M  END
$$$$

 Created by Python create_sdf_string function

 26 30  0  0  0  0  0  0  0  0999 V2000
   10.0084   -1.8019   23.4945 C   0  0  0  0  0  0  0  0  0  0  0  0
   10.0005   -4.2520   16.5631 C   0  0  0  0  0  0  0  0  0  0  0  0
   10.2759   -4.0036   17.8845 C   0  0  0  0  0  0  0  0  0  0  0  0
    8.5652    1.5478   25.3778 N   0  0  0  0  0  0  0  0  0  0  0  0
    6.8048   -7.5457   17.8752 C   0  0  0  0  0  0  0  0  0  0  0  0
    6.1721   -8.2186   15.9886 N   0  0  0  0  0  0  0  0  0  0  0  0
   11.1764   -2.6600   19.5604 C   0  0  0  0  0  0  0  0  0  0  0  0
    9.5491   -0.6380   24.1912 C   0  0  0  0  0  0  0  0  0  0  0  0
    7.5337   -6.9256   16.9519 C   0  0  0  0  0  0  0  0  0  0  0  0
    9.6782    0.5671   23.5143 C   0  0  0  0  0  0  0  0  0  0  0  0
    8.4532    0.3482   26.0821 C   0  0  0  0  0  0  0  0  0  0  0  0
   10.4239   -1.7677   22.2230 N   0  0  0  0  0  0  0  0  0  0  0  0
    9.9468   -4.5953   20.1709 C   0  0  0  0  0  0  0  0  0  0  0  0
   10.0366   -3.0590   23.9864 N   0  0  0  0  0  0  0  0  0  0  0  0
    7.1191   -7.3636   15.7739 C   0  0  0  0  0  0  0  0  0  0  0  0
    5.9612   -8.3203   17.2732 N   0  0  0  0  0  0  0  0  0  0  0  0
    8.5296   -5.9814   17.1841 C   0  0  0  0  0  0  0  0  0  0  0  0
    9.1527   -5.2118   16.2116 C   0  0  0  0  0  0  0  0  0  0  0  0
   10.3364   -3.8368   22.9255 O   0  0  0  0  0  0  0  0  0  0  0  0
    9.6947   -4.8407   18.8534 C   0  0  0  0  0  0  0  0  0  0  0  0
    9.1596    1.7042   24.1381 C   0  0  0  0  0  0  0  0  0  0  0  0
   11.0456   -2.9774   18.2694 N   0  0  0  0  0  0  0  0  0  0  0  0
   10.4788   -3.0457   21.8593 C   0  0  0  0  0  0  0  0  0  0  0  0
    8.8693   -5.8099   18.4657 N   0  0  0  0  0  0  0  0  0  0  0  0
    8.9892   -0.7926   25.4573 C   0  0  0  0  0  0  0  0  0  0  0  0
   10.5677   -3.4462   20.5323 C   0  0  0  0  0  0  0  0  0  0  0  0
  1  8  1  0
  1 12  4  0
  1 14  4  0
  2  3  4  0
  2 18  4  0
  3 20  4  0
  3 22  4  0
  4 11  4  0
  4 21  4  0
  5  9  4  0
  5 16  4  0
  6 15  4  0
  6 16  4  0
  7 22  4  0
  7 26  4  0
  8 10  4  0
  8 25  4  0
  9 15  4  0
  9 17  1  0
 10 21  4  0
 11 25  4  0
 12 23  4  0
 13 20  4  0
 13 26  4  0
 14 19  4  0
 17 18  4  0
 17 24  4  0
 19 23  4  0
 20 24  4  0
 23 26  1  0
M  END
$$$$

 Created by Python create_sdf_string function

 26 30  0  0  0  0  0  0  0  0999 V2000
   10.0084   -1.8019   23.4945 C   0  0  0  0  0  0  0  0  0  0  0  0
   10.0005   -4.2520   16.5631 C   0  0  0  0  0  0  0  0  0  0  0  0
   10.2759   -4.0036   17.8845 C   0  0  0  0  0  0  0  0  0  0  0  0
    8.5652    1.5478   25.3778 N   0  0  0  0  0  0  0  0  0  0  0  0
    6.8048   -7.5457   17.8752 C   0  0  0  0  0  0  0  0  0  0  0  0
    6.1721   -8.2186   15.9886 N   0  0  0  0  0  0  0  0  0  0  0  0
   11.1764   -2.6600   19.5604 C   0  0  0  0  0  0  0  0  0  0  0  0
    9.5491   -0.6380   24.1912 C   0  0  0  0  0  0  0  0  0  0  0  0
    7.5337   -6.9256   16.9519 C   0  0  0  0  0  0  0  0  0  0  0  0
    9.6782    0.5671   23.5143 C   0  0  0  0  0  0  0  0  0  0  0  0
    8.4532    0.3482   26.0821 C   0  0  0  0  0  0  0  0  0  0  0  0
   10.4239   -1.7677   22.2230 N   0  0  0  0  0  0  0  0  0  0  0  0
    9.9468   -4.5953   20.1709 C   0  0  0  0  0  0  0  0  0  0  0  0
   10.0366   -3.0590   23.9864 N   0  0  0  0  0  0  0  0  0  0  0  0
    7.1191   -7.3636   15.7739 C   0  0  0  0  0  0  0  0  0  0  0  0
    5.9612   -8.3203   17.2732 N   0  0  0  0  0  0  0  0  0  0  0  0
    8.5296   -5.9814   17.1841 C   0  0  0  0  0  0  0  0  0  0  0  0
    9.1527   -5.2118   16.2116 C   0  0  0  0  0  0  0  0  0  0  0  0
   10.3364   -3.8368   22.9255 O   0  0  0  0  0  0  0  0  0  0  0  0
    9.6947   -4.8407   18.8534 C   0  0  0  0  0  0  0  0  0  0  0  0
    9.1596    1.7042   24.1381 C   0  0  0  0  0  0  0  0  0  0  0  0
   11.0456   -2.9774   18.2694 N   0  0  0  0  0  0  0  0  0  0  0  0
   10.4788   -3.0457   21.8593 C   0  0  0  0  0  0  0  0  0  0  0  0
    8.8693   -5.8099   18.4657 N   0  0  0  0  0  0  0  0  0  0  0  0
    8.9892   -0.7926   25.4573 C   0  0  0  0  0  0  0  0  0  0  0  0
   10.5677   -3.4462   20.5323 C   0  0  0  0  0  0  0  0  0  0  0  0
  1  8  1  0
  1 12  4  0
  1 14  4  0
  2  3  4  0
  2 18  4  0
  3 20  4  0
  3 22  4  0
  4 11  4  0
  4 21  4  0
  5  9  4  0
  5 16  4  0
  6 15  4  0
  6 16  4  0
  7 22  4  0
  7 26  4  0
  8 10  4  0
  8 25  4  0
  9 15  4  0
  9 17  1  0
 10 21  4  0
 11 25  4  0
 12 23  4  0
 13 20  4  0
 13 26  4  0
 14 19  4  0
 17 18  4  0
 17 24  4  0
 19 23  4  0
 20 24  4  0
 23 26  1  0
M  END
$$$$

 Created by Python create_sdf_string function

 26 30  0  0  0  0  0  0  0  0999 V2000
   10.0084   -1.8019   23.4945 C   0  0  0  0  0  0  0  0  0  0  0  0
   10.0005   -4.2520   16.5631 C   0  0  0  0  0  0  0  0  0  0  0  0
   10.2759   -4.0036   17.8845 C   0  0  0  0  0  0  0  0  0  0  0  0
    8.5652    1.5478   25.3778 N   0  0  0  0  0  0  0  0  0  0  0  0
    6.8048   -7.5457   17.8752 C   0  0  0  0  0  0  0  0  0  0  0  0
    6.1721   -8.2186   15.9886 N   0  0  0  0  0  0  0  0  0  0  0  0
   11.1764   -2.6600   19.5604 C   0  0  0  0  0  0  0  0  0  0  0  0
    9.5491   -0.6380   24.1912 C   0  0  0  0  0  0  0  0  0  0  0  0
    7.5337   -6.9256   16.9519 C   0  0  0  0  0  0  0  0  0  0  0  0
    9.6782    0.5671   23.5143 C   0  0  0  0  0  0  0  0  0  0  0  0
    8.4532    0.3482   26.0821 C   0  0  0  0  0  0  0  0  0  0  0  0
   10.4239   -1.7677   22.2230 N   0  0  0  0  0  0  0  0  0  0  0  0
    9.9468   -4.5953   20.1709 C   0  0  0  0  0  0  0  0  0  0  0  0
   10.0366   -3.0590   23.9864 N   0  0  0  0  0  0  0  0  0  0  0  0
    7.1191   -7.3636   15.7739 C   0  0  0  0  0  0  0  0  0  0  0  0
    5.9612   -8.3203   17.2732 N   0  0  0  0  0  0  0  0  0  0  0  0
    8.5296   -5.9814   17.1841 C   0  0  0  0  0  0  0  0  0  0  0  0
    9.1527   -5.2118   16.2116 C   0  0  0  0  0  0  0  0  0  0  0  0
   10.3364   -3.8368   22.9255 O   0  0  0  0  0  0  0  0  0  0  0  0
    9.6947   -4.8407   18.8534 C   0  0  0  0  0  0  0  0  0  0  0  0
    9.1596    1.7042   24.1381 C   0  0  0  0  0  0  0  0  0  0  0  0
   11.0456   -2.9774   18.2694 N   0  0  0  0  0  0  0  0  0  0  0  0
   10.4788   -3.0457   21.8593 C   0  0  0  0  0  0  0  0  0  0  0  0
    8.8693   -5.8099   18.4657 N   0  0  0  0  0  0  0  0  0  0  0  0
    8.9892   -0.7926   25.4573 C   0  0  0  0  0  0  0  0  0  0  0  0
   10.5677   -3.4462   20.5323 C   0  0  0  0  0  0  0  0  0  0  0  0
  1  8  1  0
  1 12  4  0
  1 14  4  0
  2  3  4  0
  2 18  4  0
  3 20  4  0
  3 22  4  0
  4 11  4  0
  4 21  4  0
  5  9  4  0
  5 16  4  0
  6 15  4  0
  6 16  4  0
  7 22  4  0
  7 26  4  0
  8 10  4  0
  8 25  4  0
  9 15  4  0
  9 17  1  0
 10 21  4  0
 11 25  4  0
 12 23  4  0
 13 20  4  0
 13 26  4  0
 14 19  4  0
 17 18  4  0
 17 24  4  0
 19 23  4  0
 20 24  4  0
 23 26  1  0
M  END
$$$$

 Created by Python create_sdf_string function

 26 30  0  0  0  0  0  0  0  0999 V2000
   10.0084   -1.8019   23.4945 C   0  0  0  0  0  0  0  0  0  0  0  0
   10.0005   -4.2520   16.5631 C   0  0  0  0  0  0  0  0  0  0  0  0
   10.2759   -4.0036   17.8845 C   0  0  0  0  0  0  0  0  0  0  0  0
    8.5652    1.5478   25.3778 N   0  0  0  0  0  0  0  0  0  0  0  0
    6.8048   -7.5457   17.8752 C   0  0  0  0  0  0  0  0  0  0  0  0
    6.1721   -8.2186   15.9886 N   0  0  0  0  0  0  0  0  0  0  0  0
   11.1764   -2.6600   19.5604 C   0  0  0  0  0  0  0  0  0  0  0  0
    9.5491   -0.6380   24.1912 C   0  0  0  0  0  0  0  0  0  0  0  0
    7.5337   -6.9256   16.9519 C   0  0  0  0  0  0  0  0  0  0  0  0
    9.6782    0.5671   23.5143 C   0  0  0  0  0  0  0  0  0  0  0  0
    8.4532    0.3482   26.0821 C   0  0  0  0  0  0  0  0  0  0  0  0
   10.4239   -1.7677   22.2230 N   0  0  0  0  0  0  0  0  0  0  0  0
    9.9468   -4.5953   20.1709 C   0  0  0  0  0  0  0  0  0  0  0  0
   10.0366   -3.0590   23.9864 N   0  0  0  0  0  0  0  0  0  0  0  0
    7.1191   -7.3636   15.7739 C   0  0  0  0  0  0  0  0  0  0  0  0
    5.9612   -8.3203   17.2732 N   0  0  0  0  0  0  0  0  0  0  0  0
    8.5296   -5.9814   17.1841 C   0  0  0  0  0  0  0  0  0  0  0  0
    9.1527   -5.2118   16.2116 C   0  0  0  0  0  0  0  0  0  0  0  0
   10.3364   -3.8368   22.9255 O   0  0  0  0  0  0  0  0  0  0  0  0
    9.6947   -4.8407   18.8534 C   0  0  0  0  0  0  0  0  0  0  0  0
    9.1596    1.7042   24.1381 C   0  0  0  0  0  0  0  0  0  0  0  0
   11.0456   -2.9774   18.2694 N   0  0  0  0  0  0  0  0  0  0  0  0
   10.4788   -3.0457   21.8593 C   0  0  0  0  0  0  0  0  0  0  0  0
    8.8693   -5.8099   18.4657 N   0  0  0  0  0  0  0  0  0  0  0  0
    8.9892   -0.7926   25.4573 C   0  0  0  0  0  0  0  0  0  0  0  0
   10.5677   -3.4462   20.5323 C   0  0  0  0  0  0  0  0  0  0  0  0
  1  8  1  0
  1 12  4  0
  1 14  4  0
  2  3  4  0
  2 18  4  0
  3 20  4  0
  3 22  4  0
  4 11  4  0
  4 21  4  0
  5  9  4  0
  5 16  4  0
  6 15  4  0
  6 16  4  0
  7 22  4  0
  7 26  4  0
  8 10  4  0
  8 25  4  0
  9 15  4  0
  9 17  1  0
 10 21  4  0
 11 25  4  0
 12 23  4  0
 13 20  4  0
 13 26  4  0
 14 19  4  0
 17 18  4  0
 17 24  4  0
 19 23  4  0
 20 24  4  0
 23 26  1  0
M  END
$$$$

 Created by Python create_sdf_string function

 26 30  0  0  0  0  0  0  0  0999 V2000
   10.0084   -1.8019   23.4945 C   0  0  0  0  0  0  0  0  0  0  0  0
   10.0005   -4.2520   16.5631 C   0  0  0  0  0  0  0  0  0  0  0  0
   10.2759   -4.0036   17.8845 C   0  0  0  0  0  0  0  0  0  0  0  0
    8.5652    1.5478   25.3778 N   0  0  0  0  0  0  0  0  0  0  0  0
    6.8048   -7.5457   17.8752 C   0  0  0  0  0  0  0  0  0  0  0  0
    6.1721   -8.2186   15.9886 N   0  0  0  0  0  0  0  0  0  0  0  0
   11.1764   -2.6600   19.5604 C   0  0  0  0  0  0  0  0  0  0  0  0
    9.5491   -0.6380   24.1912 C   0  0  0  0  0  0  0  0  0  0  0  0
    7.5337   -6.9256   16.9519 C   0  0  0  0  0  0  0  0  0  0  0  0
    9.6782    0.5671   23.5143 C   0  0  0  0  0  0  0  0  0  0  0  0
    8.4532    0.3482   26.0821 C   0  0  0  0  0  0  0  0  0  0  0  0
   10.4239   -1.7677   22.2230 N   0  0  0  0  0  0  0  0  0  0  0  0
    9.9468   -4.5953   20.1709 C   0  0  0  0  0  0  0  0  0  0  0  0
   10.0366   -3.0590   23.9864 N   0  0  0  0  0  0  0  0  0  0  0  0
    7.1191   -7.3636   15.7739 C   0  0  0  0  0  0  0  0  0  0  0  0
    5.9612   -8.3203   17.2732 N   0  0  0  0  0  0  0  0  0  0  0  0
    8.5296   -5.9814   17.1841 C   0  0  0  0  0  0  0  0  0  0  0  0
    9.1527   -5.2118   16.2116 C   0  0  0  0  0  0  0  0  0  0  0  0
   10.3364   -3.8368   22.9255 O   0  0  0  0  0  0  0  0  0  0  0  0
    9.6947   -4.8407   18.8534 C   0  0  0  0  0  0  0  0  0  0  0  0
    9.1596    1.7042   24.1381 C   0  0  0  0  0  0  0  0  0  0  0  0
   11.0456   -2.9774   18.2694 N   0  0  0  0  0  0  0  0  0  0  0  0
   10.4788   -3.0457   21.8593 C   0  0  0  0  0  0  0  0  0  0  0  0
    8.8693   -5.8099   18.4657 N   0  0  0  0  0  0  0  0  0  0  0  0
    8.9892   -0.7926   25.4573 C   0  0  0  0  0  0  0  0  0  0  0  0
   10.5677   -3.4462   20.5323 C   0  0  0  0  0  0  0  0  0  0  0  0
  1  8  1  0
  1 12  4  0
  1 14  4  0
  2  3  4  0
  2 18  4  0
  3 20  4  0
  3 22  4  0
  4 11  4  0
  4 21  4  0
  5  9  4  0
  5 16  4  0
  6 15  4  0
  6 16  4  0
  7 22  4  0
  7 26  4  0
  8 10  4  0
  8 25  4  0
  9 15  4  0
  9 17  1  0
 10 21  4  0
 11 25  4  0
 12 23  4  0
 13 20  4  0
 13 26  4  0
 14 19  4  0
 17 18  4  0
 17 24  4  0
 19 23  4  0
 20 24  4  0
 23 26  1  0
M  END
$$$$

 Created by Python create_sdf_string function

 26 30  0  0  0  0  0  0  0  0999 V2000
   10.0084   -1.8019   23.4945 C   0  0  0  0  0  0  0  0  0  0  0  0
   10.0005   -4.2520   16.5631 C   0  0  0  0  0  0  0  0  0  0  0  0
   10.2759   -4.0036   17.8845 C   0  0  0  0  0  0  0  0  0  0  0  0
    8.5652    1.5478   25.3778 N   0  0  0  0  0  0  0  0  0  0  0  0
    6.8048   -7.5457   17.8752 C   0  0  0  0  0  0  0  0  0  0  0  0
    6.1721   -8.2186   15.9886 N   0  0  0  0  0  0  0  0  0  0  0  0
   11.1764   -2.6600   19.5604 C   0  0  0  0  0  0  0  0  0  0  0  0
    9.5491   -0.6380   24.1912 C   0  0  0  0  0  0  0  0  0  0  0  0
    7.5337   -6.9256   16.9519 C   0  0  0  0  0  0  0  0  0  0  0  0
    9.6782    0.5671   23.5143 C   0  0  0  0  0  0  0  0  0  0  0  0
    8.4532    0.3482   26.0821 C   0  0  0  0  0  0  0  0  0  0  0  0
   10.4239   -1.7677   22.2230 N   0  0  0  0  0  0  0  0  0  0  0  0
    9.9468   -4.5953   20.1709 C   0  0  0  0  0  0  0  0  0  0  0  0
   10.0366   -3.0590   23.9864 N   0  0  0  0  0  0  0  0  0  0  0  0
    7.1191   -7.3636   15.7739 C   0  0  0  0  0  0  0  0  0  0  0  0
    5.9612   -8.3203   17.2732 N   0  0  0  0  0  0  0  0  0  0  0  0
    8.5296   -5.9814   17.1841 C   0  0  0  0  0  0  0  0  0  0  0  0
    9.1527   -5.2118   16.2116 C   0  0  0  0  0  0  0  0  0  0  0  0
   10.3364   -3.8368   22.9255 O   0  0  0  0  0  0  0  0  0  0  0  0
    9.6947   -4.8407   18.8534 C   0  0  0  0  0  0  0  0  0  0  0  0
    9.1596    1.7042   24.1381 C   0  0  0  0  0  0  0  0  0  0  0  0
   11.0456   -2.9774   18.2694 N   0  0  0  0  0  0  0  0  0  0  0  0
   10.4788   -3.0457   21.8593 C   0  0  0  0  0  0  0  0  0  0  0  0
    8.8693   -5.8099   18.4657 N   0  0  0  0  0  0  0  0  0  0  0  0
    8.9892   -0.7926   25.4573 C   0  0  0  0  0  0  0  0  0  0  0  0
   10.5677   -3.4462   20.5323 C   0  0  0  0  0  0  0  0  0  0  0  0
  1  8  1  0
  1 12  4  0
  1 14  4  0
  2  3  4  0
  2 18  4  0
  3 20  4  0
  3 22  4  0
  4 11  4  0
  4 21  4  0
  5  9  4  0
  5 16  4  0
  6 15  4  0
  6 16  4  0
  7 22  4  0
  7 26  4  0
  8 10  4  0
  8 25  4  0
  9 15  4  0
  9 17  1  0
 10 21  4  0
 11 25  4  0
 12 23  4  0
 13 20  4  0
 13 26  4  0
 14 19  4  0
 17 18  4  0
 17 24  4  0
 19 23  4  0
 20 24  4  0
 23 26  1  0
M  END
$$$$

 Created by Python create_sdf_string function

 26 30  0  0  0  0  0  0  0  0999 V2000
   10.0084   -1.8019   23.4945 C   0  0  0  0  0  0  0  0  0  0  0  0
   10.0005   -4.2520   16.5631 C   0  0  0  0  0  0  0  0  0  0  0  0
   10.2759   -4.0036   17.8845 C   0  0  0  0  0  0  0  0  0  0  0  0
    8.5652    1.5478   25.3778 N   0  0  0  0  0  0  0  0  0  0  0  0
    6.8048   -7.5457   17.8752 C   0  0  0  0  0  0  0  0  0  0  0  0
    6.1721   -8.2186   15.9886 N   0  0  0  0  0  0  0  0  0  0  0  0
   11.1764   -2.6600   19.5604 C   0  0  0  0  0  0  0  0  0  0  0  0
    9.5491   -0.6380   24.1912 C   0  0  0  0  0  0  0  0  0  0  0  0
    7.5337   -6.9256   16.9519 C   0  0  0  0  0  0  0  0  0  0  0  0
    9.6782    0.5671   23.5143 C   0  0  0  0  0  0  0  0  0  0  0  0
    8.4532    0.3482   26.0821 C   0  0  0  0  0  0  0  0  0  0  0  0
   10.4239   -1.7677   22.2230 N   0  0  0  0  0  0  0  0  0  0  0  0
    9.9468   -4.5953   20.1709 C   0  0  0  0  0  0  0  0  0  0  0  0
   10.0366   -3.0590   23.9864 N   0  0  0  0  0  0  0  0  0  0  0  0
    7.1191   -7.3636   15.7739 C   0  0  0  0  0  0  0  0  0  0  0  0
    5.9612   -8.3203   17.2732 N   0  0  0  0  0  0  0  0  0  0  0  0
    8.5296   -5.9814   17.1841 C   0  0  0  0  0  0  0  0  0  0  0  0
    9.1527   -5.2118   16.2116 C   0  0  0  0  0  0  0  0  0  0  0  0
   10.3364   -3.8368   22.9255 O   0  0  0  0  0  0  0  0  0  0  0  0
    9.6947   -4.8407   18.8534 C   0  0  0  0  0  0  0  0  0  0  0  0
    9.1596    1.7042   24.1381 C   0  0  0  0  0  0  0  0  0  0  0  0
   11.0456   -2.9774   18.2694 N   0  0  0  0  0  0  0  0  0  0  0  0
   10.4788   -3.0457   21.8593 C   0  0  0  0  0  0  0  0  0  0  0  0
    8.8693   -5.8099   18.4657 N   0  0  0  0  0  0  0  0  0  0  0  0
    8.9892   -0.7926   25.4573 C   0  0  0  0  0  0  0  0  0  0  0  0
   10.5677   -3.4462   20.5323 C   0  0  0  0  0  0  0  0  0  0  0  0
  1  8  1  0
  1 12  4  0
  1 14  4  0
  2  3  4  0
  2 18  4  0
  3 20  4  0
  3 22  4  0
  4 11  4  0
  4 21  4  0
  5  9  4  0
  5 16  4  0
  6 15  4  0
  6 16  4  0
  7 22  4  0
  7 26  4  0
  8 10  4  0
  8 25  4  0
  9 15  4  0
  9 17  1  0
 10 21  4  0
 11 25  4  0
 12 23  4  0
 13 20  4  0
 13 26  4  0
 14 19  4  0
 17 18  4  0
 17 24  4  0
 19 23  4  0
 20 24  4  0
 23 26  1  0
M  END
$$$$

 Created by Python create_sdf_string function

 26 30  0  0  0  0  0  0  0  0999 V2000
   10.0084   -1.8019   23.4945 C   0  0  0  0  0  0  0  0  0  0  0  0
   10.0005   -4.2520   16.5631 C   0  0  0  0  0  0  0  0  0  0  0  0
   10.2759   -4.0036   17.8845 C   0  0  0  0  0  0  0  0  0  0  0  0
    8.5652    1.5478   25.3778 N   0  0  0  0  0  0  0  0  0  0  0  0
    6.8048   -7.5457   17.8752 C   0  0  0  0  0  0  0  0  0  0  0  0
    6.1721   -8.2186   15.9886 N   0  0  0  0  0  0  0  0  0  0  0  0
   11.1764   -2.6600   19.5604 C   0  0  0  0  0  0  0  0  0  0  0  0
    9.5491   -0.6380   24.1912 C   0  0  0  0  0  0  0  0  0  0  0  0
    7.5337   -6.9256   16.9519 C   0  0  0  0  0  0  0  0  0  0  0  0
    9.6782    0.5671   23.5143 C   0  0  0  0  0  0  0  0  0  0  0  0
    8.4532    0.3482   26.0821 C   0  0  0  0  0  0  0  0  0  0  0  0
   10.4239   -1.7677   22.2230 N   0  0  0  0  0  0  0  0  0  0  0  0
    9.9468   -4.5953   20.1709 C   0  0  0  0  0  0  0  0  0  0  0  0
   10.0366   -3.0590   23.9864 N   0  0  0  0  0  0  0  0  0  0  0  0
    7.1191   -7.3636   15.7739 C   0  0  0  0  0  0  0  0  0  0  0  0
    5.9612   -8.3203   17.2732 N   0  0  0  0  0  0  0  0  0  0  0  0
    8.5296   -5.9814   17.1841 C   0  0  0  0  0  0  0  0  0  0  0  0
    9.1527   -5.2118   16.2116 C   0  0  0  0  0  0  0  0  0  0  0  0
   10.3364   -3.8368   22.9255 O   0  0  0  0  0  0  0  0  0  0  0  0
    9.6947   -4.8407   18.8534 C   0  0  0  0  0  0  0  0  0  0  0  0
    9.1596    1.7042   24.1381 C   0  0  0  0  0  0  0  0  0  0  0  0
   11.0456   -2.9774   18.2694 N   0  0  0  0  0  0  0  0  0  0  0  0
   10.4788   -3.0457   21.8593 C   0  0  0  0  0  0  0  0  0  0  0  0
    8.8693   -5.8099   18.4657 N   0  0  0  0  0  0  0  0  0  0  0  0
    8.9892   -0.7926   25.4573 C   0  0  0  0  0  0  0  0  0  0  0  0
   10.5677   -3.4462   20.5323 C   0  0  0  0  0  0  0  0  0  0  0  0
  1  8  1  0
  1 12  4  0
  1 14  4  0
  2  3  4  0
  2 18  4  0
  3 20  4  0
  3 22  4  0
  4 11  4  0
  4 21  4  0
  5  9  4  0
  5 16  4  0
  6 15  4  0
  6 16  4  0
  7 22  4  0
  7 26  4  0
  8 10  4  0
  8 25  4  0
  9 15  4  0
  9 17  1  0
 10 21  4  0
 11 25  4  0
 12 23  4  0
 13 20  4  0
 13 26  4  0
 14 19  4  0
 17 18  4  0
 17 24  4  0
 19 23  4  0
 20 24  4  0
 23 26  1  0
M  END
$$$$

 Created by Python create_sdf_string function

 26 30  0  0  0  0  0  0  0  0999 V2000
   10.0084   -1.8019   23.4945 C   0  0  0  0  0  0  0  0  0  0  0  0
   10.0005   -4.2520   16.5631 C   0  0  0  0  0  0  0  0  0  0  0  0
   10.2759   -4.0036   17.8845 C   0  0  0  0  0  0  0  0  0  0  0  0
    8.5652    1.5478   25.3778 N   0  0  0  0  0  0  0  0  0  0  0  0
    6.8048   -7.5457   17.8752 C   0  0  0  0  0  0  0  0  0  0  0  0
    6.1721   -8.2186   15.9886 N   0  0  0  0  0  0  0  0  0  0  0  0
   11.1764   -2.6600   19.5604 C   0  0  0  0  0  0  0  0  0  0  0  0
    9.5491   -0.6380   24.1912 C   0  0  0  0  0  0  0  0  0  0  0  0
    7.5337   -6.9256   16.9519 C   0  0  0  0  0  0  0  0  0  0  0  0
    9.6782    0.5671   23.5143 C   0  0  0  0  0  0  0  0  0  0  0  0
    8.4532    0.3482   26.0821 C   0  0  0  0  0  0  0  0  0  0  0  0
   10.4239   -1.7677   22.2230 N   0  0  0  0  0  0  0  0  0  0  0  0
    9.9468   -4.5953   20.1709 C   0  0  0  0  0  0  0  0  0  0  0  0
   10.0366   -3.0590   23.9864 N   0  0  0  0  0  0  0  0  0  0  0  0
    7.1191   -7.3636   15.7739 C   0  0  0  0  0  0  0  0  0  0  0  0
    5.9612   -8.3203   17.2732 N   0  0  0  0  0  0  0  0  0  0  0  0
    8.5296   -5.9814   17.1841 C   0  0  0  0  0  0  0  0  0  0  0  0
    9.1527   -5.2118   16.2116 C   0  0  0  0  0  0  0  0  0  0  0  0
   10.3364   -3.8368   22.9255 O   0  0  0  0  0  0  0  0  0  0  0  0
    9.6947   -4.8407   18.8534 C   0  0  0  0  0  0  0  0  0  0  0  0
    9.1596    1.7042   24.1381 C   0  0  0  0  0  0  0  0  0  0  0  0
   11.0456   -2.9774   18.2694 N   0  0  0  0  0  0  0  0  0  0  0  0
   10.4788   -3.0457   21.8593 C   0  0  0  0  0  0  0  0  0  0  0  0
    8.8693   -5.8099   18.4657 N   0  0  0  0  0  0  0  0  0  0  0  0
    8.9892   -0.7926   25.4573 C   0  0  0  0  0  0  0  0  0  0  0  0
   10.5677   -3.4462   20.5323 C   0  0  0  0  0  0  0  0  0  0  0  0
  1  8  1  0
  1 12  4  0
  1 14  4  0
  2  3  4  0
  2 18  4  0
  3 20  4  0
  3 22  4  0
  4 11  4  0
  4 21  4  0
  5  9  4  0
  5 16  4  0
  6 15  4  0
  6 16  4  0
  7 22  4  0
  7 26  4  0
  8 10  4  0
  8 25  4  0
  9 15  4  0
  9 17  1  0
 10 21  4  0
 11 25  4  0
 12 23  4  0
 13 20  4  0
 13 26  4  0
 14 19  4  0
 17 18  4  0
 17 24  4  0
 19 23  4  0
 20 24  4  0
 23 26  1  0
M  END
$$$$

 Created by Python create_sdf_string function

 26 30  0  0  0  0  0  0  0  0999 V2000
   10.0084   -1.8019   23.4945 C   0  0  0  0  0  0  0  0  0  0  0  0
   10.0005   -4.2520   16.5631 C   0  0  0  0  0  0  0  0  0  0  0  0
   10.2759   -4.0036   17.8845 C   0  0  0  0  0  0  0  0  0  0  0  0
    8.5652    1.5478   25.3778 N   0  0  0  0  0  0  0  0  0  0  0  0
    6.8048   -7.5457   17.8752 C   0  0  0  0  0  0  0  0  0  0  0  0
    6.1721   -8.2186   15.9886 N   0  0  0  0  0  0  0  0  0  0  0  0
   11.1764   -2.6600   19.5604 C   0  0  0  0  0  0  0  0  0  0  0  0
    9.5491   -0.6380   24.1912 C   0  0  0  0  0  0  0  0  0  0  0  0
    7.5337   -6.9256   16.9519 C   0  0  0  0  0  0  0  0  0  0  0  0
    9.6782    0.5671   23.5143 C   0  0  0  0  0  0  0  0  0  0  0  0
    8.4532    0.3482   26.0821 C   0  0  0  0  0  0  0  0  0  0  0  0
   10.4239   -1.7677   22.2230 N   0  0  0  0  0  0  0  0  0  0  0  0
    9.9468   -4.5953   20.1709 C   0  0  0  0  0  0  0  0  0  0  0  0
   10.0366   -3.0590   23.9864 N   0  0  0  0  0  0  0  0  0  0  0  0
    7.1191   -7.3636   15.7739 C   0  0  0  0  0  0  0  0  0  0  0  0
    5.9612   -8.3203   17.2732 N   0  0  0  0  0  0  0  0  0  0  0  0
    8.5296   -5.9814   17.1841 C   0  0  0  0  0  0  0  0  0  0  0  0
    9.1527   -5.2118   16.2116 C   0  0  0  0  0  0  0  0  0  0  0  0
   10.3364   -3.8368   22.9255 O   0  0  0  0  0  0  0  0  0  0  0  0
    9.6947   -4.8407   18.8534 C   0  0  0  0  0  0  0  0  0  0  0  0
    9.1596    1.7042   24.1381 C   0  0  0  0  0  0  0  0  0  0  0  0
   11.0456   -2.9774   18.2694 N   0  0  0  0  0  0  0  0  0  0  0  0
   10.4788   -3.0457   21.8593 C   0  0  0  0  0  0  0  0  0  0  0  0
    8.8693   -5.8099   18.4657 N   0  0  0  0  0  0  0  0  0  0  0  0
    8.9892   -0.7926   25.4573 C   0  0  0  0  0  0  0  0  0  0  0  0
   10.5677   -3.4462   20.5323 C   0  0  0  0  0  0  0  0  0  0  0  0
  1  8  1  0
  1 12  4  0
  1 14  4  0
  2  3  4  0
  2 18  4  0
  3 20  4  0
  3 22  4  0
  4 11  4  0
  4 21  4  0
  5  9  4  0
  5 16  4  0
  6 15  4  0
  6 16  4  0
  7 22  4  0
  7 26  4  0
  8 10  4  0
  8 25  4  0
  9 15  4  0
  9 17  1  0
 10 21  4  0
 11 25  4  0
 12 23  4  0
 13 20  4  0
 13 26  4  0
 14 19  4  0
 17 18  4  0
 17 24  4  0
 19 23  4  0
 20 24  4  0
 23 26  1  0
M  END
$$$$

 Created by Python create_sdf_string function

 26 30  0  0  0  0  0  0  0  0999 V2000
   10.0084   -1.8019   23.4945 C   0  0  0  0  0  0  0  0  0  0  0  0
   10.0005   -4.2520   16.5631 C   0  0  0  0  0  0  0  0  0  0  0  0
   10.2759   -4.0036   17.8845 C   0  0  0  0  0  0  0  0  0  0  0  0
    8.5652    1.5478   25.3778 N   0  0  0  0  0  0  0  0  0  0  0  0
    6.8048   -7.5457   17.8752 C   0  0  0  0  0  0  0  0  0  0  0  0
    6.1721   -8.2186   15.9886 N   0  0  0  0  0  0  0  0  0  0  0  0
   11.1764   -2.6600   19.5604 C   0  0  0  0  0  0  0  0  0  0  0  0
    9.5491   -0.6380   24.1912 C   0  0  0  0  0  0  0  0  0  0  0  0
    7.5337   -6.9256   16.9519 C   0  0  0  0  0  0  0  0  0  0  0  0
    9.6782    0.5671   23.5143 C   0  0  0  0  0  0  0  0  0  0  0  0
    8.4532    0.3482   26.0821 C   0  0  0  0  0  0  0  0  0  0  0  0
   10.4239   -1.7677   22.2230 N   0  0  0  0  0  0  0  0  0  0  0  0
    9.9468   -4.5953   20.1709 C   0  0  0  0  0  0  0  0  0  0  0  0
   10.0366   -3.0590   23.9864 N   0  0  0  0  0  0  0  0  0  0  0  0
    7.1191   -7.3636   15.7739 C   0  0  0  0  0  0  0  0  0  0  0  0
    5.9612   -8.3203   17.2732 N   0  0  0  0  0  0  0  0  0  0  0  0
    8.5296   -5.9814   17.1841 C   0  0  0  0  0  0  0  0  0  0  0  0
    9.1527   -5.2118   16.2116 C   0  0  0  0  0  0  0  0  0  0  0  0
   10.3364   -3.8368   22.9255 O   0  0  0  0  0  0  0  0  0  0  0  0
    9.6947   -4.8407   18.8534 C   0  0  0  0  0  0  0  0  0  0  0  0
    9.1596    1.7042   24.1381 C   0  0  0  0  0  0  0  0  0  0  0  0
   11.0456   -2.9774   18.2694 N   0  0  0  0  0  0  0  0  0  0  0  0
   10.4788   -3.0457   21.8593 C   0  0  0  0  0  0  0  0  0  0  0  0
    8.8693   -5.8099   18.4657 N   0  0  0  0  0  0  0  0  0  0  0  0
    8.9892   -0.7926   25.4573 C   0  0  0  0  0  0  0  0  0  0  0  0
   10.5677   -3.4462   20.5323 C   0  0  0  0  0  0  0  0  0  0  0  0
  1  8  1  0
  1 12  4  0
  1 14  4  0
  2  3  4  0
  2 18  4  0
  3 20  4  0
  3 22  4  0
  4 11  4  0
  4 21  4  0
  5  9  4  0
  5 16  4  0
  6 15  4  0
  6 16  4  0
  7 22  4  0
  7 26  4  0
  8 10  4  0
  8 25  4  0
  9 15  4  0
  9 17  1  0
 10 21  4  0
 11 25  4  0
 12 23  4  0
 13 20  4  0
 13 26  4  0
 14 19  4  0
 17 18  4  0
 17 24  4  0
 19 23  4  0
 20 24  4  0
 23 26  1  0
M  END
$$$$

 Created by Python create_sdf_string function

 26 30  0  0  0  0  0  0  0  0999 V2000
   10.0084   -1.8019   23.4945 C   0  0  0  0  0  0  0  0  0  0  0  0
   10.0005   -4.2520   16.5631 C   0  0  0  0  0  0  0  0  0  0  0  0
   10.2759   -4.0036   17.8845 C   0  0  0  0  0  0  0  0  0  0  0  0
    8.5652    1.5478   25.3778 N   0  0  0  0  0  0  0  0  0  0  0  0
    6.8048   -7.5457   17.8752 C   0  0  0  0  0  0  0  0  0  0  0  0
    6.1721   -8.2186   15.9886 N   0  0  0  0  0  0  0  0  0  0  0  0
   11.1764   -2.6600   19.5604 C   0  0  0  0  0  0  0  0  0  0  0  0
    9.5491   -0.6380   24.1912 C   0  0  0  0  0  0  0  0  0  0  0  0
    7.5337   -6.9256   16.9519 C   0  0  0  0  0  0  0  0  0  0  0  0
    9.6782    0.5671   23.5143 C   0  0  0  0  0  0  0  0  0  0  0  0
    8.4532    0.3482   26.0821 C   0  0  0  0  0  0  0  0  0  0  0  0
   10.4239   -1.7677   22.2230 N   0  0  0  0  0  0  0  0  0  0  0  0
    9.9468   -4.5953   20.1709 C   0  0  0  0  0  0  0  0  0  0  0  0
   10.0366   -3.0590   23.9864 N   0  0  0  0  0  0  0  0  0  0  0  0
    7.1191   -7.3636   15.7739 C   0  0  0  0  0  0  0  0  0  0  0  0
    5.9612   -8.3203   17.2732 N   0  0  0  0  0  0  0  0  0  0  0  0
    8.5296   -5.9814   17.1841 C   0  0  0  0  0  0  0  0  0  0  0  0
    9.1527   -5.2118   16.2116 C   0  0  0  0  0  0  0  0  0  0  0  0
   10.3364   -3.8368   22.9255 O   0  0  0  0  0  0  0  0  0  0  0  0
    9.6947   -4.8407   18.8534 C   0  0  0  0  0  0  0  0  0  0  0  0
    9.1596    1.7042   24.1381 C   0  0  0  0  0  0  0  0  0  0  0  0
   11.0456   -2.9774   18.2694 N   0  0  0  0  0  0  0  0  0  0  0  0
   10.4788   -3.0457   21.8593 C   0  0  0  0  0  0  0  0  0  0  0  0
    8.8693   -5.8099   18.4657 N   0  0  0  0  0  0  0  0  0  0  0  0
    8.9892   -0.7926   25.4573 C   0  0  0  0  0  0  0  0  0  0  0  0
   10.5677   -3.4462   20.5323 C   0  0  0  0  0  0  0  0  0  0  0  0
  1  8  1  0
  1 12  4  0
  1 14  4  0
  2  3  4  0
  2 18  4  0
  3 20  4  0
  3 22  4  0
  4 11  4  0
  4 21  4  0
  5  9  4  0
  5 16  4  0
  6 15  4  0
  6 16  4  0
  7 22  4  0
  7 26  4  0
  8 10  4  0
  8 25  4  0
  9 15  4  0
  9 17  1  0
 10 21  4  0
 11 25  4  0
 12 23  4  0
 13 20  4  0
 13 26  4  0
 14 19  4  0
 17 18  4  0
 17 24  4  0
 19 23  4  0
 20 24  4  0
 23 26  1  0
M  END
$$$$

 Created by Python create_sdf_string function

 26 30  0  0  0  0  0  0  0  0999 V2000
   10.0084   -1.8019   23.4945 C   0  0  0  0  0  0  0  0  0  0  0  0
   10.0005   -4.2520   16.5631 C   0  0  0  0  0  0  0  0  0  0  0  0
   10.2759   -4.0036   17.8845 C   0  0  0  0  0  0  0  0  0  0  0  0
    8.5652    1.5478   25.3778 N   0  0  0  0  0  0  0  0  0  0  0  0
    6.8048   -7.5457   17.8752 C   0  0  0  0  0  0  0  0  0  0  0  0
    6.1721   -8.2186   15.9886 N   0  0  0  0  0  0  0  0  0  0  0  0
   11.1764   -2.6600   19.5604 C   0  0  0  0  0  0  0  0  0  0  0  0
    9.5491   -0.6380   24.1912 C   0  0  0  0  0  0  0  0  0  0  0  0
    7.5337   -6.9256   16.9519 C   0  0  0  0  0  0  0  0  0  0  0  0
    9.6782    0.5671   23.5143 C   0  0  0  0  0  0  0  0  0  0  0  0
    8.4532    0.3482   26.0821 C   0  0  0  0  0  0  0  0  0  0  0  0
   10.4239   -1.7677   22.2230 N   0  0  0  0  0  0  0  0  0  0  0  0
    9.9468   -4.5953   20.1709 C   0  0  0  0  0  0  0  0  0  0  0  0
   10.0366   -3.0590   23.9864 N   0  0  0  0  0  0  0  0  0  0  0  0
    7.1191   -7.3636   15.7739 C   0  0  0  0  0  0  0  0  0  0  0  0
    5.9612   -8.3203   17.2732 N   0  0  0  0  0  0  0  0  0  0  0  0
    8.5296   -5.9814   17.1841 C   0  0  0  0  0  0  0  0  0  0  0  0
    9.1527   -5.2118   16.2116 C   0  0  0  0  0  0  0  0  0  0  0  0
   10.3364   -3.8368   22.9255 O   0  0  0  0  0  0  0  0  0  0  0  0
    9.6947   -4.8407   18.8534 C   0  0  0  0  0  0  0  0  0  0  0  0
    9.1596    1.7042   24.1381 C   0  0  0  0  0  0  0  0  0  0  0  0
   11.0456   -2.9774   18.2694 N   0  0  0  0  0  0  0  0  0  0  0  0
   10.4788   -3.0457   21.8593 C   0  0  0  0  0  0  0  0  0  0  0  0
    8.8693   -5.8099   18.4657 N   0  0  0  0  0  0  0  0  0  0  0  0
    8.9892   -0.7926   25.4573 C   0  0  0  0  0  0  0  0  0  0  0  0
   10.5677   -3.4462   20.5323 C   0  0  0  0  0  0  0  0  0  0  0  0
  1  8  1  0
  1 12  4  0
  1 14  4  0
  2  3  4  0
  2 18  4  0
  3 20  4  0
  3 22  4  0
  4 11  4  0
  4 21  4  0
  5  9  4  0
  5 16  4  0
  6 15  4  0
  6 16  4  0
  7 22  4  0
  7 26  4  0
  8 10  4  0
  8 25  4  0
  9 15  4  0
  9 17  1  0
 10 21  4  0
 11 25  4  0
 12 23  4  0
 13 20  4  0
 13 26  4  0
 14 19  4  0
 17 18  4  0
 17 24  4  0
 19 23  4  0
 20 24  4  0
 23 26  1  0
M  END
$$$$

 Created by Python create_sdf_string function

 26 30  0  0  0  0  0  0  0  0999 V2000
   10.0084   -1.8019   23.4945 C   0  0  0  0  0  0  0  0  0  0  0  0
   10.0005   -4.2520   16.5631 C   0  0  0  0  0  0  0  0  0  0  0  0
   10.2759   -4.0036   17.8845 C   0  0  0  0  0  0  0  0  0  0  0  0
    8.5652    1.5478   25.3778 N   0  0  0  0  0  0  0  0  0  0  0  0
    6.8048   -7.5457   17.8752 C   0  0  0  0  0  0  0  0  0  0  0  0
    6.1721   -8.2186   15.9886 N   0  0  0  0  0  0  0  0  0  0  0  0
   11.1764   -2.6600   19.5604 C   0  0  0  0  0  0  0  0  0  0  0  0
    9.5491   -0.6380   24.1912 C   0  0  0  0  0  0  0  0  0  0  0  0
    7.5337   -6.9256   16.9519 C   0  0  0  0  0  0  0  0  0  0  0  0
    9.6782    0.5671   23.5143 C   0  0  0  0  0  0  0  0  0  0  0  0
    8.4532    0.3482   26.0821 C   0  0  0  0  0  0  0  0  0  0  0  0
   10.4239   -1.7677   22.2230 N   0  0  0  0  0  0  0  0  0  0  0  0
    9.9468   -4.5953   20.1709 C   0  0  0  0  0  0  0  0  0  0  0  0
   10.0366   -3.0590   23.9864 N   0  0  0  0  0  0  0  0  0  0  0  0
    7.1191   -7.3636   15.7739 C   0  0  0  0  0  0  0  0  0  0  0  0
    5.9612   -8.3203   17.2732 N   0  0  0  0  0  0  0  0  0  0  0  0
    8.5296   -5.9814   17.1841 C   0  0  0  0  0  0  0  0  0  0  0  0
    9.1527   -5.2118   16.2116 C   0  0  0  0  0  0  0  0  0  0  0  0
   10.3364   -3.8368   22.9255 O   0  0  0  0  0  0  0  0  0  0  0  0
    9.6947   -4.8407   18.8534 C   0  0  0  0  0  0  0  0  0  0  0  0
    9.1596    1.7042   24.1381 C   0  0  0  0  0  0  0  0  0  0  0  0
   11.0456   -2.9774   18.2694 N   0  0  0  0  0  0  0  0  0  0  0  0
   10.4788   -3.0457   21.8593 C   0  0  0  0  0  0  0  0  0  0  0  0
    8.8693   -5.8099   18.4657 N   0  0  0  0  0  0  0  0  0  0  0  0
    8.9892   -0.7926   25.4573 C   0  0  0  0  0  0  0  0  0  0  0  0
   10.5677   -3.4462   20.5323 C   0  0  0  0  0  0  0  0  0  0  0  0
  1  8  1  0
  1 12  4  0
  1 14  4  0
  2  3  4  0
  2 18  4  0
  3 20  4  0
  3 22  4  0
  4 11  4  0
  4 21  4  0
  5  9  4  0
  5 16  4  0
  6 15  4  0
  6 16  4  0
  7 22  4  0
  7 26  4  0
  8 10  4  0
  8 25  4  0
  9 15  4  0
  9 17  1  0
 10 21  4  0
 11 25  4  0
 12 23  4  0
 13 20  4  0
 13 26  4  0
 14 19  4  0
 17 18  4  0
 17 24  4  0
 19 23  4  0
 20 24  4  0
 23 26  1  0
M  END
$$$$

 Created by Python create_sdf_string function

 26 30  0  0  0  0  0  0  0  0999 V2000
   10.0084   -1.8019   23.4945 C   0  0  0  0  0  0  0  0  0  0  0  0
   10.0005   -4.2520   16.5631 C   0  0  0  0  0  0  0  0  0  0  0  0
   10.2759   -4.0036   17.8845 C   0  0  0  0  0  0  0  0  0  0  0  0
    8.5652    1.5478   25.3778 N   0  0  0  0  0  0  0  0  0  0  0  0
    6.8048   -7.5457   17.8752 C   0  0  0  0  0  0  0  0  0  0  0  0
    6.1721   -8.2186   15.9886 N   0  0  0  0  0  0  0  0  0  0  0  0
   11.1764   -2.6600   19.5604 C   0  0  0  0  0  0  0  0  0  0  0  0
    9.5491   -0.6380   24.1912 C   0  0  0  0  0  0  0  0  0  0  0  0
    7.5337   -6.9256   16.9519 C   0  0  0  0  0  0  0  0  0  0  0  0
    9.6782    0.5671   23.5143 C   0  0  0  0  0  0  0  0  0  0  0  0
    8.4532    0.3482   26.0821 C   0  0  0  0  0  0  0  0  0  0  0  0
   10.4239   -1.7677   22.2230 N   0  0  0  0  0  0  0  0  0  0  0  0
    9.9468   -4.5953   20.1709 C   0  0  0  0  0  0  0  0  0  0  0  0
   10.0366   -3.0590   23.9864 N   0  0  0  0  0  0  0  0  0  0  0  0
    7.1191   -7.3636   15.7739 C   0  0  0  0  0  0  0  0  0  0  0  0
    5.9612   -8.3203   17.2732 N   0  0  0  0  0  0  0  0  0  0  0  0
    8.5296   -5.9814   17.1841 C   0  0  0  0  0  0  0  0  0  0  0  0
    9.1527   -5.2118   16.2116 C   0  0  0  0  0  0  0  0  0  0  0  0
   10.3364   -3.8368   22.9255 O   0  0  0  0  0  0  0  0  0  0  0  0
    9.6947   -4.8407   18.8534 C   0  0  0  0  0  0  0  0  0  0  0  0
    9.1596    1.7042   24.1381 C   0  0  0  0  0  0  0  0  0  0  0  0
   11.0456   -2.9774   18.2694 N   0  0  0  0  0  0  0  0  0  0  0  0
   10.4788   -3.0457   21.8593 C   0  0  0  0  0  0  0  0  0  0  0  0
    8.8693   -5.8099   18.4657 N   0  0  0  0  0  0  0  0  0  0  0  0
    8.9892   -0.7926   25.4573 C   0  0  0  0  0  0  0  0  0  0  0  0
   10.5677   -3.4462   20.5323 C   0  0  0  0  0  0  0  0  0  0  0  0
  1  8  1  0
  1 12  4  0
  1 14  4  0
  2  3  4  0
  2 18  4  0
  3 20  4  0
  3 22  4  0
  4 11  4  0
  4 21  4  0
  5  9  4  0
  5 16  4  0
  6 15  4  0
  6 16  4  0
  7 22  4  0
  7 26  4  0
  8 10  4  0
  8 25  4  0
  9 15  4  0
  9 17  1  0
 10 21  4  0
 11 25  4  0
 12 23  4  0
 13 20  4  0
 13 26  4  0
 14 19  4  0
 17 18  4  0
 17 24  4  0
 19 23  4  0
 20 24  4  0
 23 26  1  0
M  END
$$$$

 Created by Python create_sdf_string function

 26 30  0  0  0  0  0  0  0  0999 V2000
   10.0084   -1.8019   23.4945 C   0  0  0  0  0  0  0  0  0  0  0  0
   10.0005   -4.2520   16.5631 C   0  0  0  0  0  0  0  0  0  0  0  0
   10.2759   -4.0036   17.8845 C   0  0  0  0  0  0  0  0  0  0  0  0
    8.5652    1.5478   25.3778 N   0  0  0  0  0  0  0  0  0  0  0  0
    6.8048   -7.5457   17.8752 C   0  0  0  0  0  0  0  0  0  0  0  0
    6.1721   -8.2186   15.9886 N   0  0  0  0  0  0  0  0  0  0  0  0
   11.1764   -2.6600   19.5604 C   0  0  0  0  0  0  0  0  0  0  0  0
    9.5491   -0.6380   24.1912 C   0  0  0  0  0  0  0  0  0  0  0  0
    7.5337   -6.9256   16.9519 C   0  0  0  0  0  0  0  0  0  0  0  0
    9.6782    0.5671   23.5143 C   0  0  0  0  0  0  0  0  0  0  0  0
    8.4532    0.3482   26.0821 C   0  0  0  0  0  0  0  0  0  0  0  0
   10.4239   -1.7677   22.2230 N   0  0  0  0  0  0  0  0  0  0  0  0
    9.9468   -4.5953   20.1709 C   0  0  0  0  0  0  0  0  0  0  0  0
   10.0366   -3.0590   23.9864 N   0  0  0  0  0  0  0  0  0  0  0  0
    7.1191   -7.3636   15.7739 C   0  0  0  0  0  0  0  0  0  0  0  0
    5.9612   -8.3203   17.2732 N   0  0  0  0  0  0  0  0  0  0  0  0
    8.5296   -5.9814   17.1841 C   0  0  0  0  0  0  0  0  0  0  0  0
    9.1527   -5.2118   16.2116 C   0  0  0  0  0  0  0  0  0  0  0  0
   10.3364   -3.8368   22.9255 O   0  0  0  0  0  0  0  0  0  0  0  0
    9.6947   -4.8407   18.8534 C   0  0  0  0  0  0  0  0  0  0  0  0
    9.1596    1.7042   24.1381 C   0  0  0  0  0  0  0  0  0  0  0  0
   11.0456   -2.9774   18.2694 N   0  0  0  0  0  0  0  0  0  0  0  0
   10.4788   -3.0457   21.8593 C   0  0  0  0  0  0  0  0  0  0  0  0
    8.8693   -5.8099   18.4657 N   0  0  0  0  0  0  0  0  0  0  0  0
    8.9892   -0.7926   25.4573 C   0  0  0  0  0  0  0  0  0  0  0  0
   10.5677   -3.4462   20.5323 C   0  0  0  0  0  0  0  0  0  0  0  0
  1  8  1  0
  1 12  4  0
  1 14  4  0
  2  3  4  0
  2 18  4  0
  3 20  4  0
  3 22  4  0
  4 11  4  0
  4 21  4  0
  5  9  4  0
  5 16  4  0
  6 15  4  0
  6 16  4  0
  7 22  4  0
  7 26  4  0
  8 10  4  0
  8 25  4  0
  9 15  4  0
  9 17  1  0
 10 21  4  0
 11 25  4  0
 12 23  4  0
 13 20  4  0
 13 26  4  0
 14 19  4  0
 17 18  4  0
 17 24  4  0
 19 23  4  0
 20 24  4  0
 23 26  1  0
M  END
$$$$

 Created by Python create_sdf_string function

 26 30  0  0  0  0  0  0  0  0999 V2000
   10.0084   -1.8019   23.4945 C   0  0  0  0  0  0  0  0  0  0  0  0
   10.0005   -4.2520   16.5631 C   0  0  0  0  0  0  0  0  0  0  0  0
   10.2759   -4.0036   17.8845 C   0  0  0  0  0  0  0  0  0  0  0  0
    8.5652    1.5478   25.3778 N   0  0  0  0  0  0  0  0  0  0  0  0
    6.8048   -7.5457   17.8752 C   0  0  0  0  0  0  0  0  0  0  0  0
    6.1721   -8.2186   15.9886 N   0  0  0  0  0  0  0  0  0  0  0  0
   11.1764   -2.6600   19.5604 C   0  0  0  0  0  0  0  0  0  0  0  0
    9.5491   -0.6380   24.1912 C   0  0  0  0  0  0  0  0  0  0  0  0
    7.5337   -6.9256   16.9519 C   0  0  0  0  0  0  0  0  0  0  0  0
    9.6782    0.5671   23.5143 C   0  0  0  0  0  0  0  0  0  0  0  0
    8.4532    0.3482   26.0821 C   0  0  0  0  0  0  0  0  0  0  0  0
   10.4239   -1.7677   22.2230 N   0  0  0  0  0  0  0  0  0  0  0  0
    9.9468   -4.5953   20.1709 C   0  0  0  0  0  0  0  0  0  0  0  0
   10.0366   -3.0590   23.9864 N   0  0  0  0  0  0  0  0  0  0  0  0
    7.1191   -7.3636   15.7739 C   0  0  0  0  0  0  0  0  0  0  0  0
    5.9612   -8.3203   17.2732 N   0  0  0  0  0  0  0  0  0  0  0  0
    8.5296   -5.9814   17.1841 C   0  0  0  0  0  0  0  0  0  0  0  0
    9.1527   -5.2118   16.2116 C   0  0  0  0  0  0  0  0  0  0  0  0
   10.3364   -3.8368   22.9255 O   0  0  0  0  0  0  0  0  0  0  0  0
    9.6947   -4.8407   18.8534 C   0  0  0  0  0  0  0  0  0  0  0  0
    9.1596    1.7042   24.1381 C   0  0  0  0  0  0  0  0  0  0  0  0
   11.0456   -2.9774   18.2694 N   0  0  0  0  0  0  0  0  0  0  0  0
   10.4788   -3.0457   21.8593 C   0  0  0  0  0  0  0  0  0  0  0  0
    8.8693   -5.8099   18.4657 N   0  0  0  0  0  0  0  0  0  0  0  0
    8.9892   -0.7926   25.4573 C   0  0  0  0  0  0  0  0  0  0  0  0
   10.5677   -3.4462   20.5323 C   0  0  0  0  0  0  0  0  0  0  0  0
  1  8  1  0
  1 12  4  0
  1 14  4  0
  2  3  4  0
  2 18  4  0
  3 20  4  0
  3 22  4  0
  4 11  4  0
  4 21  4  0
  5  9  4  0
  5 16  4  0
  6 15  4  0
  6 16  4  0
  7 22  4  0
  7 26  4  0
  8 10  4  0
  8 25  4  0
  9 15  4  0
  9 17  1  0
 10 21  4  0
 11 25  4  0
 12 23  4  0
 13 20  4  0
 13 26  4  0
 14 19  4  0
 17 18  4  0
 17 24  4  0
 19 23  4  0
 20 24  4  0
 23 26  1  0
M  END
$$$$

 Created by Python create_sdf_string function

 26 30  0  0  0  0  0  0  0  0999 V2000
   10.0084   -1.8019   23.4945 C   0  0  0  0  0  0  0  0  0  0  0  0
   10.0005   -4.2520   16.5631 C   0  0  0  0  0  0  0  0  0  0  0  0
   10.2759   -4.0036   17.8845 C   0  0  0  0  0  0  0  0  0  0  0  0
    8.5652    1.5478   25.3778 N   0  0  0  0  0  0  0  0  0  0  0  0
    6.8048   -7.5457   17.8752 C   0  0  0  0  0  0  0  0  0  0  0  0
    6.1721   -8.2186   15.9886 N   0  0  0  0  0  0  0  0  0  0  0  0
   11.1764   -2.6600   19.5604 C   0  0  0  0  0  0  0  0  0  0  0  0
    9.5491   -0.6380   24.1912 C   0  0  0  0  0  0  0  0  0  0  0  0
    7.5337   -6.9256   16.9519 C   0  0  0  0  0  0  0  0  0  0  0  0
    9.6782    0.5671   23.5143 C   0  0  0  0  0  0  0  0  0  0  0  0
    8.4532    0.3482   26.0821 C   0  0  0  0  0  0  0  0  0  0  0  0
   10.4239   -1.7677   22.2230 N   0  0  0  0  0  0  0  0  0  0  0  0
    9.9468   -4.5953   20.1709 C   0  0  0  0  0  0  0  0  0  0  0  0
   10.0366   -3.0590   23.9864 N   0  0  0  0  0  0  0  0  0  0  0  0
    7.1191   -7.3636   15.7739 C   0  0  0  0  0  0  0  0  0  0  0  0
    5.9612   -8.3203   17.2732 N   0  0  0  0  0  0  0  0  0  0  0  0
    8.5296   -5.9814   17.1841 C   0  0  0  0  0  0  0  0  0  0  0  0
    9.1527   -5.2118   16.2116 C   0  0  0  0  0  0  0  0  0  0  0  0
   10.3364   -3.8368   22.9255 O   0  0  0  0  0  0  0  0  0  0  0  0
    9.6947   -4.8407   18.8534 C   0  0  0  0  0  0  0  0  0  0  0  0
    9.1596    1.7042   24.1381 C   0  0  0  0  0  0  0  0  0  0  0  0
   11.0456   -2.9774   18.2694 N   0  0  0  0  0  0  0  0  0  0  0  0
   10.4788   -3.0457   21.8593 C   0  0  0  0  0  0  0  0  0  0  0  0
    8.8693   -5.8099   18.4657 N   0  0  0  0  0  0  0  0  0  0  0  0
    8.9892   -0.7926   25.4573 C   0  0  0  0  0  0  0  0  0  0  0  0
   10.5677   -3.4462   20.5323 C   0  0  0  0  0  0  0  0  0  0  0  0
  1  8  1  0
  1 12  4  0
  1 14  4  0
  2  3  4  0
  2 18  4  0
  3 20  4  0
  3 22  4  0
  4 11  4  0
  4 21  4  0
  5  9  4  0
  5 16  4  0
  6 15  4  0
  6 16  4  0
  7 22  4  0
  7 26  4  0
  8 10  4  0
  8 25  4  0
  9 15  4  0
  9 17  1  0
 10 21  4  0
 11 25  4  0
 12 23  4  0
 13 20  4  0
 13 26  4  0
 14 19  4  0
 17 18  4  0
 17 24  4  0
 19 23  4  0
 20 24  4  0
 23 26  1  0
M  END
$$$$

 Created by Python create_sdf_string function

 26 30  0  0  0  0  0  0  0  0999 V2000
   10.0084   -1.8019   23.4945 C   0  0  0  0  0  0  0  0  0  0  0  0
   10.0005   -4.2520   16.5631 C   0  0  0  0  0  0  0  0  0  0  0  0
   10.2759   -4.0036   17.8845 C   0  0  0  0  0  0  0  0  0  0  0  0
    8.5652    1.5478   25.3778 N   0  0  0  0  0  0  0  0  0  0  0  0
    6.8048   -7.5457   17.8752 C   0  0  0  0  0  0  0  0  0  0  0  0
    6.1721   -8.2186   15.9886 N   0  0  0  0  0  0  0  0  0  0  0  0
   11.1764   -2.6600   19.5604 C   0  0  0  0  0  0  0  0  0  0  0  0
    9.5491   -0.6380   24.1912 C   0  0  0  0  0  0  0  0  0  0  0  0
    7.5337   -6.9256   16.9519 C   0  0  0  0  0  0  0  0  0  0  0  0
    9.6782    0.5671   23.5143 C   0  0  0  0  0  0  0  0  0  0  0  0
    8.4532    0.3482   26.0821 C   0  0  0  0  0  0  0  0  0  0  0  0
   10.4239   -1.7677   22.2230 N   0  0  0  0  0  0  0  0  0  0  0  0
    9.9468   -4.5953   20.1709 C   0  0  0  0  0  0  0  0  0  0  0  0
   10.0366   -3.0590   23.9864 N   0  0  0  0  0  0  0  0  0  0  0  0
    7.1191   -7.3636   15.7739 C   0  0  0  0  0  0  0  0  0  0  0  0
    5.9612   -8.3203   17.2732 N   0  0  0  0  0  0  0  0  0  0  0  0
    8.5296   -5.9814   17.1841 C   0  0  0  0  0  0  0  0  0  0  0  0
    9.1527   -5.2118   16.2116 C   0  0  0  0  0  0  0  0  0  0  0  0
   10.3364   -3.8368   22.9255 O   0  0  0  0  0  0  0  0  0  0  0  0
    9.6947   -4.8407   18.8534 C   0  0  0  0  0  0  0  0  0  0  0  0
    9.1596    1.7042   24.1381 C   0  0  0  0  0  0  0  0  0  0  0  0
   11.0456   -2.9774   18.2694 N   0  0  0  0  0  0  0  0  0  0  0  0
   10.4788   -3.0457   21.8593 C   0  0  0  0  0  0  0  0  0  0  0  0
    8.8693   -5.8099   18.4657 N   0  0  0  0  0  0  0  0  0  0  0  0
    8.9892   -0.7926   25.4573 C   0  0  0  0  0  0  0  0  0  0  0  0
   10.5677   -3.4462   20.5323 C   0  0  0  0  0  0  0  0  0  0  0  0
  1  8  1  0
  1 12  4  0
  1 14  4  0
  2  3  4  0
  2 18  4  0
  3 20  4  0
  3 22  4  0
  4 11  4  0
  4 21  4  0
  5  9  4  0
  5 16  4  0
  6 15  4  0
  6 16  4  0
  7 22  4  0
  7 26  4  0
  8 10  4  0
  8 25  4  0
  9 15  4  0
  9 17  1  0
 10 21  4  0
 11 25  4  0
 12 23  4  0
 13 20  4  0
 13 26  4  0
 14 19  4  0
 17 18  4  0
 17 24  4  0
 19 23  4  0
 20 24  4  0
 23 26  1  0
M  END
$$$$

 Created by Python create_sdf_string function

 26 30  0  0  0  0  0  0  0  0999 V2000
   10.0084   -1.8019   23.4945 C   0  0  0  0  0  0  0  0  0  0  0  0
   10.0005   -4.2520   16.5631 C   0  0  0  0  0  0  0  0  0  0  0  0
   10.2759   -4.0036   17.8845 C   0  0  0  0  0  0  0  0  0  0  0  0
    8.5652    1.5478   25.3778 N   0  0  0  0  0  0  0  0  0  0  0  0
    6.8048   -7.5457   17.8752 C   0  0  0  0  0  0  0  0  0  0  0  0
    6.1721   -8.2186   15.9886 N   0  0  0  0  0  0  0  0  0  0  0  0
   11.1764   -2.6600   19.5604 C   0  0  0  0  0  0  0  0  0  0  0  0
    9.5491   -0.6380   24.1912 C   0  0  0  0  0  0  0  0  0  0  0  0
    7.5337   -6.9256   16.9519 C   0  0  0  0  0  0  0  0  0  0  0  0
    9.6782    0.5671   23.5143 C   0  0  0  0  0  0  0  0  0  0  0  0
    8.4532    0.3482   26.0821 C   0  0  0  0  0  0  0  0  0  0  0  0
   10.4239   -1.7677   22.2230 N   0  0  0  0  0  0  0  0  0  0  0  0
    9.9468   -4.5953   20.1709 C   0  0  0  0  0  0  0  0  0  0  0  0
   10.0366   -3.0590   23.9864 N   0  0  0  0  0  0  0  0  0  0  0  0
    7.1191   -7.3636   15.7739 C   0  0  0  0  0  0  0  0  0  0  0  0
    5.9612   -8.3203   17.2732 N   0  0  0  0  0  0  0  0  0  0  0  0
    8.5296   -5.9814   17.1841 C   0  0  0  0  0  0  0  0  0  0  0  0
    9.1527   -5.2118   16.2116 C   0  0  0  0  0  0  0  0  0  0  0  0
   10.3364   -3.8368   22.9255 O   0  0  0  0  0  0  0  0  0  0  0  0
    9.6947   -4.8407   18.8534 C   0  0  0  0  0  0  0  0  0  0  0  0
    9.1596    1.7042   24.1381 C   0  0  0  0  0  0  0  0  0  0  0  0
   11.0456   -2.9774   18.2694 N   0  0  0  0  0  0  0  0  0  0  0  0
   10.4788   -3.0457   21.8593 C   0  0  0  0  0  0  0  0  0  0  0  0
    8.8693   -5.8099   18.4657 N   0  0  0  0  0  0  0  0  0  0  0  0
    8.9892   -0.7926   25.4573 C   0  0  0  0  0  0  0  0  0  0  0  0
   10.5677   -3.4462   20.5323 C   0  0  0  0  0  0  0  0  0  0  0  0
  1  8  1  0
  1 12  4  0
  1 14  4  0
  2  3  4  0
  2 18  4  0
  3 20  4  0
  3 22  4  0
  4 11  4  0
  4 21  4  0
  5  9  4  0
  5 16  4  0
  6 15  4  0
  6 16  4  0
  7 22  4  0
  7 26  4  0
  8 10  4  0
  8 25  4  0
  9 15  4  0
  9 17  1  0
 10 21  4  0
 11 25  4  0
 12 23  4  0
 13 20  4  0
 13 26  4  0
 14 19  4  0
 17 18  4  0
 17 24  4  0
 19 23  4  0
 20 24  4  0
 23 26  1  0
M  END
$$$$

 Created by Python create_sdf_string function

 26 30  0  0  0  0  0  0  0  0999 V2000
   10.0084   -1.8019   23.4945 C   0  0  0  0  0  0  0  0  0  0  0  0
   10.0005   -4.2520   16.5631 C   0  0  0  0  0  0  0  0  0  0  0  0
   10.2759   -4.0036   17.8845 C   0  0  0  0  0  0  0  0  0  0  0  0
    8.5652    1.5478   25.3778 N   0  0  0  0  0  0  0  0  0  0  0  0
    6.8048   -7.5457   17.8752 C   0  0  0  0  0  0  0  0  0  0  0  0
    6.1721   -8.2186   15.9886 N   0  0  0  0  0  0  0  0  0  0  0  0
   11.1764   -2.6600   19.5604 C   0  0  0  0  0  0  0  0  0  0  0  0
    9.5491   -0.6380   24.1912 C   0  0  0  0  0  0  0  0  0  0  0  0
    7.5337   -6.9256   16.9519 C   0  0  0  0  0  0  0  0  0  0  0  0
    9.6782    0.5671   23.5143 C   0  0  0  0  0  0  0  0  0  0  0  0
    8.4532    0.3482   26.0821 C   0  0  0  0  0  0  0  0  0  0  0  0
   10.4239   -1.7677   22.2230 N   0  0  0  0  0  0  0  0  0  0  0  0
    9.9468   -4.5953   20.1709 C   0  0  0  0  0  0  0  0  0  0  0  0
   10.0366   -3.0590   23.9864 N   0  0  0  0  0  0  0  0  0  0  0  0
    7.1191   -7.3636   15.7739 C   0  0  0  0  0  0  0  0  0  0  0  0
    5.9612   -8.3203   17.2732 N   0  0  0  0  0  0  0  0  0  0  0  0
    8.5296   -5.9814   17.1841 C   0  0  0  0  0  0  0  0  0  0  0  0
    9.1527   -5.2118   16.2116 C   0  0  0  0  0  0  0  0  0  0  0  0
   10.3364   -3.8368   22.9255 O   0  0  0  0  0  0  0  0  0  0  0  0
    9.6947   -4.8407   18.8534 C   0  0  0  0  0  0  0  0  0  0  0  0
    9.1596    1.7042   24.1381 C   0  0  0  0  0  0  0  0  0  0  0  0
   11.0456   -2.9774   18.2694 N   0  0  0  0  0  0  0  0  0  0  0  0
   10.4788   -3.0457   21.8593 C   0  0  0  0  0  0  0  0  0  0  0  0
    8.8693   -5.8099   18.4657 N   0  0  0  0  0  0  0  0  0  0  0  0
    8.9892   -0.7926   25.4573 C   0  0  0  0  0  0  0  0  0  0  0  0
   10.5677   -3.4462   20.5323 C   0  0  0  0  0  0  0  0  0  0  0  0
  1  8  1  0
  1 12  4  0
  1 14  4  0
  2  3  4  0
  2 18  4  0
  3 20  4  0
  3 22  4  0
  4 11  4  0
  4 21  4  0
  5  9  4  0
  5 16  4  0
  6 15  4  0
  6 16  4  0
  7 22  4  0
  7 26  4  0
  8 10  4  0
  8 25  4  0
  9 15  4  0
  9 17  1  0
 10 21  4  0
 11 25  4  0
 12 23  4  0
 13 20  4  0
 13 26  4  0
 14 19  4  0
 17 18  4  0
 17 24  4  0
 19 23  4  0
 20 24  4  0
 23 26  1  0
M  END
$$$$

 Created by Python create_sdf_string function

 26 30  0  0  0  0  0  0  0  0999 V2000
   10.0084   -1.8019   23.4945 C   0  0  0  0  0  0  0  0  0  0  0  0
   10.0005   -4.2520   16.5631 C   0  0  0  0  0  0  0  0  0  0  0  0
   10.2759   -4.0036   17.8845 C   0  0  0  0  0  0  0  0  0  0  0  0
    8.5652    1.5478   25.3778 N   0  0  0  0  0  0  0  0  0  0  0  0
    6.8048   -7.5457   17.8752 C   0  0  0  0  0  0  0  0  0  0  0  0
    6.1721   -8.2186   15.9886 N   0  0  0  0  0  0  0  0  0  0  0  0
   11.1764   -2.6600   19.5604 C   0  0  0  0  0  0  0  0  0  0  0  0
    9.5491   -0.6380   24.1912 C   0  0  0  0  0  0  0  0  0  0  0  0
    7.5337   -6.9256   16.9519 C   0  0  0  0  0  0  0  0  0  0  0  0
    9.6782    0.5671   23.5143 C   0  0  0  0  0  0  0  0  0  0  0  0
    8.4532    0.3482   26.0821 C   0  0  0  0  0  0  0  0  0  0  0  0
   10.4239   -1.7677   22.2230 N   0  0  0  0  0  0  0  0  0  0  0  0
    9.9468   -4.5953   20.1709 C   0  0  0  0  0  0  0  0  0  0  0  0
   10.0366   -3.0590   23.9864 N   0  0  0  0  0  0  0  0  0  0  0  0
    7.1191   -7.3636   15.7739 C   0  0  0  0  0  0  0  0  0  0  0  0
    5.9612   -8.3203   17.2732 N   0  0  0  0  0  0  0  0  0  0  0  0
    8.5296   -5.9814   17.1841 C   0  0  0  0  0  0  0  0  0  0  0  0
    9.1527   -5.2118   16.2116 C   0  0  0  0  0  0  0  0  0  0  0  0
   10.3364   -3.8368   22.9255 O   0  0  0  0  0  0  0  0  0  0  0  0
    9.6947   -4.8407   18.8534 C   0  0  0  0  0  0  0  0  0  0  0  0
    9.1596    1.7042   24.1381 C   0  0  0  0  0  0  0  0  0  0  0  0
   11.0456   -2.9774   18.2694 N   0  0  0  0  0  0  0  0  0  0  0  0
   10.4788   -3.0457   21.8593 C   0  0  0  0  0  0  0  0  0  0  0  0
    8.8693   -5.8099   18.4657 N   0  0  0  0  0  0  0  0  0  0  0  0
    8.9892   -0.7926   25.4573 C   0  0  0  0  0  0  0  0  0  0  0  0
   10.5677   -3.4462   20.5323 C   0  0  0  0  0  0  0  0  0  0  0  0
  1  8  1  0
  1 12  4  0
  1 14  4  0
  2  3  4  0
  2 18  4  0
  3 20  4  0
  3 22  4  0
  4 11  4  0
  4 21  4  0
  5  9  4  0
  5 16  4  0
  6 15  4  0
  6 16  4  0
  7 22  4  0
  7 26  4  0
  8 10  4  0
  8 25  4  0
  9 15  4  0
  9 17  1  0
 10 21  4  0
 11 25  4  0
 12 23  4  0
 13 20  4  0
 13 26  4  0
 14 19  4  0
 17 18  4  0
 17 24  4  0
 19 23  4  0
 20 24  4  0
 23 26  1  0
M  END
$$$$

 Created by Python create_sdf_string function

 26 30  0  0  0  0  0  0  0  0999 V2000
   10.0084   -1.8019   23.4945 C   0  0  0  0  0  0  0  0  0  0  0  0
   10.0005   -4.2520   16.5631 C   0  0  0  0  0  0  0  0  0  0  0  0
   10.2759   -4.0036   17.8845 C   0  0  0  0  0  0  0  0  0  0  0  0
    8.5652    1.5478   25.3778 N   0  0  0  0  0  0  0  0  0  0  0  0
    6.8048   -7.5457   17.8752 C   0  0  0  0  0  0  0  0  0  0  0  0
    6.1721   -8.2186   15.9886 N   0  0  0  0  0  0  0  0  0  0  0  0
   11.1764   -2.6600   19.5604 C   0  0  0  0  0  0  0  0  0  0  0  0
    9.5491   -0.6380   24.1912 C   0  0  0  0  0  0  0  0  0  0  0  0
    7.5337   -6.9256   16.9519 C   0  0  0  0  0  0  0  0  0  0  0  0
    9.6782    0.5671   23.5143 C   0  0  0  0  0  0  0  0  0  0  0  0
    8.4532    0.3482   26.0821 C   0  0  0  0  0  0  0  0  0  0  0  0
   10.4239   -1.7677   22.2230 N   0  0  0  0  0  0  0  0  0  0  0  0
    9.9468   -4.5953   20.1709 C   0  0  0  0  0  0  0  0  0  0  0  0
   10.0366   -3.0590   23.9864 N   0  0  0  0  0  0  0  0  0  0  0  0
    7.1191   -7.3636   15.7739 C   0  0  0  0  0  0  0  0  0  0  0  0
    5.9612   -8.3203   17.2732 N   0  0  0  0  0  0  0  0  0  0  0  0
    8.5296   -5.9814   17.1841 C   0  0  0  0  0  0  0  0  0  0  0  0
    9.1527   -5.2118   16.2116 C   0  0  0  0  0  0  0  0  0  0  0  0
   10.3364   -3.8368   22.9255 O   0  0  0  0  0  0  0  0  0  0  0  0
    9.6947   -4.8407   18.8534 C   0  0  0  0  0  0  0  0  0  0  0  0
    9.1596    1.7042   24.1381 C   0  0  0  0  0  0  0  0  0  0  0  0
   11.0456   -2.9774   18.2694 N   0  0  0  0  0  0  0  0  0  0  0  0
   10.4788   -3.0457   21.8593 C   0  0  0  0  0  0  0  0  0  0  0  0
    8.8693   -5.8099   18.4657 N   0  0  0  0  0  0  0  0  0  0  0  0
    8.9892   -0.7926   25.4573 C   0  0  0  0  0  0  0  0  0  0  0  0
   10.5677   -3.4462   20.5323 C   0  0  0  0  0  0  0  0  0  0  0  0
  1  8  1  0
  1 12  4  0
  1 14  4  0
  2  3  4  0
  2 18  4  0
  3 20  4  0
  3 22  4  0
  4 11  4  0
  4 21  4  0
  5  9  4  0
  5 16  4  0
  6 15  4  0
  6 16  4  0
  7 22  4  0
  7 26  4  0
  8 10  4  0
  8 25  4  0
  9 15  4  0
  9 17  1  0
 10 21  4  0
 11 25  4  0
 12 23  4  0
 13 20  4  0
 13 26  4  0
 14 19  4  0
 17 18  4  0
 17 24  4  0
 19 23  4  0
 20 24  4  0
 23 26  1  0
M  END
$$$$

 Created by Python create_sdf_string function

 26 30  0  0  0  0  0  0  0  0999 V2000
   10.0084   -1.8019   23.4945 C   0  0  0  0  0  0  0  0  0  0  0  0
   10.0005   -4.2520   16.5631 C   0  0  0  0  0  0  0  0  0  0  0  0
   10.2759   -4.0036   17.8845 C   0  0  0  0  0  0  0  0  0  0  0  0
    8.5652    1.5478   25.3778 N   0  0  0  0  0  0  0  0  0  0  0  0
    6.8048   -7.5457   17.8752 C   0  0  0  0  0  0  0  0  0  0  0  0
    6.1721   -8.2186   15.9886 N   0  0  0  0  0  0  0  0  0  0  0  0
   11.1764   -2.6600   19.5604 C   0  0  0  0  0  0  0  0  0  0  0  0
    9.5491   -0.6380   24.1912 C   0  0  0  0  0  0  0  0  0  0  0  0
    7.5337   -6.9256   16.9519 C   0  0  0  0  0  0  0  0  0  0  0  0
    9.6782    0.5671   23.5143 C   0  0  0  0  0  0  0  0  0  0  0  0
    8.4532    0.3482   26.0821 C   0  0  0  0  0  0  0  0  0  0  0  0
   10.4239   -1.7677   22.2230 N   0  0  0  0  0  0  0  0  0  0  0  0
    9.9468   -4.5953   20.1709 C   0  0  0  0  0  0  0  0  0  0  0  0
   10.0366   -3.0590   23.9864 N   0  0  0  0  0  0  0  0  0  0  0  0
    7.1191   -7.3636   15.7739 C   0  0  0  0  0  0  0  0  0  0  0  0
    5.9612   -8.3203   17.2732 N   0  0  0  0  0  0  0  0  0  0  0  0
    8.5296   -5.9814   17.1841 C   0  0  0  0  0  0  0  0  0  0  0  0
    9.1527   -5.2118   16.2116 C   0  0  0  0  0  0  0  0  0  0  0  0
   10.3364   -3.8368   22.9255 O   0  0  0  0  0  0  0  0  0  0  0  0
    9.6947   -4.8407   18.8534 C   0  0  0  0  0  0  0  0  0  0  0  0
    9.1596    1.7042   24.1381 C   0  0  0  0  0  0  0  0  0  0  0  0
   11.0456   -2.9774   18.2694 N   0  0  0  0  0  0  0  0  0  0  0  0
   10.4788   -3.0457   21.8593 C   0  0  0  0  0  0  0  0  0  0  0  0
    8.8693   -5.8099   18.4657 N   0  0  0  0  0  0  0  0  0  0  0  0
    8.9892   -0.7926   25.4573 C   0  0  0  0  0  0  0  0  0  0  0  0
   10.5677   -3.4462   20.5323 C   0  0  0  0  0  0  0  0  0  0  0  0
  1  8  1  0
  1 12  4  0
  1 14  4  0
  2  3  4  0
  2 18  4  0
  3 20  4  0
  3 22  4  0
  4 11  4  0
  4 21  4  0
  5  9  4  0
  5 16  4  0
  6 15  4  0
  6 16  4  0
  7 22  4  0
  7 26  4  0
  8 10  4  0
  8 25  4  0
  9 15  4  0
  9 17  1  0
 10 21  4  0
 11 25  4  0
 12 23  4  0
 13 20  4  0
 13 26  4  0
 14 19  4  0
 17 18  4  0
 17 24  4  0
 19 23  4  0
 20 24  4  0
 23 26  1  0
M  END
$$$$

 Created by Python create_sdf_string function

 26 30  0  0  0  0  0  0  0  0999 V2000
   10.0084   -1.8019   23.4945 C   0  0  0  0  0  0  0  0  0  0  0  0
   10.0005   -4.2520   16.5631 C   0  0  0  0  0  0  0  0  0  0  0  0
   10.2759   -4.0036   17.8845 C   0  0  0  0  0  0  0  0  0  0  0  0
    8.5652    1.5478   25.3778 N   0  0  0  0  0  0  0  0  0  0  0  0
    6.8048   -7.5457   17.8752 C   0  0  0  0  0  0  0  0  0  0  0  0
    6.1721   -8.2186   15.9886 N   0  0  0  0  0  0  0  0  0  0  0  0
   11.1764   -2.6600   19.5604 C   0  0  0  0  0  0  0  0  0  0  0  0
    9.5491   -0.6380   24.1912 C   0  0  0  0  0  0  0  0  0  0  0  0
    7.5337   -6.9256   16.9519 C   0  0  0  0  0  0  0  0  0  0  0  0
    9.6782    0.5671   23.5143 C   0  0  0  0  0  0  0  0  0  0  0  0
    8.4532    0.3482   26.0821 C   0  0  0  0  0  0  0  0  0  0  0  0
   10.4239   -1.7677   22.2230 N   0  0  0  0  0  0  0  0  0  0  0  0
    9.9468   -4.5953   20.1709 C   0  0  0  0  0  0  0  0  0  0  0  0
   10.0366   -3.0590   23.9864 N   0  0  0  0  0  0  0  0  0  0  0  0
    7.1191   -7.3636   15.7739 C   0  0  0  0  0  0  0  0  0  0  0  0
    5.9612   -8.3203   17.2732 N   0  0  0  0  0  0  0  0  0  0  0  0
    8.5296   -5.9814   17.1841 C   0  0  0  0  0  0  0  0  0  0  0  0
    9.1527   -5.2118   16.2116 C   0  0  0  0  0  0  0  0  0  0  0  0
   10.3364   -3.8368   22.9255 O   0  0  0  0  0  0  0  0  0  0  0  0
    9.6947   -4.8407   18.8534 C   0  0  0  0  0  0  0  0  0  0  0  0
    9.1596    1.7042   24.1381 C   0  0  0  0  0  0  0  0  0  0  0  0
   11.0456   -2.9774   18.2694 N   0  0  0  0  0  0  0  0  0  0  0  0
   10.4788   -3.0457   21.8593 C   0  0  0  0  0  0  0  0  0  0  0  0
    8.8693   -5.8099   18.4657 N   0  0  0  0  0  0  0  0  0  0  0  0
    8.9892   -0.7926   25.4573 C   0  0  0  0  0  0  0  0  0  0  0  0
   10.5677   -3.4462   20.5323 C   0  0  0  0  0  0  0  0  0  0  0  0
  1  8  1  0
  1 12  4  0
  1 14  4  0
  2  3  4  0
  2 18  4  0
  3 20  4  0
  3 22  4  0
  4 11  4  0
  4 21  4  0
  5  9  4  0
  5 16  4  0
  6 15  4  0
  6 16  4  0
  7 22  4  0
  7 26  4  0
  8 10  4  0
  8 25  4  0
  9 15  4  0
  9 17  1  0
 10 21  4  0
 11 25  4  0
 12 23  4  0
 13 20  4  0
 13 26  4  0
 14 19  4  0
 17 18  4  0
 17 24  4  0
 19 23  4  0
 20 24  4  0
 23 26  1  0
M  END
$$$$

 Created by Python create_sdf_string function

 26 30  0  0  0  0  0  0  0  0999 V2000
   10.0084   -1.8019   23.4945 C   0  0  0  0  0  0  0  0  0  0  0  0
   10.0005   -4.2520   16.5631 C   0  0  0  0  0  0  0  0  0  0  0  0
   10.2759   -4.0036   17.8845 C   0  0  0  0  0  0  0  0  0  0  0  0
    8.5652    1.5478   25.3778 N   0  0  0  0  0  0  0  0  0  0  0  0
    6.8048   -7.5457   17.8752 C   0  0  0  0  0  0  0  0  0  0  0  0
    6.1721   -8.2186   15.9886 N   0  0  0  0  0  0  0  0  0  0  0  0
   11.1764   -2.6600   19.5604 C   0  0  0  0  0  0  0  0  0  0  0  0
    9.5491   -0.6380   24.1912 C   0  0  0  0  0  0  0  0  0  0  0  0
    7.5337   -6.9256   16.9519 C   0  0  0  0  0  0  0  0  0  0  0  0
    9.6782    0.5671   23.5143 C   0  0  0  0  0  0  0  0  0  0  0  0
    8.4532    0.3482   26.0821 C   0  0  0  0  0  0  0  0  0  0  0  0
   10.4239   -1.7677   22.2230 N   0  0  0  0  0  0  0  0  0  0  0  0
    9.9468   -4.5953   20.1709 C   0  0  0  0  0  0  0  0  0  0  0  0
   10.0366   -3.0590   23.9864 N   0  0  0  0  0  0  0  0  0  0  0  0
    7.1191   -7.3636   15.7739 C   0  0  0  0  0  0  0  0  0  0  0  0
    5.9612   -8.3203   17.2732 N   0  0  0  0  0  0  0  0  0  0  0  0
    8.5296   -5.9814   17.1841 C   0  0  0  0  0  0  0  0  0  0  0  0
    9.1527   -5.2118   16.2116 C   0  0  0  0  0  0  0  0  0  0  0  0
   10.3364   -3.8368   22.9255 O   0  0  0  0  0  0  0  0  0  0  0  0
    9.6947   -4.8407   18.8534 C   0  0  0  0  0  0  0  0  0  0  0  0
    9.1596    1.7042   24.1381 C   0  0  0  0  0  0  0  0  0  0  0  0
   11.0456   -2.9774   18.2694 N   0  0  0  0  0  0  0  0  0  0  0  0
   10.4788   -3.0457   21.8593 C   0  0  0  0  0  0  0  0  0  0  0  0
    8.8693   -5.8099   18.4657 N   0  0  0  0  0  0  0  0  0  0  0  0
    8.9892   -0.7926   25.4573 C   0  0  0  0  0  0  0  0  0  0  0  0
   10.5677   -3.4462   20.5323 C   0  0  0  0  0  0  0  0  0  0  0  0
  1  8  1  0
  1 12  4  0
  1 14  4  0
  2  3  4  0
  2 18  4  0
  3 20  4  0
  3 22  4  0
  4 11  4  0
  4 21  4  0
  5  9  4  0
  5 16  4  0
  6 15  4  0
  6 16  4  0
  7 22  4  0
  7 26  4  0
  8 10  4  0
  8 25  4  0
  9 15  4  0
  9 17  1  0
 10 21  4  0
 11 25  4  0
 12 23  4  0
 13 20  4  0
 13 26  4  0
 14 19  4  0
 17 18  4  0
 17 24  4  0
 19 23  4  0
 20 24  4  0
 23 26  1  0
M  END
$$$$

 Created by Python create_sdf_string function

 26 30  0  0  0  0  0  0  0  0999 V2000
   10.0084   -1.8019   23.4945 C   0  0  0  0  0  0  0  0  0  0  0  0
   10.0005   -4.2520   16.5631 C   0  0  0  0  0  0  0  0  0  0  0  0
   10.2759   -4.0036   17.8845 C   0  0  0  0  0  0  0  0  0  0  0  0
    8.5652    1.5478   25.3778 N   0  0  0  0  0  0  0  0  0  0  0  0
    6.8048   -7.5457   17.8752 C   0  0  0  0  0  0  0  0  0  0  0  0
    6.1721   -8.2186   15.9886 N   0  0  0  0  0  0  0  0  0  0  0  0
   11.1764   -2.6600   19.5604 C   0  0  0  0  0  0  0  0  0  0  0  0
    9.5491   -0.6380   24.1912 C   0  0  0  0  0  0  0  0  0  0  0  0
    7.5337   -6.9256   16.9519 C   0  0  0  0  0  0  0  0  0  0  0  0
    9.6782    0.5671   23.5143 C   0  0  0  0  0  0  0  0  0  0  0  0
    8.4532    0.3482   26.0821 C   0  0  0  0  0  0  0  0  0  0  0  0
   10.4239   -1.7677   22.2230 N   0  0  0  0  0  0  0  0  0  0  0  0
    9.9468   -4.5953   20.1709 C   0  0  0  0  0  0  0  0  0  0  0  0
   10.0366   -3.0590   23.9864 N   0  0  0  0  0  0  0  0  0  0  0  0
    7.1191   -7.3636   15.7739 C   0  0  0  0  0  0  0  0  0  0  0  0
    5.9612   -8.3203   17.2732 N   0  0  0  0  0  0  0  0  0  0  0  0
    8.5296   -5.9814   17.1841 C   0  0  0  0  0  0  0  0  0  0  0  0
    9.1527   -5.2118   16.2116 C   0  0  0  0  0  0  0  0  0  0  0  0
   10.3364   -3.8368   22.9255 O   0  0  0  0  0  0  0  0  0  0  0  0
    9.6947   -4.8407   18.8534 C   0  0  0  0  0  0  0  0  0  0  0  0
    9.1596    1.7042   24.1381 C   0  0  0  0  0  0  0  0  0  0  0  0
   11.0456   -2.9774   18.2694 N   0  0  0  0  0  0  0  0  0  0  0  0
   10.4788   -3.0457   21.8593 C   0  0  0  0  0  0  0  0  0  0  0  0
    8.8693   -5.8099   18.4657 N   0  0  0  0  0  0  0  0  0  0  0  0
    8.9892   -0.7926   25.4573 C   0  0  0  0  0  0  0  0  0  0  0  0
   10.5677   -3.4462   20.5323 C   0  0  0  0  0  0  0  0  0  0  0  0
  1  8  1  0
  1 12  4  0
  1 14  4  0
  2  3  4  0
  2 18  4  0
  3 20  4  0
  3 22  4  0
  4 11  4  0
  4 21  4  0
  5  9  4  0
  5 16  4  0
  6 15  4  0
  6 16  4  0
  7 22  4  0
  7 26  4  0
  8 10  4  0
  8 25  4  0
  9 15  4  0
  9 17  1  0
 10 21  4  0
 11 25  4  0
 12 23  4  0
 13 20  4  0
 13 26  4  0
 14 19  4  0
 17 18  4  0
 17 24  4  0
 19 23  4  0
 20 24  4  0
 23 26  1  0
M  END
$$$$

 Created by Python create_sdf_string function

 26 30  0  0  0  0  0  0  0  0999 V2000
   10.0084   -1.8019   23.4945 C   0  0  0  0  0  0  0  0  0  0  0  0
   10.0005   -4.2520   16.5631 C   0  0  0  0  0  0  0  0  0  0  0  0
   10.2759   -4.0036   17.8845 C   0  0  0  0  0  0  0  0  0  0  0  0
    8.5652    1.5478   25.3778 N   0  0  0  0  0  0  0  0  0  0  0  0
    6.8048   -7.5457   17.8752 C   0  0  0  0  0  0  0  0  0  0  0  0
    6.1721   -8.2186   15.9886 N   0  0  0  0  0  0  0  0  0  0  0  0
   11.1764   -2.6600   19.5604 C   0  0  0  0  0  0  0  0  0  0  0  0
    9.5491   -0.6380   24.1912 C   0  0  0  0  0  0  0  0  0  0  0  0
    7.5337   -6.9256   16.9519 C   0  0  0  0  0  0  0  0  0  0  0  0
    9.6782    0.5671   23.5143 C   0  0  0  0  0  0  0  0  0  0  0  0
    8.4532    0.3482   26.0821 C   0  0  0  0  0  0  0  0  0  0  0  0
   10.4239   -1.7677   22.2230 N   0  0  0  0  0  0  0  0  0  0  0  0
    9.9468   -4.5953   20.1709 C   0  0  0  0  0  0  0  0  0  0  0  0
   10.0366   -3.0590   23.9864 N   0  0  0  0  0  0  0  0  0  0  0  0
    7.1191   -7.3636   15.7739 C   0  0  0  0  0  0  0  0  0  0  0  0
    5.9612   -8.3203   17.2732 N   0  0  0  0  0  0  0  0  0  0  0  0
    8.5296   -5.9814   17.1841 C   0  0  0  0  0  0  0  0  0  0  0  0
    9.1527   -5.2118   16.2116 C   0  0  0  0  0  0  0  0  0  0  0  0
   10.3364   -3.8368   22.9255 O   0  0  0  0  0  0  0  0  0  0  0  0
    9.6947   -4.8407   18.8534 C   0  0  0  0  0  0  0  0  0  0  0  0
    9.1596    1.7042   24.1381 C   0  0  0  0  0  0  0  0  0  0  0  0
   11.0456   -2.9774   18.2694 N   0  0  0  0  0  0  0  0  0  0  0  0
   10.4788   -3.0457   21.8593 C   0  0  0  0  0  0  0  0  0  0  0  0
    8.8693   -5.8099   18.4657 N   0  0  0  0  0  0  0  0  0  0  0  0
    8.9892   -0.7926   25.4573 C   0  0  0  0  0  0  0  0  0  0  0  0
   10.5677   -3.4462   20.5323 C   0  0  0  0  0  0  0  0  0  0  0  0
  1  8  1  0
  1 12  4  0
  1 14  4  0
  2  3  4  0
  2 18  4  0
  3 20  4  0
  3 22  4  0
  4 11  4  0
  4 21  4  0
  5  9  4  0
  5 16  4  0
  6 15  4  0
  6 16  4  0
  7 22  4  0
  7 26  4  0
  8 10  4  0
  8 25  4  0
  9 15  4  0
  9 17  1  0
 10 21  4  0
 11 25  4  0
 12 23  4  0
 13 20  4  0
 13 26  4  0
 14 19  4  0
 17 18  4  0
 17 24  4  0
 19 23  4  0
 20 24  4  0
 23 26  1  0
M  END
$$$$

 Created by Python create_sdf_string function

 26 30  0  0  0  0  0  0  0  0999 V2000
   10.0084   -1.8019   23.4945 C   0  0  0  0  0  0  0  0  0  0  0  0
   10.0005   -4.2520   16.5631 C   0  0  0  0  0  0  0  0  0  0  0  0
   10.2759   -4.0036   17.8845 C   0  0  0  0  0  0  0  0  0  0  0  0
    8.5652    1.5478   25.3778 N   0  0  0  0  0  0  0  0  0  0  0  0
    6.8048   -7.5457   17.8752 C   0  0  0  0  0  0  0  0  0  0  0  0
    6.1721   -8.2186   15.9886 N   0  0  0  0  0  0  0  0  0  0  0  0
   11.1764   -2.6600   19.5604 C   0  0  0  0  0  0  0  0  0  0  0  0
    9.5491   -0.6380   24.1912 C   0  0  0  0  0  0  0  0  0  0  0  0
    7.5337   -6.9256   16.9519 C   0  0  0  0  0  0  0  0  0  0  0  0
    9.6782    0.5671   23.5143 C   0  0  0  0  0  0  0  0  0  0  0  0
    8.4532    0.3482   26.0821 C   0  0  0  0  0  0  0  0  0  0  0  0
   10.4239   -1.7677   22.2230 N   0  0  0  0  0  0  0  0  0  0  0  0
    9.9468   -4.5953   20.1709 C   0  0  0  0  0  0  0  0  0  0  0  0
   10.0366   -3.0590   23.9864 N   0  0  0  0  0  0  0  0  0  0  0  0
    7.1191   -7.3636   15.7739 C   0  0  0  0  0  0  0  0  0  0  0  0
    5.9612   -8.3203   17.2732 N   0  0  0  0  0  0  0  0  0  0  0  0
    8.5296   -5.9814   17.1841 C   0  0  0  0  0  0  0  0  0  0  0  0
    9.1527   -5.2118   16.2116 C   0  0  0  0  0  0  0  0  0  0  0  0
   10.3364   -3.8368   22.9255 O   0  0  0  0  0  0  0  0  0  0  0  0
    9.6947   -4.8407   18.8534 C   0  0  0  0  0  0  0  0  0  0  0  0
    9.1596    1.7042   24.1381 C   0  0  0  0  0  0  0  0  0  0  0  0
   11.0456   -2.9774   18.2694 N   0  0  0  0  0  0  0  0  0  0  0  0
   10.4788   -3.0457   21.8593 C   0  0  0  0  0  0  0  0  0  0  0  0
    8.8693   -5.8099   18.4657 N   0  0  0  0  0  0  0  0  0  0  0  0
    8.9892   -0.7926   25.4573 C   0  0  0  0  0  0  0  0  0  0  0  0
   10.5677   -3.4462   20.5323 C   0  0  0  0  0  0  0  0  0  0  0  0
  1  8  1  0
  1 12  4  0
  1 14  4  0
  2  3  4  0
  2 18  4  0
  3 20  4  0
  3 22  4  0
  4 11  4  0
  4 21  4  0
  5  9  4  0
  5 16  4  0
  6 15  4  0
  6 16  4  0
  7 22  4  0
  7 26  4  0
  8 10  4  0
  8 25  4  0
  9 15  4  0
  9 17  1  0
 10 21  4  0
 11 25  4  0
 12 23  4  0
 13 20  4  0
 13 26  4  0
 14 19  4  0
 17 18  4  0
 17 24  4  0
 19 23  4  0
 20 24  4  0
 23 26  1  0
M  END
$$$$

 Created by Python create_sdf_string function

 26 30  0  0  0  0  0  0  0  0999 V2000
   10.0084   -1.8019   23.4945 C   0  0  0  0  0  0  0  0  0  0  0  0
   10.0005   -4.2520   16.5631 C   0  0  0  0  0  0  0  0  0  0  0  0
   10.2759   -4.0036   17.8845 C   0  0  0  0  0  0  0  0  0  0  0  0
    8.5652    1.5478   25.3778 N   0  0  0  0  0  0  0  0  0  0  0  0
    6.8048   -7.5457   17.8752 C   0  0  0  0  0  0  0  0  0  0  0  0
    6.1721   -8.2186   15.9886 N   0  0  0  0  0  0  0  0  0  0  0  0
   11.1764   -2.6600   19.5604 C   0  0  0  0  0  0  0  0  0  0  0  0
    9.5491   -0.6380   24.1912 C   0  0  0  0  0  0  0  0  0  0  0  0
    7.5337   -6.9256   16.9519 C   0  0  0  0  0  0  0  0  0  0  0  0
    9.6782    0.5671   23.5143 C   0  0  0  0  0  0  0  0  0  0  0  0
    8.4532    0.3482   26.0821 C   0  0  0  0  0  0  0  0  0  0  0  0
   10.4239   -1.7677   22.2230 N   0  0  0  0  0  0  0  0  0  0  0  0
    9.9468   -4.5953   20.1709 C   0  0  0  0  0  0  0  0  0  0  0  0
   10.0366   -3.0590   23.9864 N   0  0  0  0  0  0  0  0  0  0  0  0
    7.1191   -7.3636   15.7739 C   0  0  0  0  0  0  0  0  0  0  0  0
    5.9612   -8.3203   17.2732 N   0  0  0  0  0  0  0  0  0  0  0  0
    8.5296   -5.9814   17.1841 C   0  0  0  0  0  0  0  0  0  0  0  0
    9.1527   -5.2118   16.2116 C   0  0  0  0  0  0  0  0  0  0  0  0
   10.3364   -3.8368   22.9255 O   0  0  0  0  0  0  0  0  0  0  0  0
    9.6947   -4.8407   18.8534 C   0  0  0  0  0  0  0  0  0  0  0  0
    9.1596    1.7042   24.1381 C   0  0  0  0  0  0  0  0  0  0  0  0
   11.0456   -2.9774   18.2694 N   0  0  0  0  0  0  0  0  0  0  0  0
   10.4788   -3.0457   21.8593 C   0  0  0  0  0  0  0  0  0  0  0  0
    8.8693   -5.8099   18.4657 N   0  0  0  0  0  0  0  0  0  0  0  0
    8.9892   -0.7926   25.4573 C   0  0  0  0  0  0  0  0  0  0  0  0
   10.5677   -3.4462   20.5323 C   0  0  0  0  0  0  0  0  0  0  0  0
  1  8  1  0
  1 12  4  0
  1 14  4  0
  2  3  4  0
  2 18  4  0
  3 20  4  0
  3 22  4  0
  4 11  4  0
  4 21  4  0
  5  9  4  0
  5 16  4  0
  6 15  4  0
  6 16  4  0
  7 22  4  0
  7 26  4  0
  8 10  4  0
  8 25  4  0
  9 15  4  0
  9 17  1  0
 10 21  4  0
 11 25  4  0
 12 23  4  0
 13 20  4  0
 13 26  4  0
 14 19  4  0
 17 18  4  0
 17 24  4  0
 19 23  4  0
 20 24  4  0
 23 26  1  0
M  END
$$$$

 Created by Python create_sdf_string function

 26 30  0  0  0  0  0  0  0  0999 V2000
   10.0084   -1.8019   23.4945 C   0  0  0  0  0  0  0  0  0  0  0  0
   10.0005   -4.2520   16.5631 C   0  0  0  0  0  0  0  0  0  0  0  0
   10.2759   -4.0036   17.8845 C   0  0  0  0  0  0  0  0  0  0  0  0
    8.5652    1.5478   25.3778 N   0  0  0  0  0  0  0  0  0  0  0  0
    6.8048   -7.5457   17.8752 C   0  0  0  0  0  0  0  0  0  0  0  0
    6.1721   -8.2186   15.9886 N   0  0  0  0  0  0  0  0  0  0  0  0
   11.1764   -2.6600   19.5604 C   0  0  0  0  0  0  0  0  0  0  0  0
    9.5491   -0.6380   24.1912 C   0  0  0  0  0  0  0  0  0  0  0  0
    7.5337   -6.9256   16.9519 C   0  0  0  0  0  0  0  0  0  0  0  0
    9.6782    0.5671   23.5143 C   0  0  0  0  0  0  0  0  0  0  0  0
    8.4532    0.3482   26.0821 C   0  0  0  0  0  0  0  0  0  0  0  0
   10.4239   -1.7677   22.2230 N   0  0  0  0  0  0  0  0  0  0  0  0
    9.9468   -4.5953   20.1709 C   0  0  0  0  0  0  0  0  0  0  0  0
   10.0366   -3.0590   23.9864 N   0  0  0  0  0  0  0  0  0  0  0  0
    7.1191   -7.3636   15.7739 C   0  0  0  0  0  0  0  0  0  0  0  0
    5.9612   -8.3203   17.2732 N   0  0  0  0  0  0  0  0  0  0  0  0
    8.5296   -5.9814   17.1841 C   0  0  0  0  0  0  0  0  0  0  0  0
    9.1527   -5.2118   16.2116 C   0  0  0  0  0  0  0  0  0  0  0  0
   10.3364   -3.8368   22.9255 O   0  0  0  0  0  0  0  0  0  0  0  0
    9.6947   -4.8407   18.8534 C   0  0  0  0  0  0  0  0  0  0  0  0
    9.1596    1.7042   24.1381 C   0  0  0  0  0  0  0  0  0  0  0  0
   11.0456   -2.9774   18.2694 N   0  0  0  0  0  0  0  0  0  0  0  0
   10.4788   -3.0457   21.8593 C   0  0  0  0  0  0  0  0  0  0  0  0
    8.8693   -5.8099   18.4657 N   0  0  0  0  0  0  0  0  0  0  0  0
    8.9892   -0.7926   25.4573 C   0  0  0  0  0  0  0  0  0  0  0  0
   10.5677   -3.4462   20.5323 C   0  0  0  0  0  0  0  0  0  0  0  0
  1  8  1  0
  1 12  4  0
  1 14  4  0
  2  3  4  0
  2 18  4  0
  3 20  4  0
  3 22  4  0
  4 11  4  0
  4 21  4  0
  5  9  4  0
  5 16  4  0
  6 15  4  0
  6 16  4  0
  7 22  4  0
  7 26  4  0
  8 10  4  0
  8 25  4  0
  9 15  4  0
  9 17  1  0
 10 21  4  0
 11 25  4  0
 12 23  4  0
 13 20  4  0
 13 26  4  0
 14 19  4  0
 17 18  4  0
 17 24  4  0
 19 23  4  0
 20 24  4  0
 23 26  1  0
M  END
$$$$

 Created by Python create_sdf_string function

 26 30  0  0  0  0  0  0  0  0999 V2000
   10.0084   -1.8019   23.4945 C   0  0  0  0  0  0  0  0  0  0  0  0
   10.0005   -4.2520   16.5631 C   0  0  0  0  0  0  0  0  0  0  0  0
   10.2759   -4.0036   17.8845 C   0  0  0  0  0  0  0  0  0  0  0  0
    8.5652    1.5478   25.3778 N   0  0  0  0  0  0  0  0  0  0  0  0
    6.8048   -7.5457   17.8752 C   0  0  0  0  0  0  0  0  0  0  0  0
    6.1721   -8.2186   15.9886 N   0  0  0  0  0  0  0  0  0  0  0  0
   11.1764   -2.6600   19.5604 C   0  0  0  0  0  0  0  0  0  0  0  0
    9.5491   -0.6380   24.1912 C   0  0  0  0  0  0  0  0  0  0  0  0
    7.5337   -6.9256   16.9519 C   0  0  0  0  0  0  0  0  0  0  0  0
    9.6782    0.5671   23.5143 C   0  0  0  0  0  0  0  0  0  0  0  0
    8.4532    0.3482   26.0821 C   0  0  0  0  0  0  0  0  0  0  0  0
   10.4239   -1.7677   22.2230 N   0  0  0  0  0  0  0  0  0  0  0  0
    9.9468   -4.5953   20.1709 C   0  0  0  0  0  0  0  0  0  0  0  0
   10.0366   -3.0590   23.9864 N   0  0  0  0  0  0  0  0  0  0  0  0
    7.1191   -7.3636   15.7739 C   0  0  0  0  0  0  0  0  0  0  0  0
    5.9612   -8.3203   17.2732 N   0  0  0  0  0  0  0  0  0  0  0  0
    8.5296   -5.9814   17.1841 C   0  0  0  0  0  0  0  0  0  0  0  0
    9.1527   -5.2118   16.2116 C   0  0  0  0  0  0  0  0  0  0  0  0
   10.3364   -3.8368   22.9255 O   0  0  0  0  0  0  0  0  0  0  0  0
    9.6947   -4.8407   18.8534 C   0  0  0  0  0  0  0  0  0  0  0  0
    9.1596    1.7042   24.1381 C   0  0  0  0  0  0  0  0  0  0  0  0
   11.0456   -2.9774   18.2694 N   0  0  0  0  0  0  0  0  0  0  0  0
   10.4788   -3.0457   21.8593 C   0  0  0  0  0  0  0  0  0  0  0  0
    8.8693   -5.8099   18.4657 N   0  0  0  0  0  0  0  0  0  0  0  0
    8.9892   -0.7926   25.4573 C   0  0  0  0  0  0  0  0  0  0  0  0
   10.5677   -3.4462   20.5323 C   0  0  0  0  0  0  0  0  0  0  0  0
  1  8  1  0
  1 12  4  0
  1 14  4  0
  2  3  4  0
  2 18  4  0
  3 20  4  0
  3 22  4  0
  4 11  4  0
  4 21  4  0
  5  9  4  0
  5 16  4  0
  6 15  4  0
  6 16  4  0
  7 22  4  0
  7 26  4  0
  8 10  4  0
  8 25  4  0
  9 15  4  0
  9 17  1  0
 10 21  4  0
 11 25  4  0
 12 23  4  0
 13 20  4  0
 13 26  4  0
 14 19  4  0
 17 18  4  0
 17 24  4  0
 19 23  4  0
 20 24  4  0
 23 26  1  0
M  END
$$$$

 Created by Python create_sdf_string function

 26 30  0  0  0  0  0  0  0  0999 V2000
   10.0084   -1.8019   23.4945 C   0  0  0  0  0  0  0  0  0  0  0  0
   10.0005   -4.2520   16.5631 C   0  0  0  0  0  0  0  0  0  0  0  0
   10.2759   -4.0036   17.8845 C   0  0  0  0  0  0  0  0  0  0  0  0
    8.5652    1.5478   25.3778 N   0  0  0  0  0  0  0  0  0  0  0  0
    6.8048   -7.5457   17.8752 C   0  0  0  0  0  0  0  0  0  0  0  0
    6.1721   -8.2186   15.9886 N   0  0  0  0  0  0  0  0  0  0  0  0
   11.1764   -2.6600   19.5604 C   0  0  0  0  0  0  0  0  0  0  0  0
    9.5491   -0.6380   24.1912 C   0  0  0  0  0  0  0  0  0  0  0  0
    7.5337   -6.9256   16.9519 C   0  0  0  0  0  0  0  0  0  0  0  0
    9.6782    0.5671   23.5143 C   0  0  0  0  0  0  0  0  0  0  0  0
    8.4532    0.3482   26.0821 C   0  0  0  0  0  0  0  0  0  0  0  0
   10.4239   -1.7677   22.2230 N   0  0  0  0  0  0  0  0  0  0  0  0
    9.9468   -4.5953   20.1709 C   0  0  0  0  0  0  0  0  0  0  0  0
   10.0366   -3.0590   23.9864 N   0  0  0  0  0  0  0  0  0  0  0  0
    7.1191   -7.3636   15.7739 C   0  0  0  0  0  0  0  0  0  0  0  0
    5.9612   -8.3203   17.2732 N   0  0  0  0  0  0  0  0  0  0  0  0
    8.5296   -5.9814   17.1841 C   0  0  0  0  0  0  0  0  0  0  0  0
    9.1527   -5.2118   16.2116 C   0  0  0  0  0  0  0  0  0  0  0  0
   10.3364   -3.8368   22.9255 O   0  0  0  0  0  0  0  0  0  0  0  0
    9.6947   -4.8407   18.8534 C   0  0  0  0  0  0  0  0  0  0  0  0
    9.1596    1.7042   24.1381 C   0  0  0  0  0  0  0  0  0  0  0  0
   11.0456   -2.9774   18.2694 N   0  0  0  0  0  0  0  0  0  0  0  0
   10.4788   -3.0457   21.8593 C   0  0  0  0  0  0  0  0  0  0  0  0
    8.8693   -5.8099   18.4657 N   0  0  0  0  0  0  0  0  0  0  0  0
    8.9892   -0.7926   25.4573 C   0  0  0  0  0  0  0  0  0  0  0  0
   10.5677   -3.4462   20.5323 C   0  0  0  0  0  0  0  0  0  0  0  0
  1  8  1  0
  1 12  4  0
  1 14  4  0
  2  3  4  0
  2 18  4  0
  3 20  4  0
  3 22  4  0
  4 11  4  0
  4 21  4  0
  5  9  4  0
  5 16  4  0
  6 15  4  0
  6 16  4  0
  7 22  4  0
  7 26  4  0
  8 10  4  0
  8 25  4  0
  9 15  4  0
  9 17  1  0
 10 21  4  0
 11 25  4  0
 12 23  4  0
 13 20  4  0
 13 26  4  0
 14 19  4  0
 17 18  4  0
 17 24  4  0
 19 23  4  0
 20 24  4  0
 23 26  1  0
M  END
$$$$

 Created by Python create_sdf_string function

 26 30  0  0  0  0  0  0  0  0999 V2000
   10.0084   -1.8019   23.4945 C   0  0  0  0  0  0  0  0  0  0  0  0
   10.0005   -4.2520   16.5631 C   0  0  0  0  0  0  0  0  0  0  0  0
   10.2759   -4.0036   17.8845 C   0  0  0  0  0  0  0  0  0  0  0  0
    8.5652    1.5478   25.3778 N   0  0  0  0  0  0  0  0  0  0  0  0
    6.8048   -7.5457   17.8752 C   0  0  0  0  0  0  0  0  0  0  0  0
    6.1721   -8.2186   15.9886 N   0  0  0  0  0  0  0  0  0  0  0  0
   11.1764   -2.6600   19.5604 C   0  0  0  0  0  0  0  0  0  0  0  0
    9.5491   -0.6380   24.1912 C   0  0  0  0  0  0  0  0  0  0  0  0
    7.5337   -6.9256   16.9519 C   0  0  0  0  0  0  0  0  0  0  0  0
    9.6782    0.5671   23.5143 C   0  0  0  0  0  0  0  0  0  0  0  0
    8.4532    0.3482   26.0821 C   0  0  0  0  0  0  0  0  0  0  0  0
   10.4239   -1.7677   22.2230 N   0  0  0  0  0  0  0  0  0  0  0  0
    9.9468   -4.5953   20.1709 C   0  0  0  0  0  0  0  0  0  0  0  0
   10.0366   -3.0590   23.9864 N   0  0  0  0  0  0  0  0  0  0  0  0
    7.1191   -7.3636   15.7739 C   0  0  0  0  0  0  0  0  0  0  0  0
    5.9612   -8.3203   17.2732 N   0  0  0  0  0  0  0  0  0  0  0  0
    8.5296   -5.9814   17.1841 C   0  0  0  0  0  0  0  0  0  0  0  0
    9.1527   -5.2118   16.2116 C   0  0  0  0  0  0  0  0  0  0  0  0
   10.3364   -3.8368   22.9255 O   0  0  0  0  0  0  0  0  0  0  0  0
    9.6947   -4.8407   18.8534 C   0  0  0  0  0  0  0  0  0  0  0  0
    9.1596    1.7042   24.1381 C   0  0  0  0  0  0  0  0  0  0  0  0
   11.0456   -2.9774   18.2694 N   0  0  0  0  0  0  0  0  0  0  0  0
   10.4788   -3.0457   21.8593 C   0  0  0  0  0  0  0  0  0  0  0  0
    8.8693   -5.8099   18.4657 N   0  0  0  0  0  0  0  0  0  0  0  0
    8.9892   -0.7926   25.4573 C   0  0  0  0  0  0  0  0  0  0  0  0
   10.5677   -3.4462   20.5323 C   0  0  0  0  0  0  0  0  0  0  0  0
  1  8  1  0
  1 12  4  0
  1 14  4  0
  2  3  4  0
  2 18  4  0
  3 20  4  0
  3 22  4  0
  4 11  4  0
  4 21  4  0
  5  9  4  0
  5 16  4  0
  6 15  4  0
  6 16  4  0
  7 22  4  0
  7 26  4  0
  8 10  4  0
  8 25  4  0
  9 15  4  0
  9 17  1  0
 10 21  4  0
 11 25  4  0
 12 23  4  0
 13 20  4  0
 13 26  4  0
 14 19  4  0
 17 18  4  0
 17 24  4  0
 19 23  4  0
 20 24  4  0
 23 26  1  0
M  END
$$$$

 Created by Python create_sdf_string function

 26 30  0  0  0  0  0  0  0  0999 V2000
   10.0084   -1.8019   23.4945 C   0  0  0  0  0  0  0  0  0  0  0  0
   10.0005   -4.2520   16.5631 C   0  0  0  0  0  0  0  0  0  0  0  0
   10.2759   -4.0036   17.8845 C   0  0  0  0  0  0  0  0  0  0  0  0
    8.5652    1.5478   25.3778 N   0  0  0  0  0  0  0  0  0  0  0  0
    6.8048   -7.5457   17.8752 C   0  0  0  0  0  0  0  0  0  0  0  0
    6.1721   -8.2186   15.9886 N   0  0  0  0  0  0  0  0  0  0  0  0
   11.1764   -2.6600   19.5604 C   0  0  0  0  0  0  0  0  0  0  0  0
    9.5491   -0.6380   24.1912 C   0  0  0  0  0  0  0  0  0  0  0  0
    7.5337   -6.9256   16.9519 C   0  0  0  0  0  0  0  0  0  0  0  0
    9.6782    0.5671   23.5143 C   0  0  0  0  0  0  0  0  0  0  0  0
    8.4532    0.3482   26.0821 C   0  0  0  0  0  0  0  0  0  0  0  0
   10.4239   -1.7677   22.2230 N   0  0  0  0  0  0  0  0  0  0  0  0
    9.9468   -4.5953   20.1709 C   0  0  0  0  0  0  0  0  0  0  0  0
   10.0366   -3.0590   23.9864 N   0  0  0  0  0  0  0  0  0  0  0  0
    7.1191   -7.3636   15.7739 C   0  0  0  0  0  0  0  0  0  0  0  0
    5.9612   -8.3203   17.2732 N   0  0  0  0  0  0  0  0  0  0  0  0
    8.5296   -5.9814   17.1841 C   0  0  0  0  0  0  0  0  0  0  0  0
    9.1527   -5.2118   16.2116 C   0  0  0  0  0  0  0  0  0  0  0  0
   10.3364   -3.8368   22.9255 O   0  0  0  0  0  0  0  0  0  0  0  0
    9.6947   -4.8407   18.8534 C   0  0  0  0  0  0  0  0  0  0  0  0
    9.1596    1.7042   24.1381 C   0  0  0  0  0  0  0  0  0  0  0  0
   11.0456   -2.9774   18.2694 N   0  0  0  0  0  0  0  0  0  0  0  0
   10.4788   -3.0457   21.8593 C   0  0  0  0  0  0  0  0  0  0  0  0
    8.8693   -5.8099   18.4657 N   0  0  0  0  0  0  0  0  0  0  0  0
    8.9892   -0.7926   25.4573 C   0  0  0  0  0  0  0  0  0  0  0  0
   10.5677   -3.4462   20.5323 C   0  0  0  0  0  0  0  0  0  0  0  0
  1  8  1  0
  1 12  4  0
  1 14  4  0
  2  3  4  0
  2 18  4  0
  3 20  4  0
  3 22  4  0
  4 11  4  0
  4 21  4  0
  5  9  4  0
  5 16  4  0
  6 15  4  0
  6 16  4  0
  7 22  4  0
  7 26  4  0
  8 10  4  0
  8 25  4  0
  9 15  4  0
  9 17  1  0
 10 21  4  0
 11 25  4  0
 12 23  4  0
 13 20  4  0
 13 26  4  0
 14 19  4  0
 17 18  4  0
 17 24  4  0
 19 23  4  0
 20 24  4  0
 23 26  1  0
M  END
$$$$

 Created by Python create_sdf_string function

 26 30  0  0  0  0  0  0  0  0999 V2000
   10.0084   -1.8019   23.4945 C   0  0  0  0  0  0  0  0  0  0  0  0
   10.0005   -4.2520   16.5631 C   0  0  0  0  0  0  0  0  0  0  0  0
   10.2759   -4.0036   17.8845 C   0  0  0  0  0  0  0  0  0  0  0  0
    8.5652    1.5478   25.3778 N   0  0  0  0  0  0  0  0  0  0  0  0
    6.8048   -7.5457   17.8752 C   0  0  0  0  0  0  0  0  0  0  0  0
    6.1721   -8.2186   15.9886 N   0  0  0  0  0  0  0  0  0  0  0  0
   11.1764   -2.6600   19.5604 C   0  0  0  0  0  0  0  0  0  0  0  0
    9.5491   -0.6380   24.1912 C   0  0  0  0  0  0  0  0  0  0  0  0
    7.5337   -6.9256   16.9519 C   0  0  0  0  0  0  0  0  0  0  0  0
    9.6782    0.5671   23.5143 C   0  0  0  0  0  0  0  0  0  0  0  0
    8.4532    0.3482   26.0821 C   0  0  0  0  0  0  0  0  0  0  0  0
   10.4239   -1.7677   22.2230 N   0  0  0  0  0  0  0  0  0  0  0  0
    9.9468   -4.5953   20.1709 C   0  0  0  0  0  0  0  0  0  0  0  0
   10.0366   -3.0590   23.9864 N   0  0  0  0  0  0  0  0  0  0  0  0
    7.1191   -7.3636   15.7739 C   0  0  0  0  0  0  0  0  0  0  0  0
    5.9612   -8.3203   17.2732 N   0  0  0  0  0  0  0  0  0  0  0  0
    8.5296   -5.9814   17.1841 C   0  0  0  0  0  0  0  0  0  0  0  0
    9.1527   -5.2118   16.2116 C   0  0  0  0  0  0  0  0  0  0  0  0
   10.3364   -3.8368   22.9255 O   0  0  0  0  0  0  0  0  0  0  0  0
    9.6947   -4.8407   18.8534 C   0  0  0  0  0  0  0  0  0  0  0  0
    9.1596    1.7042   24.1381 C   0  0  0  0  0  0  0  0  0  0  0  0
   11.0456   -2.9774   18.2694 N   0  0  0  0  0  0  0  0  0  0  0  0
   10.4788   -3.0457   21.8593 C   0  0  0  0  0  0  0  0  0  0  0  0
    8.8693   -5.8099   18.4657 N   0  0  0  0  0  0  0  0  0  0  0  0
    8.9892   -0.7926   25.4573 C   0  0  0  0  0  0  0  0  0  0  0  0
   10.5677   -3.4462   20.5323 C   0  0  0  0  0  0  0  0  0  0  0  0
  1  8  1  0
  1 12  4  0
  1 14  4  0
  2  3  4  0
  2 18  4  0
  3 20  4  0
  3 22  4  0
  4 11  4  0
  4 21  4  0
  5  9  4  0
  5 16  4  0
  6 15  4  0
  6 16  4  0
  7 22  4  0
  7 26  4  0
  8 10  4  0
  8 25  4  0
  9 15  4  0
  9 17  1  0
 10 21  4  0
 11 25  4  0
 12 23  4  0
 13 20  4  0
 13 26  4  0
 14 19  4  0
 17 18  4  0
 17 24  4  0
 19 23  4  0
 20 24  4  0
 23 26  1  0
M  END
$$$$

 Created by Python create_sdf_string function

 26 30  0  0  0  0  0  0  0  0999 V2000
   10.0084   -1.8019   23.4945 C   0  0  0  0  0  0  0  0  0  0  0  0
   10.0005   -4.2520   16.5631 C   0  0  0  0  0  0  0  0  0  0  0  0
   10.2759   -4.0036   17.8845 C   0  0  0  0  0  0  0  0  0  0  0  0
    8.5652    1.5478   25.3778 N   0  0  0  0  0  0  0  0  0  0  0  0
    6.8048   -7.5457   17.8752 C   0  0  0  0  0  0  0  0  0  0  0  0
    6.1721   -8.2186   15.9886 N   0  0  0  0  0  0  0  0  0  0  0  0
   11.1764   -2.6600   19.5604 C   0  0  0  0  0  0  0  0  0  0  0  0
    9.5491   -0.6380   24.1912 C   0  0  0  0  0  0  0  0  0  0  0  0
    7.5337   -6.9256   16.9519 C   0  0  0  0  0  0  0  0  0  0  0  0
    9.6782    0.5671   23.5143 C   0  0  0  0  0  0  0  0  0  0  0  0
    8.4532    0.3482   26.0821 C   0  0  0  0  0  0  0  0  0  0  0  0
   10.4239   -1.7677   22.2230 N   0  0  0  0  0  0  0  0  0  0  0  0
    9.9468   -4.5953   20.1709 C   0  0  0  0  0  0  0  0  0  0  0  0
   10.0366   -3.0590   23.9864 N   0  0  0  0  0  0  0  0  0  0  0  0
    7.1191   -7.3636   15.7739 C   0  0  0  0  0  0  0  0  0  0  0  0
    5.9612   -8.3203   17.2732 N   0  0  0  0  0  0  0  0  0  0  0  0
    8.5296   -5.9814   17.1841 C   0  0  0  0  0  0  0  0  0  0  0  0
    9.1527   -5.2118   16.2116 C   0  0  0  0  0  0  0  0  0  0  0  0
   10.3364   -3.8368   22.9255 O   0  0  0  0  0  0  0  0  0  0  0  0
    9.6947   -4.8407   18.8534 C   0  0  0  0  0  0  0  0  0  0  0  0
    9.1596    1.7042   24.1381 C   0  0  0  0  0  0  0  0  0  0  0  0
   11.0456   -2.9774   18.2694 N   0  0  0  0  0  0  0  0  0  0  0  0
   10.4788   -3.0457   21.8593 C   0  0  0  0  0  0  0  0  0  0  0  0
    8.8693   -5.8099   18.4657 N   0  0  0  0  0  0  0  0  0  0  0  0
    8.9892   -0.7926   25.4573 C   0  0  0  0  0  0  0  0  0  0  0  0
   10.5677   -3.4462   20.5323 C   0  0  0  0  0  0  0  0  0  0  0  0
  1  8  1  0
  1 12  4  0
  1 14  4  0
  2  3  4  0
  2 18  4  0
  3 20  4  0
  3 22  4  0
  4 11  4  0
  4 21  4  0
  5  9  4  0
  5 16  4  0
  6 15  4  0
  6 16  4  0
  7 22  4  0
  7 26  4  0
  8 10  4  0
  8 25  4  0
  9 15  4  0
  9 17  1  0
 10 21  4  0
 11 25  4  0
 12 23  4  0
 13 20  4  0
 13 26  4  0
 14 19  4  0
 17 18  4  0
 17 24  4  0
 19 23  4  0
 20 24  4  0
 23 26  1  0
M  END
$$$$

 Created by Python create_sdf_string function

 26 30  0  0  0  0  0  0  0  0999 V2000
   10.0084   -1.8019   23.4945 C   0  0  0  0  0  0  0  0  0  0  0  0
   10.0005   -4.2520   16.5631 C   0  0  0  0  0  0  0  0  0  0  0  0
   10.2759   -4.0036   17.8845 C   0  0  0  0  0  0  0  0  0  0  0  0
    8.5652    1.5478   25.3778 N   0  0  0  0  0  0  0  0  0  0  0  0
    6.8048   -7.5457   17.8752 C   0  0  0  0  0  0  0  0  0  0  0  0
    6.1721   -8.2186   15.9886 N   0  0  0  0  0  0  0  0  0  0  0  0
   11.1764   -2.6600   19.5604 C   0  0  0  0  0  0  0  0  0  0  0  0
    9.5491   -0.6380   24.1912 C   0  0  0  0  0  0  0  0  0  0  0  0
    7.5337   -6.9256   16.9519 C   0  0  0  0  0  0  0  0  0  0  0  0
    9.6782    0.5671   23.5143 C   0  0  0  0  0  0  0  0  0  0  0  0
    8.4532    0.3482   26.0821 C   0  0  0  0  0  0  0  0  0  0  0  0
   10.4239   -1.7677   22.2230 N   0  0  0  0  0  0  0  0  0  0  0  0
    9.9468   -4.5953   20.1709 C   0  0  0  0  0  0  0  0  0  0  0  0
   10.0366   -3.0590   23.9864 N   0  0  0  0  0  0  0  0  0  0  0  0
    7.1191   -7.3636   15.7739 C   0  0  0  0  0  0  0  0  0  0  0  0
    5.9612   -8.3203   17.2732 N   0  0  0  0  0  0  0  0  0  0  0  0
    8.5296   -5.9814   17.1841 C   0  0  0  0  0  0  0  0  0  0  0  0
    9.1527   -5.2118   16.2116 C   0  0  0  0  0  0  0  0  0  0  0  0
   10.3364   -3.8368   22.9255 O   0  0  0  0  0  0  0  0  0  0  0  0
    9.6947   -4.8407   18.8534 C   0  0  0  0  0  0  0  0  0  0  0  0
    9.1596    1.7042   24.1381 C   0  0  0  0  0  0  0  0  0  0  0  0
   11.0456   -2.9774   18.2694 N   0  0  0  0  0  0  0  0  0  0  0  0
   10.4788   -3.0457   21.8593 C   0  0  0  0  0  0  0  0  0  0  0  0
    8.8693   -5.8099   18.4657 N   0  0  0  0  0  0  0  0  0  0  0  0
    8.9892   -0.7926   25.4573 C   0  0  0  0  0  0  0  0  0  0  0  0
   10.5677   -3.4462   20.5323 C   0  0  0  0  0  0  0  0  0  0  0  0
  1  8  1  0
  1 12  4  0
  1 14  4  0
  2  3  4  0
  2 18  4  0
  3 20  4  0
  3 22  4  0
  4 11  4  0
  4 21  4  0
  5  9  4  0
  5 16  4  0
  6 15  4  0
  6 16  4  0
  7 22  4  0
  7 26  4  0
  8 10  4  0
  8 25  4  0
  9 15  4  0
  9 17  1  0
 10 21  4  0
 11 25  4  0
 12 23  4  0
 13 20  4  0
 13 26  4  0
 14 19  4  0
 17 18  4  0
 17 24  4  0
 19 23  4  0
 20 24  4  0
 23 26  1  0
M  END
$$$$

 Created by Python create_sdf_string function

 26 30  0  0  0  0  0  0  0  0999 V2000
   10.0084   -1.8019   23.4945 C   0  0  0  0  0  0  0  0  0  0  0  0
   10.0005   -4.2520   16.5631 C   0  0  0  0  0  0  0  0  0  0  0  0
   10.2759   -4.0036   17.8845 C   0  0  0  0  0  0  0  0  0  0  0  0
    8.5652    1.5478   25.3778 N   0  0  0  0  0  0  0  0  0  0  0  0
    6.8048   -7.5457   17.8752 C   0  0  0  0  0  0  0  0  0  0  0  0
    6.1721   -8.2186   15.9886 N   0  0  0  0  0  0  0  0  0  0  0  0
   11.1764   -2.6600   19.5604 C   0  0  0  0  0  0  0  0  0  0  0  0
    9.5491   -0.6380   24.1912 C   0  0  0  0  0  0  0  0  0  0  0  0
    7.5337   -6.9256   16.9519 C   0  0  0  0  0  0  0  0  0  0  0  0
    9.6782    0.5671   23.5143 C   0  0  0  0  0  0  0  0  0  0  0  0
    8.4532    0.3482   26.0821 C   0  0  0  0  0  0  0  0  0  0  0  0
   10.4239   -1.7677   22.2230 N   0  0  0  0  0  0  0  0  0  0  0  0
    9.9468   -4.5953   20.1709 C   0  0  0  0  0  0  0  0  0  0  0  0
   10.0366   -3.0590   23.9864 N   0  0  0  0  0  0  0  0  0  0  0  0
    7.1191   -7.3636   15.7739 C   0  0  0  0  0  0  0  0  0  0  0  0
    5.9612   -8.3203   17.2732 N   0  0  0  0  0  0  0  0  0  0  0  0
    8.5296   -5.9814   17.1841 C   0  0  0  0  0  0  0  0  0  0  0  0
    9.1527   -5.2118   16.2116 C   0  0  0  0  0  0  0  0  0  0  0  0
   10.3364   -3.8368   22.9255 O   0  0  0  0  0  0  0  0  0  0  0  0
    9.6947   -4.8407   18.8534 C   0  0  0  0  0  0  0  0  0  0  0  0
    9.1596    1.7042   24.1381 C   0  0  0  0  0  0  0  0  0  0  0  0
   11.0456   -2.9774   18.2694 N   0  0  0  0  0  0  0  0  0  0  0  0
   10.4788   -3.0457   21.8593 C   0  0  0  0  0  0  0  0  0  0  0  0
    8.8693   -5.8099   18.4657 N   0  0  0  0  0  0  0  0  0  0  0  0
    8.9892   -0.7926   25.4573 C   0  0  0  0  0  0  0  0  0  0  0  0
   10.5677   -3.4462   20.5323 C   0  0  0  0  0  0  0  0  0  0  0  0
  1  8  1  0
  1 12  4  0
  1 14  4  0
  2  3  4  0
  2 18  4  0
  3 20  4  0
  3 22  4  0
  4 11  4  0
  4 21  4  0
  5  9  4  0
  5 16  4  0
  6 15  4  0
  6 16  4  0
  7 22  4  0
  7 26  4  0
  8 10  4  0
  8 25  4  0
  9 15  4  0
  9 17  1  0
 10 21  4  0
 11 25  4  0
 12 23  4  0
 13 20  4  0
 13 26  4  0
 14 19  4  0
 17 18  4  0
 17 24  4  0
 19 23  4  0
 20 24  4  0
 23 26  1  0
M  END
$$$$

 Created by Python create_sdf_string function

 26 30  0  0  0  0  0  0  0  0999 V2000
   10.0084   -1.8019   23.4945 C   0  0  0  0  0  0  0  0  0  0  0  0
   10.0005   -4.2520   16.5631 C   0  0  0  0  0  0  0  0  0  0  0  0
   10.2759   -4.0036   17.8845 C   0  0  0  0  0  0  0  0  0  0  0  0
    8.5652    1.5478   25.3778 N   0  0  0  0  0  0  0  0  0  0  0  0
    6.8048   -7.5457   17.8752 C   0  0  0  0  0  0  0  0  0  0  0  0
    6.1721   -8.2186   15.9886 N   0  0  0  0  0  0  0  0  0  0  0  0
   11.1764   -2.6600   19.5604 C   0  0  0  0  0  0  0  0  0  0  0  0
    9.5491   -0.6380   24.1912 C   0  0  0  0  0  0  0  0  0  0  0  0
    7.5337   -6.9256   16.9519 C   0  0  0  0  0  0  0  0  0  0  0  0
    9.6782    0.5671   23.5143 C   0  0  0  0  0  0  0  0  0  0  0  0
    8.4532    0.3482   26.0821 C   0  0  0  0  0  0  0  0  0  0  0  0
   10.4239   -1.7677   22.2230 N   0  0  0  0  0  0  0  0  0  0  0  0
    9.9468   -4.5953   20.1709 C   0  0  0  0  0  0  0  0  0  0  0  0
   10.0366   -3.0590   23.9864 N   0  0  0  0  0  0  0  0  0  0  0  0
    7.1191   -7.3636   15.7739 C   0  0  0  0  0  0  0  0  0  0  0  0
    5.9612   -8.3203   17.2732 N   0  0  0  0  0  0  0  0  0  0  0  0
    8.5296   -5.9814   17.1841 C   0  0  0  0  0  0  0  0  0  0  0  0
    9.1527   -5.2118   16.2116 C   0  0  0  0  0  0  0  0  0  0  0  0
   10.3364   -3.8368   22.9255 O   0  0  0  0  0  0  0  0  0  0  0  0
    9.6947   -4.8407   18.8534 C   0  0  0  0  0  0  0  0  0  0  0  0
    9.1596    1.7042   24.1381 C   0  0  0  0  0  0  0  0  0  0  0  0
   11.0456   -2.9774   18.2694 N   0  0  0  0  0  0  0  0  0  0  0  0
   10.4788   -3.0457   21.8593 C   0  0  0  0  0  0  0  0  0  0  0  0
    8.8693   -5.8099   18.4657 N   0  0  0  0  0  0  0  0  0  0  0  0
    8.9892   -0.7926   25.4573 C   0  0  0  0  0  0  0  0  0  0  0  0
   10.5677   -3.4462   20.5323 C   0  0  0  0  0  0  0  0  0  0  0  0
  1  8  1  0
  1 12  4  0
  1 14  4  0
  2  3  4  0
  2 18  4  0
  3 20  4  0
  3 22  4  0
  4 11  4  0
  4 21  4  0
  5  9  4  0
  5 16  4  0
  6 15  4  0
  6 16  4  0
  7 22  4  0
  7 26  4  0
  8 10  4  0
  8 25  4  0
  9 15  4  0
  9 17  1  0
 10 21  4  0
 11 25  4  0
 12 23  4  0
 13 20  4  0
 13 26  4  0
 14 19  4  0
 17 18  4  0
 17 24  4  0
 19 23  4  0
 20 24  4  0
 23 26  1  0
M  END
$$$$

 Created by Python create_sdf_string function

 26 30  0  0  0  0  0  0  0  0999 V2000
   10.0084   -1.8019   23.4945 C   0  0  0  0  0  0  0  0  0  0  0  0
   10.0005   -4.2520   16.5631 C   0  0  0  0  0  0  0  0  0  0  0  0
   10.2759   -4.0036   17.8845 C   0  0  0  0  0  0  0  0  0  0  0  0
    8.5652    1.5478   25.3778 N   0  0  0  0  0  0  0  0  0  0  0  0
    6.8048   -7.5457   17.8752 C   0  0  0  0  0  0  0  0  0  0  0  0
    6.1721   -8.2186   15.9886 N   0  0  0  0  0  0  0  0  0  0  0  0
   11.1764   -2.6600   19.5604 C   0  0  0  0  0  0  0  0  0  0  0  0
    9.5491   -0.6380   24.1912 C   0  0  0  0  0  0  0  0  0  0  0  0
    7.5337   -6.9256   16.9519 C   0  0  0  0  0  0  0  0  0  0  0  0
    9.6782    0.5671   23.5143 C   0  0  0  0  0  0  0  0  0  0  0  0
    8.4532    0.3482   26.0821 C   0  0  0  0  0  0  0  0  0  0  0  0
   10.4239   -1.7677   22.2230 N   0  0  0  0  0  0  0  0  0  0  0  0
    9.9468   -4.5953   20.1709 C   0  0  0  0  0  0  0  0  0  0  0  0
   10.0366   -3.0590   23.9864 N   0  0  0  0  0  0  0  0  0  0  0  0
    7.1191   -7.3636   15.7739 C   0  0  0  0  0  0  0  0  0  0  0  0
    5.9612   -8.3203   17.2732 N   0  0  0  0  0  0  0  0  0  0  0  0
    8.5296   -5.9814   17.1841 C   0  0  0  0  0  0  0  0  0  0  0  0
    9.1527   -5.2118   16.2116 C   0  0  0  0  0  0  0  0  0  0  0  0
   10.3364   -3.8368   22.9255 O   0  0  0  0  0  0  0  0  0  0  0  0
    9.6947   -4.8407   18.8534 C   0  0  0  0  0  0  0  0  0  0  0  0
    9.1596    1.7042   24.1381 C   0  0  0  0  0  0  0  0  0  0  0  0
   11.0456   -2.9774   18.2694 N   0  0  0  0  0  0  0  0  0  0  0  0
   10.4788   -3.0457   21.8593 C   0  0  0  0  0  0  0  0  0  0  0  0
    8.8693   -5.8099   18.4657 N   0  0  0  0  0  0  0  0  0  0  0  0
    8.9892   -0.7926   25.4573 C   0  0  0  0  0  0  0  0  0  0  0  0
   10.5677   -3.4462   20.5323 C   0  0  0  0  0  0  0  0  0  0  0  0
  1  8  1  0
  1 12  4  0
  1 14  4  0
  2  3  4  0
  2 18  4  0
  3 20  4  0
  3 22  4  0
  4 11  4  0
  4 21  4  0
  5  9  4  0
  5 16  4  0
  6 15  4  0
  6 16  4  0
  7 22  4  0
  7 26  4  0
  8 10  4  0
  8 25  4  0
  9 15  4  0
  9 17  1  0
 10 21  4  0
 11 25  4  0
 12 23  4  0
 13 20  4  0
 13 26  4  0
 14 19  4  0
 17 18  4  0
 17 24  4  0
 19 23  4  0
 20 24  4  0
 23 26  1  0
M  END
$$$$

 Created by Python create_sdf_string function

 26 30  0  0  0  0  0  0  0  0999 V2000
   10.0084   -1.8019   23.4945 C   0  0  0  0  0  0  0  0  0  0  0  0
   10.0005   -4.2520   16.5631 C   0  0  0  0  0  0  0  0  0  0  0  0
   10.2759   -4.0036   17.8845 C   0  0  0  0  0  0  0  0  0  0  0  0
    8.5652    1.5478   25.3778 N   0  0  0  0  0  0  0  0  0  0  0  0
    6.8048   -7.5457   17.8752 C   0  0  0  0  0  0  0  0  0  0  0  0
    6.1721   -8.2186   15.9886 N   0  0  0  0  0  0  0  0  0  0  0  0
   11.1764   -2.6600   19.5604 C   0  0  0  0  0  0  0  0  0  0  0  0
    9.5491   -0.6380   24.1912 C   0  0  0  0  0  0  0  0  0  0  0  0
    7.5337   -6.9256   16.9519 C   0  0  0  0  0  0  0  0  0  0  0  0
    9.6782    0.5671   23.5143 C   0  0  0  0  0  0  0  0  0  0  0  0
    8.4532    0.3482   26.0821 C   0  0  0  0  0  0  0  0  0  0  0  0
   10.4239   -1.7677   22.2230 N   0  0  0  0  0  0  0  0  0  0  0  0
    9.9468   -4.5953   20.1709 C   0  0  0  0  0  0  0  0  0  0  0  0
   10.0366   -3.0590   23.9864 N   0  0  0  0  0  0  0  0  0  0  0  0
    7.1191   -7.3636   15.7739 C   0  0  0  0  0  0  0  0  0  0  0  0
    5.9612   -8.3203   17.2732 N   0  0  0  0  0  0  0  0  0  0  0  0
    8.5296   -5.9814   17.1841 C   0  0  0  0  0  0  0  0  0  0  0  0
    9.1527   -5.2118   16.2116 C   0  0  0  0  0  0  0  0  0  0  0  0
   10.3364   -3.8368   22.9255 O   0  0  0  0  0  0  0  0  0  0  0  0
    9.6947   -4.8407   18.8534 C   0  0  0  0  0  0  0  0  0  0  0  0
    9.1596    1.7042   24.1381 C   0  0  0  0  0  0  0  0  0  0  0  0
   11.0456   -2.9774   18.2694 N   0  0  0  0  0  0  0  0  0  0  0  0
   10.4788   -3.0457   21.8593 C   0  0  0  0  0  0  0  0  0  0  0  0
    8.8693   -5.8099   18.4657 N   0  0  0  0  0  0  0  0  0  0  0  0
    8.9892   -0.7926   25.4573 C   0  0  0  0  0  0  0  0  0  0  0  0
   10.5677   -3.4462   20.5323 C   0  0  0  0  0  0  0  0  0  0  0  0
  1  8  1  0
  1 12  4  0
  1 14  4  0
  2  3  4  0
  2 18  4  0
  3 20  4  0
  3 22  4  0
  4 11  4  0
  4 21  4  0
  5  9  4  0
  5 16  4  0
  6 15  4  0
  6 16  4  0
  7 22  4  0
  7 26  4  0
  8 10  4  0
  8 25  4  0
  9 15  4  0
  9 17  1  0
 10 21  4  0
 11 25  4  0
 12 23  4  0
 13 20  4  0
 13 26  4  0
 14 19  4  0
 17 18  4  0
 17 24  4  0
 19 23  4  0
 20 24  4  0
 23 26  1  0
M  END
$$$$

 Created by Python create_sdf_string function

 26 30  0  0  0  0  0  0  0  0999 V2000
   10.0084   -1.8019   23.4945 C   0  0  0  0  0  0  0  0  0  0  0  0
   10.0005   -4.2520   16.5631 C   0  0  0  0  0  0  0  0  0  0  0  0
   10.2759   -4.0036   17.8845 C   0  0  0  0  0  0  0  0  0  0  0  0
    8.5652    1.5478   25.3778 N   0  0  0  0  0  0  0  0  0  0  0  0
    6.8048   -7.5457   17.8752 C   0  0  0  0  0  0  0  0  0  0  0  0
    6.1721   -8.2186   15.9886 N   0  0  0  0  0  0  0  0  0  0  0  0
   11.1764   -2.6600   19.5604 C   0  0  0  0  0  0  0  0  0  0  0  0
    9.5491   -0.6380   24.1912 C   0  0  0  0  0  0  0  0  0  0  0  0
    7.5337   -6.9256   16.9519 C   0  0  0  0  0  0  0  0  0  0  0  0
    9.6782    0.5671   23.5143 C   0  0  0  0  0  0  0  0  0  0  0  0
    8.4532    0.3482   26.0821 C   0  0  0  0  0  0  0  0  0  0  0  0
   10.4239   -1.7677   22.2230 N   0  0  0  0  0  0  0  0  0  0  0  0
    9.9468   -4.5953   20.1709 C   0  0  0  0  0  0  0  0  0  0  0  0
   10.0366   -3.0590   23.9864 N   0  0  0  0  0  0  0  0  0  0  0  0
    7.1191   -7.3636   15.7739 C   0  0  0  0  0  0  0  0  0  0  0  0
    5.9612   -8.3203   17.2732 N   0  0  0  0  0  0  0  0  0  0  0  0
    8.5296   -5.9814   17.1841 C   0  0  0  0  0  0  0  0  0  0  0  0
    9.1527   -5.2118   16.2116 C   0  0  0  0  0  0  0  0  0  0  0  0
   10.3364   -3.8368   22.9255 O   0  0  0  0  0  0  0  0  0  0  0  0
    9.6947   -4.8407   18.8534 C   0  0  0  0  0  0  0  0  0  0  0  0
    9.1596    1.7042   24.1381 C   0  0  0  0  0  0  0  0  0  0  0  0
   11.0456   -2.9774   18.2694 N   0  0  0  0  0  0  0  0  0  0  0  0
   10.4788   -3.0457   21.8593 C   0  0  0  0  0  0  0  0  0  0  0  0
    8.8693   -5.8099   18.4657 N   0  0  0  0  0  0  0  0  0  0  0  0
    8.9892   -0.7926   25.4573 C   0  0  0  0  0  0  0  0  0  0  0  0
   10.5677   -3.4462   20.5323 C   0  0  0  0  0  0  0  0  0  0  0  0
  1  8  1  0
  1 12  4  0
  1 14  4  0
  2  3  4  0
  2 18  4  0
  3 20  4  0
  3 22  4  0
  4 11  4  0
  4 21  4  0
  5  9  4  0
  5 16  4  0
  6 15  4  0
  6 16  4  0
  7 22  4  0
  7 26  4  0
  8 10  4  0
  8 25  4  0
  9 15  4  0
  9 17  1  0
 10 21  4  0
 11 25  4  0
 12 23  4  0
 13 20  4  0
 13 26  4  0
 14 19  4  0
 17 18  4  0
 17 24  4  0
 19 23  4  0
 20 24  4  0
 23 26  1  0
M  END
$$$$

 Created by Python create_sdf_string function

 26 30  0  0  0  0  0  0  0  0999 V2000
   10.0084   -1.8019   23.4945 C   0  0  0  0  0  0  0  0  0  0  0  0
   10.0005   -4.2520   16.5631 C   0  0  0  0  0  0  0  0  0  0  0  0
   10.2759   -4.0036   17.8845 C   0  0  0  0  0  0  0  0  0  0  0  0
    8.5652    1.5478   25.3778 N   0  0  0  0  0  0  0  0  0  0  0  0
    6.8048   -7.5457   17.8752 C   0  0  0  0  0  0  0  0  0  0  0  0
    6.1721   -8.2186   15.9886 N   0  0  0  0  0  0  0  0  0  0  0  0
   11.1764   -2.6600   19.5604 C   0  0  0  0  0  0  0  0  0  0  0  0
    9.5491   -0.6380   24.1912 C   0  0  0  0  0  0  0  0  0  0  0  0
    7.5337   -6.9256   16.9519 C   0  0  0  0  0  0  0  0  0  0  0  0
    9.6782    0.5671   23.5143 C   0  0  0  0  0  0  0  0  0  0  0  0
    8.4532    0.3482   26.0821 C   0  0  0  0  0  0  0  0  0  0  0  0
   10.4239   -1.7677   22.2230 N   0  0  0  0  0  0  0  0  0  0  0  0
    9.9468   -4.5953   20.1709 C   0  0  0  0  0  0  0  0  0  0  0  0
   10.0366   -3.0590   23.9864 N   0  0  0  0  0  0  0  0  0  0  0  0
    7.1191   -7.3636   15.7739 C   0  0  0  0  0  0  0  0  0  0  0  0
    5.9612   -8.3203   17.2732 N   0  0  0  0  0  0  0  0  0  0  0  0
    8.5296   -5.9814   17.1841 C   0  0  0  0  0  0  0  0  0  0  0  0
    9.1527   -5.2118   16.2116 C   0  0  0  0  0  0  0  0  0  0  0  0
   10.3364   -3.8368   22.9255 O   0  0  0  0  0  0  0  0  0  0  0  0
    9.6947   -4.8407   18.8534 C   0  0  0  0  0  0  0  0  0  0  0  0
    9.1596    1.7042   24.1381 C   0  0  0  0  0  0  0  0  0  0  0  0
   11.0456   -2.9774   18.2694 N   0  0  0  0  0  0  0  0  0  0  0  0
   10.4788   -3.0457   21.8593 C   0  0  0  0  0  0  0  0  0  0  0  0
    8.8693   -5.8099   18.4657 N   0  0  0  0  0  0  0  0  0  0  0  0
    8.9892   -0.7926   25.4573 C   0  0  0  0  0  0  0  0  0  0  0  0
   10.5677   -3.4462   20.5323 C   0  0  0  0  0  0  0  0  0  0  0  0
  1  8  1  0
  1 12  4  0
  1 14  4  0
  2  3  4  0
  2 18  4  0
  3 20  4  0
  3 22  4  0
  4 11  4  0
  4 21  4  0
  5  9  4  0
  5 16  4  0
  6 15  4  0
  6 16  4  0
  7 22  4  0
  7 26  4  0
  8 10  4  0
  8 25  4  0
  9 15  4  0
  9 17  1  0
 10 21  4  0
 11 25  4  0
 12 23  4  0
 13 20  4  0
 13 26  4  0
 14 19  4  0
 17 18  4  0
 17 24  4  0
 19 23  4  0
 20 24  4  0
 23 26  1  0
M  END
$$$$

 Created by Python create_sdf_string function

 26 30  0  0  0  0  0  0  0  0999 V2000
   10.0084   -1.8019   23.4945 C   0  0  0  0  0  0  0  0  0  0  0  0
   10.0005   -4.2520   16.5631 C   0  0  0  0  0  0  0  0  0  0  0  0
   10.2759   -4.0036   17.8845 C   0  0  0  0  0  0  0  0  0  0  0  0
    8.5652    1.5478   25.3778 N   0  0  0  0  0  0  0  0  0  0  0  0
    6.8048   -7.5457   17.8752 C   0  0  0  0  0  0  0  0  0  0  0  0
    6.1721   -8.2186   15.9886 N   0  0  0  0  0  0  0  0  0  0  0  0
   11.1764   -2.6600   19.5604 C   0  0  0  0  0  0  0  0  0  0  0  0
    9.5491   -0.6380   24.1912 C   0  0  0  0  0  0  0  0  0  0  0  0
    7.5337   -6.9256   16.9519 C   0  0  0  0  0  0  0  0  0  0  0  0
    9.6782    0.5671   23.5143 C   0  0  0  0  0  0  0  0  0  0  0  0
    8.4532    0.3482   26.0821 C   0  0  0  0  0  0  0  0  0  0  0  0
   10.4239   -1.7677   22.2230 N   0  0  0  0  0  0  0  0  0  0  0  0
    9.9468   -4.5953   20.1709 C   0  0  0  0  0  0  0  0  0  0  0  0
   10.0366   -3.0590   23.9864 N   0  0  0  0  0  0  0  0  0  0  0  0
    7.1191   -7.3636   15.7739 C   0  0  0  0  0  0  0  0  0  0  0  0
    5.9612   -8.3203   17.2732 N   0  0  0  0  0  0  0  0  0  0  0  0
    8.5296   -5.9814   17.1841 C   0  0  0  0  0  0  0  0  0  0  0  0
    9.1527   -5.2118   16.2116 C   0  0  0  0  0  0  0  0  0  0  0  0
   10.3364   -3.8368   22.9255 O   0  0  0  0  0  0  0  0  0  0  0  0
    9.6947   -4.8407   18.8534 C   0  0  0  0  0  0  0  0  0  0  0  0
    9.1596    1.7042   24.1381 C   0  0  0  0  0  0  0  0  0  0  0  0
   11.0456   -2.9774   18.2694 N   0  0  0  0  0  0  0  0  0  0  0  0
   10.4788   -3.0457   21.8593 C   0  0  0  0  0  0  0  0  0  0  0  0
    8.8693   -5.8099   18.4657 N   0  0  0  0  0  0  0  0  0  0  0  0
    8.9892   -0.7926   25.4573 C   0  0  0  0  0  0  0  0  0  0  0  0
   10.5677   -3.4462   20.5323 C   0  0  0  0  0  0  0  0  0  0  0  0
  1  8  1  0
  1 12  4  0
  1 14  4  0
  2  3  4  0
  2 18  4  0
  3 20  4  0
  3 22  4  0
  4 11  4  0
  4 21  4  0
  5  9  4  0
  5 16  4  0
  6 15  4  0
  6 16  4  0
  7 22  4  0
  7 26  4  0
  8 10  4  0
  8 25  4  0
  9 15  4  0
  9 17  1  0
 10 21  4  0
 11 25  4  0
 12 23  4  0
 13 20  4  0
 13 26  4  0
 14 19  4  0
 17 18  4  0
 17 24  4  0
 19 23  4  0
 20 24  4  0
 23 26  1  0
M  END
$$$$

 Created by Python create_sdf_string function

 26 30  0  0  0  0  0  0  0  0999 V2000
   10.0084   -1.8019   23.4945 C   0  0  0  0  0  0  0  0  0  0  0  0
   10.0005   -4.2520   16.5631 C   0  0  0  0  0  0  0  0  0  0  0  0
   10.2759   -4.0036   17.8845 C   0  0  0  0  0  0  0  0  0  0  0  0
    8.5652    1.5478   25.3778 N   0  0  0  0  0  0  0  0  0  0  0  0
    6.8048   -7.5457   17.8752 C   0  0  0  0  0  0  0  0  0  0  0  0
    6.1721   -8.2186   15.9886 N   0  0  0  0  0  0  0  0  0  0  0  0
   11.1764   -2.6600   19.5604 C   0  0  0  0  0  0  0  0  0  0  0  0
    9.5491   -0.6380   24.1912 C   0  0  0  0  0  0  0  0  0  0  0  0
    7.5337   -6.9256   16.9519 C   0  0  0  0  0  0  0  0  0  0  0  0
    9.6782    0.5671   23.5143 C   0  0  0  0  0  0  0  0  0  0  0  0
    8.4532    0.3482   26.0821 C   0  0  0  0  0  0  0  0  0  0  0  0
   10.4239   -1.7677   22.2230 N   0  0  0  0  0  0  0  0  0  0  0  0
    9.9468   -4.5953   20.1709 C   0  0  0  0  0  0  0  0  0  0  0  0
   10.0366   -3.0590   23.9864 N   0  0  0  0  0  0  0  0  0  0  0  0
    7.1191   -7.3636   15.7739 C   0  0  0  0  0  0  0  0  0  0  0  0
    5.9612   -8.3203   17.2732 N   0  0  0  0  0  0  0  0  0  0  0  0
    8.5296   -5.9814   17.1841 C   0  0  0  0  0  0  0  0  0  0  0  0
    9.1527   -5.2118   16.2116 C   0  0  0  0  0  0  0  0  0  0  0  0
   10.3364   -3.8368   22.9255 O   0  0  0  0  0  0  0  0  0  0  0  0
    9.6947   -4.8407   18.8534 C   0  0  0  0  0  0  0  0  0  0  0  0
    9.1596    1.7042   24.1381 C   0  0  0  0  0  0  0  0  0  0  0  0
   11.0456   -2.9774   18.2694 N   0  0  0  0  0  0  0  0  0  0  0  0
   10.4788   -3.0457   21.8593 C   0  0  0  0  0  0  0  0  0  0  0  0
    8.8693   -5.8099   18.4657 N   0  0  0  0  0  0  0  0  0  0  0  0
    8.9892   -0.7926   25.4573 C   0  0  0  0  0  0  0  0  0  0  0  0
   10.5677   -3.4462   20.5323 C   0  0  0  0  0  0  0  0  0  0  0  0
  1  8  1  0
  1 12  4  0
  1 14  4  0
  2  3  4  0
  2 18  4  0
  3 20  4  0
  3 22  4  0
  4 11  4  0
  4 21  4  0
  5  9  4  0
  5 16  4  0
  6 15  4  0
  6 16  4  0
  7 22  4  0
  7 26  4  0
  8 10  4  0
  8 25  4  0
  9 15  4  0
  9 17  1  0
 10 21  4  0
 11 25  4  0
 12 23  4  0
 13 20  4  0
 13 26  4  0
 14 19  4  0
 17 18  4  0
 17 24  4  0
 19 23  4  0
 20 24  4  0
 23 26  1  0
M  END
$$$$

 Created by Python create_sdf_string function

 26 30  0  0  0  0  0  0  0  0999 V2000
   10.0084   -1.8019   23.4945 C   0  0  0  0  0  0  0  0  0  0  0  0
   10.0005   -4.2520   16.5631 C   0  0  0  0  0  0  0  0  0  0  0  0
   10.2759   -4.0036   17.8845 C   0  0  0  0  0  0  0  0  0  0  0  0
    8.5652    1.5478   25.3778 N   0  0  0  0  0  0  0  0  0  0  0  0
    6.8048   -7.5457   17.8752 C   0  0  0  0  0  0  0  0  0  0  0  0
    6.1721   -8.2186   15.9886 N   0  0  0  0  0  0  0  0  0  0  0  0
   11.1764   -2.6600   19.5604 C   0  0  0  0  0  0  0  0  0  0  0  0
    9.5491   -0.6380   24.1912 C   0  0  0  0  0  0  0  0  0  0  0  0
    7.5337   -6.9256   16.9519 C   0  0  0  0  0  0  0  0  0  0  0  0
    9.6782    0.5671   23.5143 C   0  0  0  0  0  0  0  0  0  0  0  0
    8.4532    0.3482   26.0821 C   0  0  0  0  0  0  0  0  0  0  0  0
   10.4239   -1.7677   22.2230 N   0  0  0  0  0  0  0  0  0  0  0  0
    9.9468   -4.5953   20.1709 C   0  0  0  0  0  0  0  0  0  0  0  0
   10.0366   -3.0590   23.9864 N   0  0  0  0  0  0  0  0  0  0  0  0
    7.1191   -7.3636   15.7739 C   0  0  0  0  0  0  0  0  0  0  0  0
    5.9612   -8.3203   17.2732 N   0  0  0  0  0  0  0  0  0  0  0  0
    8.5296   -5.9814   17.1841 C   0  0  0  0  0  0  0  0  0  0  0  0
    9.1527   -5.2118   16.2116 C   0  0  0  0  0  0  0  0  0  0  0  0
   10.3364   -3.8368   22.9255 O   0  0  0  0  0  0  0  0  0  0  0  0
    9.6947   -4.8407   18.8534 C   0  0  0  0  0  0  0  0  0  0  0  0
    9.1596    1.7042   24.1381 C   0  0  0  0  0  0  0  0  0  0  0  0
   11.0456   -2.9774   18.2694 N   0  0  0  0  0  0  0  0  0  0  0  0
   10.4788   -3.0457   21.8593 C   0  0  0  0  0  0  0  0  0  0  0  0
    8.8693   -5.8099   18.4657 N   0  0  0  0  0  0  0  0  0  0  0  0
    8.9892   -0.7926   25.4573 C   0  0  0  0  0  0  0  0  0  0  0  0
   10.5677   -3.4462   20.5323 C   0  0  0  0  0  0  0  0  0  0  0  0
  1  8  1  0
  1 12  4  0
  1 14  4  0
  2  3  4  0
  2 18  4  0
  3 20  4  0
  3 22  4  0
  4 11  4  0
  4 21  4  0
  5  9  4  0
  5 16  4  0
  6 15  4  0
  6 16  4  0
  7 22  4  0
  7 26  4  0
  8 10  4  0
  8 25  4  0
  9 15  4  0
  9 17  1  0
 10 21  4  0
 11 25  4  0
 12 23  4  0
 13 20  4  0
 13 26  4  0
 14 19  4  0
 17 18  4  0
 17 24  4  0
 19 23  4  0
 20 24  4  0
 23 26  1  0
M  END
$$$$

 Created by Python create_sdf_string function

 26 30  0  0  0  0  0  0  0  0999 V2000
   10.0084   -1.8019   23.4945 C   0  0  0  0  0  0  0  0  0  0  0  0
   10.0005   -4.2520   16.5631 C   0  0  0  0  0  0  0  0  0  0  0  0
   10.2759   -4.0036   17.8845 C   0  0  0  0  0  0  0  0  0  0  0  0
    8.5652    1.5478   25.3778 N   0  0  0  0  0  0  0  0  0  0  0  0
    6.8048   -7.5457   17.8752 C   0  0  0  0  0  0  0  0  0  0  0  0
    6.1721   -8.2186   15.9886 N   0  0  0  0  0  0  0  0  0  0  0  0
   11.1764   -2.6600   19.5604 C   0  0  0  0  0  0  0  0  0  0  0  0
    9.5491   -0.6380   24.1912 C   0  0  0  0  0  0  0  0  0  0  0  0
    7.5337   -6.9256   16.9519 C   0  0  0  0  0  0  0  0  0  0  0  0
    9.6782    0.5671   23.5143 C   0  0  0  0  0  0  0  0  0  0  0  0
    8.4532    0.3482   26.0821 C   0  0  0  0  0  0  0  0  0  0  0  0
   10.4239   -1.7677   22.2230 N   0  0  0  0  0  0  0  0  0  0  0  0
    9.9468   -4.5953   20.1709 C   0  0  0  0  0  0  0  0  0  0  0  0
   10.0366   -3.0590   23.9864 N   0  0  0  0  0  0  0  0  0  0  0  0
    7.1191   -7.3636   15.7739 C   0  0  0  0  0  0  0  0  0  0  0  0
    5.9612   -8.3203   17.2732 N   0  0  0  0  0  0  0  0  0  0  0  0
    8.5296   -5.9814   17.1841 C   0  0  0  0  0  0  0  0  0  0  0  0
    9.1527   -5.2118   16.2116 C   0  0  0  0  0  0  0  0  0  0  0  0
   10.3364   -3.8368   22.9255 O   0  0  0  0  0  0  0  0  0  0  0  0
    9.6947   -4.8407   18.8534 C   0  0  0  0  0  0  0  0  0  0  0  0
    9.1596    1.7042   24.1381 C   0  0  0  0  0  0  0  0  0  0  0  0
   11.0456   -2.9774   18.2694 N   0  0  0  0  0  0  0  0  0  0  0  0
   10.4788   -3.0457   21.8593 C   0  0  0  0  0  0  0  0  0  0  0  0
    8.8693   -5.8099   18.4657 N   0  0  0  0  0  0  0  0  0  0  0  0
    8.9892   -0.7926   25.4573 C   0  0  0  0  0  0  0  0  0  0  0  0
   10.5677   -3.4462   20.5323 C   0  0  0  0  0  0  0  0  0  0  0  0
  1  8  1  0
  1 12  4  0
  1 14  4  0
  2  3  4  0
  2 18  4  0
  3 20  4  0
  3 22  4  0
  4 11  4  0
  4 21  4  0
  5  9  4  0
  5 16  4  0
  6 15  4  0
  6 16  4  0
  7 22  4  0
  7 26  4  0
  8 10  4  0
  8 25  4  0
  9 15  4  0
  9 17  1  0
 10 21  4  0
 11 25  4  0
 12 23  4  0
 13 20  4  0
 13 26  4  0
 14 19  4  0
 17 18  4  0
 17 24  4  0
 19 23  4  0
 20 24  4  0
 23 26  1  0
M  END
$$$$

 Created by Python create_sdf_string function

 26 30  0  0  0  0  0  0  0  0999 V2000
   10.0084   -1.8019   23.4945 C   0  0  0  0  0  0  0  0  0  0  0  0
   10.0005   -4.2520   16.5631 C   0  0  0  0  0  0  0  0  0  0  0  0
   10.2759   -4.0036   17.8845 C   0  0  0  0  0  0  0  0  0  0  0  0
    8.5652    1.5478   25.3778 N   0  0  0  0  0  0  0  0  0  0  0  0
    6.8048   -7.5457   17.8752 C   0  0  0  0  0  0  0  0  0  0  0  0
    6.1721   -8.2186   15.9886 N   0  0  0  0  0  0  0  0  0  0  0  0
   11.1764   -2.6600   19.5604 C   0  0  0  0  0  0  0  0  0  0  0  0
    9.5491   -0.6380   24.1912 C   0  0  0  0  0  0  0  0  0  0  0  0
    7.5337   -6.9256   16.9519 C   0  0  0  0  0  0  0  0  0  0  0  0
    9.6782    0.5671   23.5143 C   0  0  0  0  0  0  0  0  0  0  0  0
    8.4532    0.3482   26.0821 C   0  0  0  0  0  0  0  0  0  0  0  0
   10.4239   -1.7677   22.2230 N   0  0  0  0  0  0  0  0  0  0  0  0
    9.9468   -4.5953   20.1709 C   0  0  0  0  0  0  0  0  0  0  0  0
   10.0366   -3.0590   23.9864 N   0  0  0  0  0  0  0  0  0  0  0  0
    7.1191   -7.3636   15.7739 C   0  0  0  0  0  0  0  0  0  0  0  0
    5.9612   -8.3203   17.2732 N   0  0  0  0  0  0  0  0  0  0  0  0
    8.5296   -5.9814   17.1841 C   0  0  0  0  0  0  0  0  0  0  0  0
    9.1527   -5.2118   16.2116 C   0  0  0  0  0  0  0  0  0  0  0  0
   10.3364   -3.8368   22.9255 O   0  0  0  0  0  0  0  0  0  0  0  0
    9.6947   -4.8407   18.8534 C   0  0  0  0  0  0  0  0  0  0  0  0
    9.1596    1.7042   24.1381 C   0  0  0  0  0  0  0  0  0  0  0  0
   11.0456   -2.9774   18.2694 N   0  0  0  0  0  0  0  0  0  0  0  0
   10.4788   -3.0457   21.8593 C   0  0  0  0  0  0  0  0  0  0  0  0
    8.8693   -5.8099   18.4657 N   0  0  0  0  0  0  0  0  0  0  0  0
    8.9892   -0.7926   25.4573 C   0  0  0  0  0  0  0  0  0  0  0  0
   10.5677   -3.4462   20.5323 C   0  0  0  0  0  0  0  0  0  0  0  0
  1  8  1  0
  1 12  4  0
  1 14  4  0
  2  3  4  0
  2 18  4  0
  3 20  4  0
  3 22  4  0
  4 11  4  0
  4 21  4  0
  5  9  4  0
  5 16  4  0
  6 15  4  0
  6 16  4  0
  7 22  4  0
  7 26  4  0
  8 10  4  0
  8 25  4  0
  9 15  4  0
  9 17  1  0
 10 21  4  0
 11 25  4  0
 12 23  4  0
 13 20  4  0
 13 26  4  0
 14 19  4  0
 17 18  4  0
 17 24  4  0
 19 23  4  0
 20 24  4  0
 23 26  1  0
M  END
$$$$

 Created by Python create_sdf_string function

 26 30  0  0  0  0  0  0  0  0999 V2000
   10.0084   -1.8019   23.4945 C   0  0  0  0  0  0  0  0  0  0  0  0
   10.0005   -4.2520   16.5631 C   0  0  0  0  0  0  0  0  0  0  0  0
   10.2759   -4.0036   17.8845 C   0  0  0  0  0  0  0  0  0  0  0  0
    8.5652    1.5478   25.3778 N   0  0  0  0  0  0  0  0  0  0  0  0
    6.8048   -7.5457   17.8752 C   0  0  0  0  0  0  0  0  0  0  0  0
    6.1721   -8.2186   15.9886 N   0  0  0  0  0  0  0  0  0  0  0  0
   11.1764   -2.6600   19.5604 C   0  0  0  0  0  0  0  0  0  0  0  0
    9.5491   -0.6380   24.1912 C   0  0  0  0  0  0  0  0  0  0  0  0
    7.5337   -6.9256   16.9519 C   0  0  0  0  0  0  0  0  0  0  0  0
    9.6782    0.5671   23.5143 C   0  0  0  0  0  0  0  0  0  0  0  0
    8.4532    0.3482   26.0821 C   0  0  0  0  0  0  0  0  0  0  0  0
   10.4239   -1.7677   22.2230 N   0  0  0  0  0  0  0  0  0  0  0  0
    9.9468   -4.5953   20.1709 C   0  0  0  0  0  0  0  0  0  0  0  0
   10.0366   -3.0590   23.9864 N   0  0  0  0  0  0  0  0  0  0  0  0
    7.1191   -7.3636   15.7739 C   0  0  0  0  0  0  0  0  0  0  0  0
    5.9612   -8.3203   17.2732 N   0  0  0  0  0  0  0  0  0  0  0  0
    8.5296   -5.9814   17.1841 C   0  0  0  0  0  0  0  0  0  0  0  0
    9.1527   -5.2118   16.2116 C   0  0  0  0  0  0  0  0  0  0  0  0
   10.3364   -3.8368   22.9255 O   0  0  0  0  0  0  0  0  0  0  0  0
    9.6947   -4.8407   18.8534 C   0  0  0  0  0  0  0  0  0  0  0  0
    9.1596    1.7042   24.1381 C   0  0  0  0  0  0  0  0  0  0  0  0
   11.0456   -2.9774   18.2694 N   0  0  0  0  0  0  0  0  0  0  0  0
   10.4788   -3.0457   21.8593 C   0  0  0  0  0  0  0  0  0  0  0  0
    8.8693   -5.8099   18.4657 N   0  0  0  0  0  0  0  0  0  0  0  0
    8.9892   -0.7926   25.4573 C   0  0  0  0  0  0  0  0  0  0  0  0
   10.5677   -3.4462   20.5323 C   0  0  0  0  0  0  0  0  0  0  0  0
  1  8  1  0
  1 12  4  0
  1 14  4  0
  2  3  4  0
  2 18  4  0
  3 20  4  0
  3 22  4  0
  4 11  4  0
  4 21  4  0
  5  9  4  0
  5 16  4  0
  6 15  4  0
  6 16  4  0
  7 22  4  0
  7 26  4  0
  8 10  4  0
  8 25  4  0
  9 15  4  0
  9 17  1  0
 10 21  4  0
 11 25  4  0
 12 23  4  0
 13 20  4  0
 13 26  4  0
 14 19  4  0
 17 18  4  0
 17 24  4  0
 19 23  4  0
 20 24  4  0
 23 26  1  0
M  END
$$$$

 Created by Python create_sdf_string function

 26 30  0  0  0  0  0  0  0  0999 V2000
   10.0084   -1.8019   23.4945 C   0  0  0  0  0  0  0  0  0  0  0  0
   10.0005   -4.2520   16.5631 C   0  0  0  0  0  0  0  0  0  0  0  0
   10.2759   -4.0036   17.8845 C   0  0  0  0  0  0  0  0  0  0  0  0
    8.5652    1.5478   25.3778 N   0  0  0  0  0  0  0  0  0  0  0  0
    6.8048   -7.5457   17.8752 C   0  0  0  0  0  0  0  0  0  0  0  0
    6.1721   -8.2186   15.9886 N   0  0  0  0  0  0  0  0  0  0  0  0
   11.1764   -2.6600   19.5604 C   0  0  0  0  0  0  0  0  0  0  0  0
    9.5491   -0.6380   24.1912 C   0  0  0  0  0  0  0  0  0  0  0  0
    7.5337   -6.9256   16.9519 C   0  0  0  0  0  0  0  0  0  0  0  0
    9.6782    0.5671   23.5143 C   0  0  0  0  0  0  0  0  0  0  0  0
    8.4532    0.3482   26.0821 C   0  0  0  0  0  0  0  0  0  0  0  0
   10.4239   -1.7677   22.2230 N   0  0  0  0  0  0  0  0  0  0  0  0
    9.9468   -4.5953   20.1709 C   0  0  0  0  0  0  0  0  0  0  0  0
   10.0366   -3.0590   23.9864 N   0  0  0  0  0  0  0  0  0  0  0  0
    7.1191   -7.3636   15.7739 C   0  0  0  0  0  0  0  0  0  0  0  0
    5.9612   -8.3203   17.2732 N   0  0  0  0  0  0  0  0  0  0  0  0
    8.5296   -5.9814   17.1841 C   0  0  0  0  0  0  0  0  0  0  0  0
    9.1527   -5.2118   16.2116 C   0  0  0  0  0  0  0  0  0  0  0  0
   10.3364   -3.8368   22.9255 O   0  0  0  0  0  0  0  0  0  0  0  0
    9.6947   -4.8407   18.8534 C   0  0  0  0  0  0  0  0  0  0  0  0
    9.1596    1.7042   24.1381 C   0  0  0  0  0  0  0  0  0  0  0  0
   11.0456   -2.9774   18.2694 N   0  0  0  0  0  0  0  0  0  0  0  0
   10.4788   -3.0457   21.8593 C   0  0  0  0  0  0  0  0  0  0  0  0
    8.8693   -5.8099   18.4657 N   0  0  0  0  0  0  0  0  0  0  0  0
    8.9892   -0.7926   25.4573 C   0  0  0  0  0  0  0  0  0  0  0  0
   10.5677   -3.4462   20.5323 C   0  0  0  0  0  0  0  0  0  0  0  0
  1  8  1  0
  1 12  4  0
  1 14  4  0
  2  3  4  0
  2 18  4  0
  3 20  4  0
  3 22  4  0
  4 11  4  0
  4 21  4  0
  5  9  4  0
  5 16  4  0
  6 15  4  0
  6 16  4  0
  7 22  4  0
  7 26  4  0
  8 10  4  0
  8 25  4  0
  9 15  4  0
  9 17  1  0
 10 21  4  0
 11 25  4  0
 12 23  4  0
 13 20  4  0
 13 26  4  0
 14 19  4  0
 17 18  4  0
 17 24  4  0
 19 23  4  0
 20 24  4  0
 23 26  1  0
M  END
$$$$

 Created by Python create_sdf_string function

 26 30  0  0  0  0  0  0  0  0999 V2000
   10.0084   -1.8019   23.4945 C   0  0  0  0  0  0  0  0  0  0  0  0
   10.0005   -4.2520   16.5631 C   0  0  0  0  0  0  0  0  0  0  0  0
   10.2759   -4.0036   17.8845 C   0  0  0  0  0  0  0  0  0  0  0  0
    8.5652    1.5478   25.3778 N   0  0  0  0  0  0  0  0  0  0  0  0
    6.8048   -7.5457   17.8752 C   0  0  0  0  0  0  0  0  0  0  0  0
    6.1721   -8.2186   15.9886 N   0  0  0  0  0  0  0  0  0  0  0  0
   11.1764   -2.6600   19.5604 C   0  0  0  0  0  0  0  0  0  0  0  0
    9.5491   -0.6380   24.1912 C   0  0  0  0  0  0  0  0  0  0  0  0
    7.5337   -6.9256   16.9519 C   0  0  0  0  0  0  0  0  0  0  0  0
    9.6782    0.5671   23.5143 C   0  0  0  0  0  0  0  0  0  0  0  0
    8.4532    0.3482   26.0821 C   0  0  0  0  0  0  0  0  0  0  0  0
   10.4239   -1.7677   22.2230 N   0  0  0  0  0  0  0  0  0  0  0  0
    9.9468   -4.5953   20.1709 C   0  0  0  0  0  0  0  0  0  0  0  0
   10.0366   -3.0590   23.9864 N   0  0  0  0  0  0  0  0  0  0  0  0
    7.1191   -7.3636   15.7739 C   0  0  0  0  0  0  0  0  0  0  0  0
    5.9612   -8.3203   17.2732 N   0  0  0  0  0  0  0  0  0  0  0  0
    8.5296   -5.9814   17.1841 C   0  0  0  0  0  0  0  0  0  0  0  0
    9.1527   -5.2118   16.2116 C   0  0  0  0  0  0  0  0  0  0  0  0
   10.3364   -3.8368   22.9255 O   0  0  0  0  0  0  0  0  0  0  0  0
    9.6947   -4.8407   18.8534 C   0  0  0  0  0  0  0  0  0  0  0  0
    9.1596    1.7042   24.1381 C   0  0  0  0  0  0  0  0  0  0  0  0
   11.0456   -2.9774   18.2694 N   0  0  0  0  0  0  0  0  0  0  0  0
   10.4788   -3.0457   21.8593 C   0  0  0  0  0  0  0  0  0  0  0  0
    8.8693   -5.8099   18.4657 N   0  0  0  0  0  0  0  0  0  0  0  0
    8.9892   -0.7926   25.4573 C   0  0  0  0  0  0  0  0  0  0  0  0
   10.5677   -3.4462   20.5323 C   0  0  0  0  0  0  0  0  0  0  0  0
  1  8  1  0
  1 12  4  0
  1 14  4  0
  2  3  4  0
  2 18  4  0
  3 20  4  0
  3 22  4  0
  4 11  4  0
  4 21  4  0
  5  9  4  0
  5 16  4  0
  6 15  4  0
  6 16  4  0
  7 22  4  0
  7 26  4  0
  8 10  4  0
  8 25  4  0
  9 15  4  0
  9 17  1  0
 10 21  4  0
 11 25  4  0
 12 23  4  0
 13 20  4  0
 13 26  4  0
 14 19  4  0
 17 18  4  0
 17 24  4  0
 19 23  4  0
 20 24  4  0
 23 26  1  0
M  END
$$$$

 Created by Python create_sdf_string function

 26 30  0  0  0  0  0  0  0  0999 V2000
   10.0084   -1.8019   23.4945 C   0  0  0  0  0  0  0  0  0  0  0  0
   10.0005   -4.2520   16.5631 C   0  0  0  0  0  0  0  0  0  0  0  0
   10.2759   -4.0036   17.8845 C   0  0  0  0  0  0  0  0  0  0  0  0
    8.5652    1.5478   25.3778 N   0  0  0  0  0  0  0  0  0  0  0  0
    6.8048   -7.5457   17.8752 C   0  0  0  0  0  0  0  0  0  0  0  0
    6.1721   -8.2186   15.9886 N   0  0  0  0  0  0  0  0  0  0  0  0
   11.1764   -2.6600   19.5604 C   0  0  0  0  0  0  0  0  0  0  0  0
    9.5491   -0.6380   24.1912 C   0  0  0  0  0  0  0  0  0  0  0  0
    7.5337   -6.9256   16.9519 C   0  0  0  0  0  0  0  0  0  0  0  0
    9.6782    0.5671   23.5143 C   0  0  0  0  0  0  0  0  0  0  0  0
    8.4532    0.3482   26.0821 C   0  0  0  0  0  0  0  0  0  0  0  0
   10.4239   -1.7677   22.2230 N   0  0  0  0  0  0  0  0  0  0  0  0
    9.9468   -4.5953   20.1709 C   0  0  0  0  0  0  0  0  0  0  0  0
   10.0366   -3.0590   23.9864 N   0  0  0  0  0  0  0  0  0  0  0  0
    7.1191   -7.3636   15.7739 C   0  0  0  0  0  0  0  0  0  0  0  0
    5.9612   -8.3203   17.2732 N   0  0  0  0  0  0  0  0  0  0  0  0
    8.5296   -5.9814   17.1841 C   0  0  0  0  0  0  0  0  0  0  0  0
    9.1527   -5.2118   16.2116 C   0  0  0  0  0  0  0  0  0  0  0  0
   10.3364   -3.8368   22.9255 O   0  0  0  0  0  0  0  0  0  0  0  0
    9.6947   -4.8407   18.8534 C   0  0  0  0  0  0  0  0  0  0  0  0
    9.1596    1.7042   24.1381 C   0  0  0  0  0  0  0  0  0  0  0  0
   11.0456   -2.9774   18.2694 N   0  0  0  0  0  0  0  0  0  0  0  0
   10.4788   -3.0457   21.8593 C   0  0  0  0  0  0  0  0  0  0  0  0
    8.8693   -5.8099   18.4657 N   0  0  0  0  0  0  0  0  0  0  0  0
    8.9892   -0.7926   25.4573 C   0  0  0  0  0  0  0  0  0  0  0  0
   10.5677   -3.4462   20.5323 C   0  0  0  0  0  0  0  0  0  0  0  0
  1  8  1  0
  1 12  4  0
  1 14  4  0
  2  3  4  0
  2 18  4  0
  3 20  4  0
  3 22  4  0
  4 11  4  0
  4 21  4  0
  5  9  4  0
  5 16  4  0
  6 15  4  0
  6 16  4  0
  7 22  4  0
  7 26  4  0
  8 10  4  0
  8 25  4  0
  9 15  4  0
  9 17  1  0
 10 21  4  0
 11 25  4  0
 12 23  4  0
 13 20  4  0
 13 26  4  0
 14 19  4  0
 17 18  4  0
 17 24  4  0
 19 23  4  0
 20 24  4  0
 23 26  1  0
M  END
$$$$

 Created by Python create_sdf_string function

 26 30  0  0  0  0  0  0  0  0999 V2000
   10.0084   -1.8019   23.4945 C   0  0  0  0  0  0  0  0  0  0  0  0
   10.0005   -4.2520   16.5631 C   0  0  0  0  0  0  0  0  0  0  0  0
   10.2759   -4.0036   17.8845 C   0  0  0  0  0  0  0  0  0  0  0  0
    8.5652    1.5478   25.3778 N   0  0  0  0  0  0  0  0  0  0  0  0
    6.8048   -7.5457   17.8752 C   0  0  0  0  0  0  0  0  0  0  0  0
    6.1721   -8.2186   15.9886 N   0  0  0  0  0  0  0  0  0  0  0  0
   11.1764   -2.6600   19.5604 C   0  0  0  0  0  0  0  0  0  0  0  0
    9.5491   -0.6380   24.1912 C   0  0  0  0  0  0  0  0  0  0  0  0
    7.5337   -6.9256   16.9519 C   0  0  0  0  0  0  0  0  0  0  0  0
    9.6782    0.5671   23.5143 C   0  0  0  0  0  0  0  0  0  0  0  0
    8.4532    0.3482   26.0821 C   0  0  0  0  0  0  0  0  0  0  0  0
   10.4239   -1.7677   22.2230 N   0  0  0  0  0  0  0  0  0  0  0  0
    9.9468   -4.5953   20.1709 C   0  0  0  0  0  0  0  0  0  0  0  0
   10.0366   -3.0590   23.9864 N   0  0  0  0  0  0  0  0  0  0  0  0
    7.1191   -7.3636   15.7739 C   0  0  0  0  0  0  0  0  0  0  0  0
    5.9612   -8.3203   17.2732 N   0  0  0  0  0  0  0  0  0  0  0  0
    8.5296   -5.9814   17.1841 C   0  0  0  0  0  0  0  0  0  0  0  0
    9.1527   -5.2118   16.2116 C   0  0  0  0  0  0  0  0  0  0  0  0
   10.3364   -3.8368   22.9255 O   0  0  0  0  0  0  0  0  0  0  0  0
    9.6947   -4.8407   18.8534 C   0  0  0  0  0  0  0  0  0  0  0  0
    9.1596    1.7042   24.1381 C   0  0  0  0  0  0  0  0  0  0  0  0
   11.0456   -2.9774   18.2694 N   0  0  0  0  0  0  0  0  0  0  0  0
   10.4788   -3.0457   21.8593 C   0  0  0  0  0  0  0  0  0  0  0  0
    8.8693   -5.8099   18.4657 N   0  0  0  0  0  0  0  0  0  0  0  0
    8.9892   -0.7926   25.4573 C   0  0  0  0  0  0  0  0  0  0  0  0
   10.5677   -3.4462   20.5323 C   0  0  0  0  0  0  0  0  0  0  0  0
  1  8  1  0
  1 12  4  0
  1 14  4  0
  2  3  4  0
  2 18  4  0
  3 20  4  0
  3 22  4  0
  4 11  4  0
  4 21  4  0
  5  9  4  0
  5 16  4  0
  6 15  4  0
  6 16  4  0
  7 22  4  0
  7 26  4  0
  8 10  4  0
  8 25  4  0
  9 15  4  0
  9 17  1  0
 10 21  4  0
 11 25  4  0
 12 23  4  0
 13 20  4  0
 13 26  4  0
 14 19  4  0
 17 18  4  0
 17 24  4  0
 19 23  4  0
 20 24  4  0
 23 26  1  0
M  END
$$$$

 Created by Python create_sdf_string function

 26 30  0  0  0  0  0  0  0  0999 V2000
   10.0084   -1.8019   23.4945 C   0  0  0  0  0  0  0  0  0  0  0  0
   10.0005   -4.2520   16.5631 C   0  0  0  0  0  0  0  0  0  0  0  0
   10.2759   -4.0036   17.8845 C   0  0  0  0  0  0  0  0  0  0  0  0
    8.5652    1.5478   25.3778 N   0  0  0  0  0  0  0  0  0  0  0  0
    6.8048   -7.5457   17.8752 C   0  0  0  0  0  0  0  0  0  0  0  0
    6.1721   -8.2186   15.9886 N   0  0  0  0  0  0  0  0  0  0  0  0
   11.1764   -2.6600   19.5604 C   0  0  0  0  0  0  0  0  0  0  0  0
    9.5491   -0.6380   24.1912 C   0  0  0  0  0  0  0  0  0  0  0  0
    7.5337   -6.9256   16.9519 C   0  0  0  0  0  0  0  0  0  0  0  0
    9.6782    0.5671   23.5143 C   0  0  0  0  0  0  0  0  0  0  0  0
    8.4532    0.3482   26.0821 C   0  0  0  0  0  0  0  0  0  0  0  0
   10.4239   -1.7677   22.2230 N   0  0  0  0  0  0  0  0  0  0  0  0
    9.9468   -4.5953   20.1709 C   0  0  0  0  0  0  0  0  0  0  0  0
   10.0366   -3.0590   23.9864 N   0  0  0  0  0  0  0  0  0  0  0  0
    7.1191   -7.3636   15.7739 C   0  0  0  0  0  0  0  0  0  0  0  0
    5.9612   -8.3203   17.2732 N   0  0  0  0  0  0  0  0  0  0  0  0
    8.5296   -5.9814   17.1841 C   0  0  0  0  0  0  0  0  0  0  0  0
    9.1527   -5.2118   16.2116 C   0  0  0  0  0  0  0  0  0  0  0  0
   10.3364   -3.8368   22.9255 O   0  0  0  0  0  0  0  0  0  0  0  0
    9.6947   -4.8407   18.8534 C   0  0  0  0  0  0  0  0  0  0  0  0
    9.1596    1.7042   24.1381 C   0  0  0  0  0  0  0  0  0  0  0  0
   11.0456   -2.9774   18.2694 N   0  0  0  0  0  0  0  0  0  0  0  0
   10.4788   -3.0457   21.8593 C   0  0  0  0  0  0  0  0  0  0  0  0
    8.8693   -5.8099   18.4657 N   0  0  0  0  0  0  0  0  0  0  0  0
    8.9892   -0.7926   25.4573 C   0  0  0  0  0  0  0  0  0  0  0  0
   10.5677   -3.4462   20.5323 C   0  0  0  0  0  0  0  0  0  0  0  0
  1  8  1  0
  1 12  4  0
  1 14  4  0
  2  3  4  0
  2 18  4  0
  3 20  4  0
  3 22  4  0
  4 11  4  0
  4 21  4  0
  5  9  4  0
  5 16  4  0
  6 15  4  0
  6 16  4  0
  7 22  4  0
  7 26  4  0
  8 10  4  0
  8 25  4  0
  9 15  4  0
  9 17  1  0
 10 21  4  0
 11 25  4  0
 12 23  4  0
 13 20  4  0
 13 26  4  0
 14 19  4  0
 17 18  4  0
 17 24  4  0
 19 23  4  0
 20 24  4  0
 23 26  1  0
M  END
$$$$

 Created by Python create_sdf_string function

 26 30  0  0  0  0  0  0  0  0999 V2000
   10.0084   -1.8019   23.4945 C   0  0  0  0  0  0  0  0  0  0  0  0
   10.0005   -4.2520   16.5631 C   0  0  0  0  0  0  0  0  0  0  0  0
   10.2759   -4.0036   17.8845 C   0  0  0  0  0  0  0  0  0  0  0  0
    8.5652    1.5478   25.3778 N   0  0  0  0  0  0  0  0  0  0  0  0
    6.8048   -7.5457   17.8752 C   0  0  0  0  0  0  0  0  0  0  0  0
    6.1721   -8.2186   15.9886 N   0  0  0  0  0  0  0  0  0  0  0  0
   11.1764   -2.6600   19.5604 C   0  0  0  0  0  0  0  0  0  0  0  0
    9.5491   -0.6380   24.1912 C   0  0  0  0  0  0  0  0  0  0  0  0
    7.5337   -6.9256   16.9519 C   0  0  0  0  0  0  0  0  0  0  0  0
    9.6782    0.5671   23.5143 C   0  0  0  0  0  0  0  0  0  0  0  0
    8.4532    0.3482   26.0821 C   0  0  0  0  0  0  0  0  0  0  0  0
   10.4239   -1.7677   22.2230 N   0  0  0  0  0  0  0  0  0  0  0  0
    9.9468   -4.5953   20.1709 C   0  0  0  0  0  0  0  0  0  0  0  0
   10.0366   -3.0590   23.9864 N   0  0  0  0  0  0  0  0  0  0  0  0
    7.1191   -7.3636   15.7739 C   0  0  0  0  0  0  0  0  0  0  0  0
    5.9612   -8.3203   17.2732 N   0  0  0  0  0  0  0  0  0  0  0  0
    8.5296   -5.9814   17.1841 C   0  0  0  0  0  0  0  0  0  0  0  0
    9.1527   -5.2118   16.2116 C   0  0  0  0  0  0  0  0  0  0  0  0
   10.3364   -3.8368   22.9255 O   0  0  0  0  0  0  0  0  0  0  0  0
    9.6947   -4.8407   18.8534 C   0  0  0  0  0  0  0  0  0  0  0  0
    9.1596    1.7042   24.1381 C   0  0  0  0  0  0  0  0  0  0  0  0
   11.0456   -2.9774   18.2694 N   0  0  0  0  0  0  0  0  0  0  0  0
   10.4788   -3.0457   21.8593 C   0  0  0  0  0  0  0  0  0  0  0  0
    8.8693   -5.8099   18.4657 N   0  0  0  0  0  0  0  0  0  0  0  0
    8.9892   -0.7926   25.4573 C   0  0  0  0  0  0  0  0  0  0  0  0
   10.5677   -3.4462   20.5323 C   0  0  0  0  0  0  0  0  0  0  0  0
  1  8  1  0
  1 12  4  0
  1 14  4  0
  2  3  4  0
  2 18  4  0
  3 20  4  0
  3 22  4  0
  4 11  4  0
  4 21  4  0
  5  9  4  0
  5 16  4  0
  6 15  4  0
  6 16  4  0
  7 22  4  0
  7 26  4  0
  8 10  4  0
  8 25  4  0
  9 15  4  0
  9 17  1  0
 10 21  4  0
 11 25  4  0
 12 23  4  0
 13 20  4  0
 13 26  4  0
 14 19  4  0
 17 18  4  0
 17 24  4  0
 19 23  4  0
 20 24  4  0
 23 26  1  0
M  END
$$$$

 Created by Python create_sdf_string function

 26 30  0  0  0  0  0  0  0  0999 V2000
   10.0084   -1.8019   23.4945 C   0  0  0  0  0  0  0  0  0  0  0  0
   10.0005   -4.2520   16.5631 C   0  0  0  0  0  0  0  0  0  0  0  0
   10.2759   -4.0036   17.8845 C   0  0  0  0  0  0  0  0  0  0  0  0
    8.5652    1.5478   25.3778 N   0  0  0  0  0  0  0  0  0  0  0  0
    6.8048   -7.5457   17.8752 C   0  0  0  0  0  0  0  0  0  0  0  0
    6.1721   -8.2186   15.9886 N   0  0  0  0  0  0  0  0  0  0  0  0
   11.1764   -2.6600   19.5604 C   0  0  0  0  0  0  0  0  0  0  0  0
    9.5491   -0.6380   24.1912 C   0  0  0  0  0  0  0  0  0  0  0  0
    7.5337   -6.9256   16.9519 C   0  0  0  0  0  0  0  0  0  0  0  0
    9.6782    0.5671   23.5143 C   0  0  0  0  0  0  0  0  0  0  0  0
    8.4532    0.3482   26.0821 C   0  0  0  0  0  0  0  0  0  0  0  0
   10.4239   -1.7677   22.2230 N   0  0  0  0  0  0  0  0  0  0  0  0
    9.9468   -4.5953   20.1709 C   0  0  0  0  0  0  0  0  0  0  0  0
   10.0366   -3.0590   23.9864 N   0  0  0  0  0  0  0  0  0  0  0  0
    7.1191   -7.3636   15.7739 C   0  0  0  0  0  0  0  0  0  0  0  0
    5.9612   -8.3203   17.2732 N   0  0  0  0  0  0  0  0  0  0  0  0
    8.5296   -5.9814   17.1841 C   0  0  0  0  0  0  0  0  0  0  0  0
    9.1527   -5.2118   16.2116 C   0  0  0  0  0  0  0  0  0  0  0  0
   10.3364   -3.8368   22.9255 O   0  0  0  0  0  0  0  0  0  0  0  0
    9.6947   -4.8407   18.8534 C   0  0  0  0  0  0  0  0  0  0  0  0
    9.1596    1.7042   24.1381 C   0  0  0  0  0  0  0  0  0  0  0  0
   11.0456   -2.9774   18.2694 N   0  0  0  0  0  0  0  0  0  0  0  0
   10.4788   -3.0457   21.8593 C   0  0  0  0  0  0  0  0  0  0  0  0
    8.8693   -5.8099   18.4657 N   0  0  0  0  0  0  0  0  0  0  0  0
    8.9892   -0.7926   25.4573 C   0  0  0  0  0  0  0  0  0  0  0  0
   10.5677   -3.4462   20.5323 C   0  0  0  0  0  0  0  0  0  0  0  0
  1  8  1  0
  1 12  4  0
  1 14  4  0
  2  3  4  0
  2 18  4  0
  3 20  4  0
  3 22  4  0
  4 11  4  0
  4 21  4  0
  5  9  4  0
  5 16  4  0
  6 15  4  0
  6 16  4  0
  7 22  4  0
  7 26  4  0
  8 10  4  0
  8 25  4  0
  9 15  4  0
  9 17  1  0
 10 21  4  0
 11 25  4  0
 12 23  4  0
 13 20  4  0
 13 26  4  0
 14 19  4  0
 17 18  4  0
 17 24  4  0
 19 23  4  0
 20 24  4  0
 23 26  1  0
M  END
$$$$

 Created by Python create_sdf_string function

 26 30  0  0  0  0  0  0  0  0999 V2000
   10.0084   -1.8019   23.4945 C   0  0  0  0  0  0  0  0  0  0  0  0
   10.0005   -4.2520   16.5631 C   0  0  0  0  0  0  0  0  0  0  0  0
   10.2759   -4.0036   17.8845 C   0  0  0  0  0  0  0  0  0  0  0  0
    8.5652    1.5478   25.3778 N   0  0  0  0  0  0  0  0  0  0  0  0
    6.8048   -7.5457   17.8752 C   0  0  0  0  0  0  0  0  0  0  0  0
    6.1721   -8.2186   15.9886 N   0  0  0  0  0  0  0  0  0  0  0  0
   11.1764   -2.6600   19.5604 C   0  0  0  0  0  0  0  0  0  0  0  0
    9.5491   -0.6380   24.1912 C   0  0  0  0  0  0  0  0  0  0  0  0
    7.5337   -6.9256   16.9519 C   0  0  0  0  0  0  0  0  0  0  0  0
    9.6782    0.5671   23.5143 C   0  0  0  0  0  0  0  0  0  0  0  0
    8.4532    0.3482   26.0821 C   0  0  0  0  0  0  0  0  0  0  0  0
   10.4239   -1.7677   22.2230 N   0  0  0  0  0  0  0  0  0  0  0  0
    9.9468   -4.5953   20.1709 C   0  0  0  0  0  0  0  0  0  0  0  0
   10.0366   -3.0590   23.9864 N   0  0  0  0  0  0  0  0  0  0  0  0
    7.1191   -7.3636   15.7739 C   0  0  0  0  0  0  0  0  0  0  0  0
    5.9612   -8.3203   17.2732 N   0  0  0  0  0  0  0  0  0  0  0  0
    8.5296   -5.9814   17.1841 C   0  0  0  0  0  0  0  0  0  0  0  0
    9.1527   -5.2118   16.2116 C   0  0  0  0  0  0  0  0  0  0  0  0
   10.3364   -3.8368   22.9255 O   0  0  0  0  0  0  0  0  0  0  0  0
    9.6947   -4.8407   18.8534 C   0  0  0  0  0  0  0  0  0  0  0  0
    9.1596    1.7042   24.1381 C   0  0  0  0  0  0  0  0  0  0  0  0
   11.0456   -2.9774   18.2694 N   0  0  0  0  0  0  0  0  0  0  0  0
   10.4788   -3.0457   21.8593 C   0  0  0  0  0  0  0  0  0  0  0  0
    8.8693   -5.8099   18.4657 N   0  0  0  0  0  0  0  0  0  0  0  0
    8.9892   -0.7926   25.4573 C   0  0  0  0  0  0  0  0  0  0  0  0
   10.5677   -3.4462   20.5323 C   0  0  0  0  0  0  0  0  0  0  0  0
  1  8  1  0
  1 12  4  0
  1 14  4  0
  2  3  4  0
  2 18  4  0
  3 20  4  0
  3 22  4  0
  4 11  4  0
  4 21  4  0
  5  9  4  0
  5 16  4  0
  6 15  4  0
  6 16  4  0
  7 22  4  0
  7 26  4  0
  8 10  4  0
  8 25  4  0
  9 15  4  0
  9 17  1  0
 10 21  4  0
 11 25  4  0
 12 23  4  0
 13 20  4  0
 13 26  4  0
 14 19  4  0
 17 18  4  0
 17 24  4  0
 19 23  4  0
 20 24  4  0
 23 26  1  0
M  END
$$$$

 Created by Python create_sdf_string function

 26 30  0  0  0  0  0  0  0  0999 V2000
   10.0084   -1.8019   23.4945 C   0  0  0  0  0  0  0  0  0  0  0  0
   10.0005   -4.2520   16.5631 C   0  0  0  0  0  0  0  0  0  0  0  0
   10.2759   -4.0036   17.8845 C   0  0  0  0  0  0  0  0  0  0  0  0
    8.5652    1.5478   25.3778 N   0  0  0  0  0  0  0  0  0  0  0  0
    6.8048   -7.5457   17.8752 C   0  0  0  0  0  0  0  0  0  0  0  0
    6.1721   -8.2186   15.9886 N   0  0  0  0  0  0  0  0  0  0  0  0
   11.1764   -2.6600   19.5604 C   0  0  0  0  0  0  0  0  0  0  0  0
    9.5491   -0.6380   24.1912 C   0  0  0  0  0  0  0  0  0  0  0  0
    7.5337   -6.9256   16.9519 C   0  0  0  0  0  0  0  0  0  0  0  0
    9.6782    0.5671   23.5143 C   0  0  0  0  0  0  0  0  0  0  0  0
    8.4532    0.3482   26.0821 C   0  0  0  0  0  0  0  0  0  0  0  0
   10.4239   -1.7677   22.2230 N   0  0  0  0  0  0  0  0  0  0  0  0
    9.9468   -4.5953   20.1709 C   0  0  0  0  0  0  0  0  0  0  0  0
   10.0366   -3.0590   23.9864 N   0  0  0  0  0  0  0  0  0  0  0  0
    7.1191   -7.3636   15.7739 C   0  0  0  0  0  0  0  0  0  0  0  0
    5.9612   -8.3203   17.2732 N   0  0  0  0  0  0  0  0  0  0  0  0
    8.5296   -5.9814   17.1841 C   0  0  0  0  0  0  0  0  0  0  0  0
    9.1527   -5.2118   16.2116 C   0  0  0  0  0  0  0  0  0  0  0  0
   10.3364   -3.8368   22.9255 O   0  0  0  0  0  0  0  0  0  0  0  0
    9.6947   -4.8407   18.8534 C   0  0  0  0  0  0  0  0  0  0  0  0
    9.1596    1.7042   24.1381 C   0  0  0  0  0  0  0  0  0  0  0  0
   11.0456   -2.9774   18.2694 N   0  0  0  0  0  0  0  0  0  0  0  0
   10.4788   -3.0457   21.8593 C   0  0  0  0  0  0  0  0  0  0  0  0
    8.8693   -5.8099   18.4657 N   0  0  0  0  0  0  0  0  0  0  0  0
    8.9892   -0.7926   25.4573 C   0  0  0  0  0  0  0  0  0  0  0  0
   10.5677   -3.4462   20.5323 C   0  0  0  0  0  0  0  0  0  0  0  0
  1  8  1  0
  1 12  4  0
  1 14  4  0
  2  3  4  0
  2 18  4  0
  3 20  4  0
  3 22  4  0
  4 11  4  0
  4 21  4  0
  5  9  4  0
  5 16  4  0
  6 15  4  0
  6 16  4  0
  7 22  4  0
  7 26  4  0
  8 10  4  0
  8 25  4  0
  9 15  4  0
  9 17  1  0
 10 21  4  0
 11 25  4  0
 12 23  4  0
 13 20  4  0
 13 26  4  0
 14 19  4  0
 17 18  4  0
 17 24  4  0
 19 23  4  0
 20 24  4  0
 23 26  1  0
M  END
$$$$

 Created by Python create_sdf_string function

 26 30  0  0  0  0  0  0  0  0999 V2000
   10.0084   -1.8019   23.4945 C   0  0  0  0  0  0  0  0  0  0  0  0
   10.0005   -4.2520   16.5631 C   0  0  0  0  0  0  0  0  0  0  0  0
   10.2759   -4.0036   17.8845 C   0  0  0  0  0  0  0  0  0  0  0  0
    8.5652    1.5478   25.3778 N   0  0  0  0  0  0  0  0  0  0  0  0
    6.8048   -7.5457   17.8752 C   0  0  0  0  0  0  0  0  0  0  0  0
    6.1721   -8.2186   15.9886 N   0  0  0  0  0  0  0  0  0  0  0  0
   11.1764   -2.6600   19.5604 C   0  0  0  0  0  0  0  0  0  0  0  0
    9.5491   -0.6380   24.1912 C   0  0  0  0  0  0  0  0  0  0  0  0
    7.5337   -6.9256   16.9519 C   0  0  0  0  0  0  0  0  0  0  0  0
    9.6782    0.5671   23.5143 C   0  0  0  0  0  0  0  0  0  0  0  0
    8.4532    0.3482   26.0821 C   0  0  0  0  0  0  0  0  0  0  0  0
   10.4239   -1.7677   22.2230 N   0  0  0  0  0  0  0  0  0  0  0  0
    9.9468   -4.5953   20.1709 C   0  0  0  0  0  0  0  0  0  0  0  0
   10.0366   -3.0590   23.9864 N   0  0  0  0  0  0  0  0  0  0  0  0
    7.1191   -7.3636   15.7739 C   0  0  0  0  0  0  0  0  0  0  0  0
    5.9612   -8.3203   17.2732 N   0  0  0  0  0  0  0  0  0  0  0  0
    8.5296   -5.9814   17.1841 C   0  0  0  0  0  0  0  0  0  0  0  0
    9.1527   -5.2118   16.2116 C   0  0  0  0  0  0  0  0  0  0  0  0
   10.3364   -3.8368   22.9255 O   0  0  0  0  0  0  0  0  0  0  0  0
    9.6947   -4.8407   18.8534 C   0  0  0  0  0  0  0  0  0  0  0  0
    9.1596    1.7042   24.1381 C   0  0  0  0  0  0  0  0  0  0  0  0
   11.0456   -2.9774   18.2694 N   0  0  0  0  0  0  0  0  0  0  0  0
   10.4788   -3.0457   21.8593 C   0  0  0  0  0  0  0  0  0  0  0  0
    8.8693   -5.8099   18.4657 N   0  0  0  0  0  0  0  0  0  0  0  0
    8.9892   -0.7926   25.4573 C   0  0  0  0  0  0  0  0  0  0  0  0
   10.5677   -3.4462   20.5323 C   0  0  0  0  0  0  0  0  0  0  0  0
  1  8  1  0
  1 12  4  0
  1 14  4  0
  2  3  4  0
  2 18  4  0
  3 20  4  0
  3 22  4  0
  4 11  4  0
  4 21  4  0
  5  9  4  0
  5 16  4  0
  6 15  4  0
  6 16  4  0
  7 22  4  0
  7 26  4  0
  8 10  4  0
  8 25  4  0
  9 15  4  0
  9 17  1  0
 10 21  4  0
 11 25  4  0
 12 23  4  0
 13 20  4  0
 13 26  4  0
 14 19  4  0
 17 18  4  0
 17 24  4  0
 19 23  4  0
 20 24  4  0
 23 26  1  0
M  END
$$$$

 Created by Python create_sdf_string function

 26 30  0  0  0  0  0  0  0  0999 V2000
   10.0084   -1.8019   23.4945 C   0  0  0  0  0  0  0  0  0  0  0  0
   10.0005   -4.2520   16.5631 C   0  0  0  0  0  0  0  0  0  0  0  0
   10.2759   -4.0036   17.8845 C   0  0  0  0  0  0  0  0  0  0  0  0
    8.5652    1.5478   25.3778 N   0  0  0  0  0  0  0  0  0  0  0  0
    6.8048   -7.5457   17.8752 C   0  0  0  0  0  0  0  0  0  0  0  0
    6.1721   -8.2186   15.9886 N   0  0  0  0  0  0  0  0  0  0  0  0
   11.1764   -2.6600   19.5604 C   0  0  0  0  0  0  0  0  0  0  0  0
    9.5491   -0.6380   24.1912 C   0  0  0  0  0  0  0  0  0  0  0  0
    7.5337   -6.9256   16.9519 C   0  0  0  0  0  0  0  0  0  0  0  0
    9.6782    0.5671   23.5143 C   0  0  0  0  0  0  0  0  0  0  0  0
    8.4532    0.3482   26.0821 C   0  0  0  0  0  0  0  0  0  0  0  0
   10.4239   -1.7677   22.2230 N   0  0  0  0  0  0  0  0  0  0  0  0
    9.9468   -4.5953   20.1709 C   0  0  0  0  0  0  0  0  0  0  0  0
   10.0366   -3.0590   23.9864 N   0  0  0  0  0  0  0  0  0  0  0  0
    7.1191   -7.3636   15.7739 C   0  0  0  0  0  0  0  0  0  0  0  0
    5.9612   -8.3203   17.2732 N   0  0  0  0  0  0  0  0  0  0  0  0
    8.5296   -5.9814   17.1841 C   0  0  0  0  0  0  0  0  0  0  0  0
    9.1527   -5.2118   16.2116 C   0  0  0  0  0  0  0  0  0  0  0  0
   10.3364   -3.8368   22.9255 O   0  0  0  0  0  0  0  0  0  0  0  0
    9.6947   -4.8407   18.8534 C   0  0  0  0  0  0  0  0  0  0  0  0
    9.1596    1.7042   24.1381 C   0  0  0  0  0  0  0  0  0  0  0  0
   11.0456   -2.9774   18.2694 N   0  0  0  0  0  0  0  0  0  0  0  0
   10.4788   -3.0457   21.8593 C   0  0  0  0  0  0  0  0  0  0  0  0
    8.8693   -5.8099   18.4657 N   0  0  0  0  0  0  0  0  0  0  0  0
    8.9892   -0.7926   25.4573 C   0  0  0  0  0  0  0  0  0  0  0  0
   10.5677   -3.4462   20.5323 C   0  0  0  0  0  0  0  0  0  0  0  0
  1  8  1  0
  1 12  4  0
  1 14  4  0
  2  3  4  0
  2 18  4  0
  3 20  4  0
  3 22  4  0
  4 11  4  0
  4 21  4  0
  5  9  4  0
  5 16  4  0
  6 15  4  0
  6 16  4  0
  7 22  4  0
  7 26  4  0
  8 10  4  0
  8 25  4  0
  9 15  4  0
  9 17  1  0
 10 21  4  0
 11 25  4  0
 12 23  4  0
 13 20  4  0
 13 26  4  0
 14 19  4  0
 17 18  4  0
 17 24  4  0
 19 23  4  0
 20 24  4  0
 23 26  1  0
M  END
$$$$

 Created by Python create_sdf_string function

 26 30  0  0  0  0  0  0  0  0999 V2000
   10.0084   -1.8019   23.4945 C   0  0  0  0  0  0  0  0  0  0  0  0
   10.0005   -4.2520   16.5631 C   0  0  0  0  0  0  0  0  0  0  0  0
   10.2759   -4.0036   17.8845 C   0  0  0  0  0  0  0  0  0  0  0  0
    8.5652    1.5478   25.3778 N   0  0  0  0  0  0  0  0  0  0  0  0
    6.8048   -7.5457   17.8752 C   0  0  0  0  0  0  0  0  0  0  0  0
    6.1721   -8.2186   15.9886 N   0  0  0  0  0  0  0  0  0  0  0  0
   11.1764   -2.6600   19.5604 C   0  0  0  0  0  0  0  0  0  0  0  0
    9.5491   -0.6380   24.1912 C   0  0  0  0  0  0  0  0  0  0  0  0
    7.5337   -6.9256   16.9519 C   0  0  0  0  0  0  0  0  0  0  0  0
    9.6782    0.5671   23.5143 C   0  0  0  0  0  0  0  0  0  0  0  0
    8.4532    0.3482   26.0821 C   0  0  0  0  0  0  0  0  0  0  0  0
   10.4239   -1.7677   22.2230 N   0  0  0  0  0  0  0  0  0  0  0  0
    9.9468   -4.5953   20.1709 C   0  0  0  0  0  0  0  0  0  0  0  0
   10.0366   -3.0590   23.9864 N   0  0  0  0  0  0  0  0  0  0  0  0
    7.1191   -7.3636   15.7739 C   0  0  0  0  0  0  0  0  0  0  0  0
    5.9612   -8.3203   17.2732 N   0  0  0  0  0  0  0  0  0  0  0  0
    8.5296   -5.9814   17.1841 C   0  0  0  0  0  0  0  0  0  0  0  0
    9.1527   -5.2118   16.2116 C   0  0  0  0  0  0  0  0  0  0  0  0
   10.3364   -3.8368   22.9255 O   0  0  0  0  0  0  0  0  0  0  0  0
    9.6947   -4.8407   18.8534 C   0  0  0  0  0  0  0  0  0  0  0  0
    9.1596    1.7042   24.1381 C   0  0  0  0  0  0  0  0  0  0  0  0
   11.0456   -2.9774   18.2694 N   0  0  0  0  0  0  0  0  0  0  0  0
   10.4788   -3.0457   21.8593 C   0  0  0  0  0  0  0  0  0  0  0  0
    8.8693   -5.8099   18.4657 N   0  0  0  0  0  0  0  0  0  0  0  0
    8.9892   -0.7926   25.4573 C   0  0  0  0  0  0  0  0  0  0  0  0
   10.5677   -3.4462   20.5323 C   0  0  0  0  0  0  0  0  0  0  0  0
  1  8  1  0
  1 12  4  0
  1 14  4  0
  2  3  4  0
  2 18  4  0
  3 20  4  0
  3 22  4  0
  4 11  4  0
  4 21  4  0
  5  9  4  0
  5 16  4  0
  6 15  4  0
  6 16  4  0
  7 22  4  0
  7 26  4  0
  8 10  4  0
  8 25  4  0
  9 15  4  0
  9 17  1  0
 10 21  4  0
 11 25  4  0
 12 23  4  0
 13 20  4  0
 13 26  4  0
 14 19  4  0
 17 18  4  0
 17 24  4  0
 19 23  4  0
 20 24  4  0
 23 26  1  0
M  END
$$$$

 Created by Python create_sdf_string function

 26 30  0  0  0  0  0  0  0  0999 V2000
   10.0084   -1.8019   23.4945 C   0  0  0  0  0  0  0  0  0  0  0  0
   10.0005   -4.2520   16.5631 C   0  0  0  0  0  0  0  0  0  0  0  0
   10.2759   -4.0036   17.8845 C   0  0  0  0  0  0  0  0  0  0  0  0
    8.5652    1.5478   25.3778 N   0  0  0  0  0  0  0  0  0  0  0  0
    6.8048   -7.5457   17.8752 C   0  0  0  0  0  0  0  0  0  0  0  0
    6.1721   -8.2186   15.9886 N   0  0  0  0  0  0  0  0  0  0  0  0
   11.1764   -2.6600   19.5604 C   0  0  0  0  0  0  0  0  0  0  0  0
    9.5491   -0.6380   24.1912 C   0  0  0  0  0  0  0  0  0  0  0  0
    7.5337   -6.9256   16.9519 C   0  0  0  0  0  0  0  0  0  0  0  0
    9.6782    0.5671   23.5143 C   0  0  0  0  0  0  0  0  0  0  0  0
    8.4532    0.3482   26.0821 C   0  0  0  0  0  0  0  0  0  0  0  0
   10.4239   -1.7677   22.2230 N   0  0  0  0  0  0  0  0  0  0  0  0
    9.9468   -4.5953   20.1709 C   0  0  0  0  0  0  0  0  0  0  0  0
   10.0366   -3.0590   23.9864 N   0  0  0  0  0  0  0  0  0  0  0  0
    7.1191   -7.3636   15.7739 C   0  0  0  0  0  0  0  0  0  0  0  0
    5.9612   -8.3203   17.2732 N   0  0  0  0  0  0  0  0  0  0  0  0
    8.5296   -5.9814   17.1841 C   0  0  0  0  0  0  0  0  0  0  0  0
    9.1527   -5.2118   16.2116 C   0  0  0  0  0  0  0  0  0  0  0  0
   10.3364   -3.8368   22.9255 O   0  0  0  0  0  0  0  0  0  0  0  0
    9.6947   -4.8407   18.8534 C   0  0  0  0  0  0  0  0  0  0  0  0
    9.1596    1.7042   24.1381 C   0  0  0  0  0  0  0  0  0  0  0  0
   11.0456   -2.9774   18.2694 N   0  0  0  0  0  0  0  0  0  0  0  0
   10.4788   -3.0457   21.8593 C   0  0  0  0  0  0  0  0  0  0  0  0
    8.8693   -5.8099   18.4657 N   0  0  0  0  0  0  0  0  0  0  0  0
    8.9892   -0.7926   25.4573 C   0  0  0  0  0  0  0  0  0  0  0  0
   10.5677   -3.4462   20.5323 C   0  0  0  0  0  0  0  0  0  0  0  0
  1  8  1  0
  1 12  4  0
  1 14  4  0
  2  3  4  0
  2 18  4  0
  3 20  4  0
  3 22  4  0
  4 11  4  0
  4 21  4  0
  5  9  4  0
  5 16  4  0
  6 15  4  0
  6 16  4  0
  7 22  4  0
  7 26  4  0
  8 10  4  0
  8 25  4  0
  9 15  4  0
  9 17  1  0
 10 21  4  0
 11 25  4  0
 12 23  4  0
 13 20  4  0
 13 26  4  0
 14 19  4  0
 17 18  4  0
 17 24  4  0
 19 23  4  0
 20 24  4  0
 23 26  1  0
M  END
$$$$

 Created by Python create_sdf_string function

 26 30  0  0  0  0  0  0  0  0999 V2000
   10.0084   -1.8019   23.4945 C   0  0  0  0  0  0  0  0  0  0  0  0
   10.0005   -4.2520   16.5631 C   0  0  0  0  0  0  0  0  0  0  0  0
   10.2759   -4.0036   17.8845 C   0  0  0  0  0  0  0  0  0  0  0  0
    8.5652    1.5478   25.3778 N   0  0  0  0  0  0  0  0  0  0  0  0
    6.8048   -7.5457   17.8752 C   0  0  0  0  0  0  0  0  0  0  0  0
    6.1721   -8.2186   15.9886 N   0  0  0  0  0  0  0  0  0  0  0  0
   11.1764   -2.6600   19.5604 C   0  0  0  0  0  0  0  0  0  0  0  0
    9.5491   -0.6380   24.1912 C   0  0  0  0  0  0  0  0  0  0  0  0
    7.5337   -6.9256   16.9519 C   0  0  0  0  0  0  0  0  0  0  0  0
    9.6782    0.5671   23.5143 C   0  0  0  0  0  0  0  0  0  0  0  0
    8.4532    0.3482   26.0821 C   0  0  0  0  0  0  0  0  0  0  0  0
   10.4239   -1.7677   22.2230 N   0  0  0  0  0  0  0  0  0  0  0  0
    9.9468   -4.5953   20.1709 C   0  0  0  0  0  0  0  0  0  0  0  0
   10.0366   -3.0590   23.9864 N   0  0  0  0  0  0  0  0  0  0  0  0
    7.1191   -7.3636   15.7739 C   0  0  0  0  0  0  0  0  0  0  0  0
    5.9612   -8.3203   17.2732 N   0  0  0  0  0  0  0  0  0  0  0  0
    8.5296   -5.9814   17.1841 C   0  0  0  0  0  0  0  0  0  0  0  0
    9.1527   -5.2118   16.2116 C   0  0  0  0  0  0  0  0  0  0  0  0
   10.3364   -3.8368   22.9255 O   0  0  0  0  0  0  0  0  0  0  0  0
    9.6947   -4.8407   18.8534 C   0  0  0  0  0  0  0  0  0  0  0  0
    9.1596    1.7042   24.1381 C   0  0  0  0  0  0  0  0  0  0  0  0
   11.0456   -2.9774   18.2694 N   0  0  0  0  0  0  0  0  0  0  0  0
   10.4788   -3.0457   21.8593 C   0  0  0  0  0  0  0  0  0  0  0  0
    8.8693   -5.8099   18.4657 N   0  0  0  0  0  0  0  0  0  0  0  0
    8.9892   -0.7926   25.4573 C   0  0  0  0  0  0  0  0  0  0  0  0
   10.5677   -3.4462   20.5323 C   0  0  0  0  0  0  0  0  0  0  0  0
  1  8  1  0
  1 12  4  0
  1 14  4  0
  2  3  4  0
  2 18  4  0
  3 20  4  0
  3 22  4  0
  4 11  4  0
  4 21  4  0
  5  9  4  0
  5 16  4  0
  6 15  4  0
  6 16  4  0
  7 22  4  0
  7 26  4  0
  8 10  4  0
  8 25  4  0
  9 15  4  0
  9 17  1  0
 10 21  4  0
 11 25  4  0
 12 23  4  0
 13 20  4  0
 13 26  4  0
 14 19  4  0
 17 18  4  0
 17 24  4  0
 19 23  4  0
 20 24  4  0
 23 26  1  0
M  END
$$$$

 Created by Python create_sdf_string function

 26 30  0  0  0  0  0  0  0  0999 V2000
   10.0084   -1.8019   23.4945 C   0  0  0  0  0  0  0  0  0  0  0  0
   10.0005   -4.2520   16.5631 C   0  0  0  0  0  0  0  0  0  0  0  0
   10.2759   -4.0036   17.8845 C   0  0  0  0  0  0  0  0  0  0  0  0
    8.5652    1.5478   25.3778 N   0  0  0  0  0  0  0  0  0  0  0  0
    6.8048   -7.5457   17.8752 C   0  0  0  0  0  0  0  0  0  0  0  0
    6.1721   -8.2186   15.9886 N   0  0  0  0  0  0  0  0  0  0  0  0
   11.1764   -2.6600   19.5604 C   0  0  0  0  0  0  0  0  0  0  0  0
    9.5491   -0.6380   24.1912 C   0  0  0  0  0  0  0  0  0  0  0  0
    7.5337   -6.9256   16.9519 C   0  0  0  0  0  0  0  0  0  0  0  0
    9.6782    0.5671   23.5143 C   0  0  0  0  0  0  0  0  0  0  0  0
    8.4532    0.3482   26.0821 C   0  0  0  0  0  0  0  0  0  0  0  0
   10.4239   -1.7677   22.2230 N   0  0  0  0  0  0  0  0  0  0  0  0
    9.9468   -4.5953   20.1709 C   0  0  0  0  0  0  0  0  0  0  0  0
   10.0366   -3.0590   23.9864 N   0  0  0  0  0  0  0  0  0  0  0  0
    7.1191   -7.3636   15.7739 C   0  0  0  0  0  0  0  0  0  0  0  0
    5.9612   -8.3203   17.2732 N   0  0  0  0  0  0  0  0  0  0  0  0
    8.5296   -5.9814   17.1841 C   0  0  0  0  0  0  0  0  0  0  0  0
    9.1527   -5.2118   16.2116 C   0  0  0  0  0  0  0  0  0  0  0  0
   10.3364   -3.8368   22.9255 O   0  0  0  0  0  0  0  0  0  0  0  0
    9.6947   -4.8407   18.8534 C   0  0  0  0  0  0  0  0  0  0  0  0
    9.1596    1.7042   24.1381 C   0  0  0  0  0  0  0  0  0  0  0  0
   11.0456   -2.9774   18.2694 N   0  0  0  0  0  0  0  0  0  0  0  0
   10.4788   -3.0457   21.8593 C   0  0  0  0  0  0  0  0  0  0  0  0
    8.8693   -5.8099   18.4657 N   0  0  0  0  0  0  0  0  0  0  0  0
    8.9892   -0.7926   25.4573 C   0  0  0  0  0  0  0  0  0  0  0  0
   10.5677   -3.4462   20.5323 C   0  0  0  0  0  0  0  0  0  0  0  0
  1  8  1  0
  1 12  4  0
  1 14  4  0
  2  3  4  0
  2 18  4  0
  3 20  4  0
  3 22  4  0
  4 11  4  0
  4 21  4  0
  5  9  4  0
  5 16  4  0
  6 15  4  0
  6 16  4  0
  7 22  4  0
  7 26  4  0
  8 10  4  0
  8 25  4  0
  9 15  4  0
  9 17  1  0
 10 21  4  0
 11 25  4  0
 12 23  4  0
 13 20  4  0
 13 26  4  0
 14 19  4  0
 17 18  4  0
 17 24  4  0
 19 23  4  0
 20 24  4  0
 23 26  1  0
M  END
$$$$

 Created by Python create_sdf_string function

 26 30  0  0  0  0  0  0  0  0999 V2000
   10.0084   -1.8019   23.4945 C   0  0  0  0  0  0  0  0  0  0  0  0
   10.0005   -4.2520   16.5631 C   0  0  0  0  0  0  0  0  0  0  0  0
   10.2759   -4.0036   17.8845 C   0  0  0  0  0  0  0  0  0  0  0  0
    8.5652    1.5478   25.3778 N   0  0  0  0  0  0  0  0  0  0  0  0
    6.8048   -7.5457   17.8752 C   0  0  0  0  0  0  0  0  0  0  0  0
    6.1721   -8.2186   15.9886 N   0  0  0  0  0  0  0  0  0  0  0  0
   11.1764   -2.6600   19.5604 C   0  0  0  0  0  0  0  0  0  0  0  0
    9.5491   -0.6380   24.1912 C   0  0  0  0  0  0  0  0  0  0  0  0
    7.5337   -6.9256   16.9519 C   0  0  0  0  0  0  0  0  0  0  0  0
    9.6782    0.5671   23.5143 C   0  0  0  0  0  0  0  0  0  0  0  0
    8.4532    0.3482   26.0821 C   0  0  0  0  0  0  0  0  0  0  0  0
   10.4239   -1.7677   22.2230 N   0  0  0  0  0  0  0  0  0  0  0  0
    9.9468   -4.5953   20.1709 C   0  0  0  0  0  0  0  0  0  0  0  0
   10.0366   -3.0590   23.9864 N   0  0  0  0  0  0  0  0  0  0  0  0
    7.1191   -7.3636   15.7739 C   0  0  0  0  0  0  0  0  0  0  0  0
    5.9612   -8.3203   17.2732 N   0  0  0  0  0  0  0  0  0  0  0  0
    8.5296   -5.9814   17.1841 C   0  0  0  0  0  0  0  0  0  0  0  0
    9.1527   -5.2118   16.2116 C   0  0  0  0  0  0  0  0  0  0  0  0
   10.3364   -3.8368   22.9255 O   0  0  0  0  0  0  0  0  0  0  0  0
    9.6947   -4.8407   18.8534 C   0  0  0  0  0  0  0  0  0  0  0  0
    9.1596    1.7042   24.1381 C   0  0  0  0  0  0  0  0  0  0  0  0
   11.0456   -2.9774   18.2694 N   0  0  0  0  0  0  0  0  0  0  0  0
   10.4788   -3.0457   21.8593 C   0  0  0  0  0  0  0  0  0  0  0  0
    8.8693   -5.8099   18.4657 N   0  0  0  0  0  0  0  0  0  0  0  0
    8.9892   -0.7926   25.4573 C   0  0  0  0  0  0  0  0  0  0  0  0
   10.5677   -3.4462   20.5323 C   0  0  0  0  0  0  0  0  0  0  0  0
  1  8  1  0
  1 12  4  0
  1 14  4  0
  2  3  4  0
  2 18  4  0
  3 20  4  0
  3 22  4  0
  4 11  4  0
  4 21  4  0
  5  9  4  0
  5 16  4  0
  6 15  4  0
  6 16  4  0
  7 22  4  0
  7 26  4  0
  8 10  4  0
  8 25  4  0
  9 15  4  0
  9 17  1  0
 10 21  4  0
 11 25  4  0
 12 23  4  0
 13 20  4  0
 13 26  4  0
 14 19  4  0
 17 18  4  0
 17 24  4  0
 19 23  4  0
 20 24  4  0
 23 26  1  0
M  END
$$$$

 Created by Python create_sdf_string function

 26 30  0  0  0  0  0  0  0  0999 V2000
   10.0084   -1.8019   23.4945 C   0  0  0  0  0  0  0  0  0  0  0  0
   10.0005   -4.2520   16.5631 C   0  0  0  0  0  0  0  0  0  0  0  0
   10.2759   -4.0036   17.8845 C   0  0  0  0  0  0  0  0  0  0  0  0
    8.5652    1.5478   25.3778 N   0  0  0  0  0  0  0  0  0  0  0  0
    6.8048   -7.5457   17.8752 C   0  0  0  0  0  0  0  0  0  0  0  0
    6.1721   -8.2186   15.9886 N   0  0  0  0  0  0  0  0  0  0  0  0
   11.1764   -2.6600   19.5604 C   0  0  0  0  0  0  0  0  0  0  0  0
    9.5491   -0.6380   24.1912 C   0  0  0  0  0  0  0  0  0  0  0  0
    7.5337   -6.9256   16.9519 C   0  0  0  0  0  0  0  0  0  0  0  0
    9.6782    0.5671   23.5143 C   0  0  0  0  0  0  0  0  0  0  0  0
    8.4532    0.3482   26.0821 C   0  0  0  0  0  0  0  0  0  0  0  0
   10.4239   -1.7677   22.2230 N   0  0  0  0  0  0  0  0  0  0  0  0
    9.9468   -4.5953   20.1709 C   0  0  0  0  0  0  0  0  0  0  0  0
   10.0366   -3.0590   23.9864 N   0  0  0  0  0  0  0  0  0  0  0  0
    7.1191   -7.3636   15.7739 C   0  0  0  0  0  0  0  0  0  0  0  0
    5.9612   -8.3203   17.2732 N   0  0  0  0  0  0  0  0  0  0  0  0
    8.5296   -5.9814   17.1841 C   0  0  0  0  0  0  0  0  0  0  0  0
    9.1527   -5.2118   16.2116 C   0  0  0  0  0  0  0  0  0  0  0  0
   10.3364   -3.8368   22.9255 O   0  0  0  0  0  0  0  0  0  0  0  0
    9.6947   -4.8407   18.8534 C   0  0  0  0  0  0  0  0  0  0  0  0
    9.1596    1.7042   24.1381 C   0  0  0  0  0  0  0  0  0  0  0  0
   11.0456   -2.9774   18.2694 N   0  0  0  0  0  0  0  0  0  0  0  0
   10.4788   -3.0457   21.8593 C   0  0  0  0  0  0  0  0  0  0  0  0
    8.8693   -5.8099   18.4657 N   0  0  0  0  0  0  0  0  0  0  0  0
    8.9892   -0.7926   25.4573 C   0  0  0  0  0  0  0  0  0  0  0  0
   10.5677   -3.4462   20.5323 C   0  0  0  0  0  0  0  0  0  0  0  0
  1  8  1  0
  1 12  4  0
  1 14  4  0
  2  3  4  0
  2 18  4  0
  3 20  4  0
  3 22  4  0
  4 11  4  0
  4 21  4  0
  5  9  4  0
  5 16  4  0
  6 15  4  0
  6 16  4  0
  7 22  4  0
  7 26  4  0
  8 10  4  0
  8 25  4  0
  9 15  4  0
  9 17  1  0
 10 21  4  0
 11 25  4  0
 12 23  4  0
 13 20  4  0
 13 26  4  0
 14 19  4  0
 17 18  4  0
 17 24  4  0
 19 23  4  0
 20 24  4  0
 23 26  1  0
M  END
$$$$

 Created by Python create_sdf_string function

 26 30  0  0  0  0  0  0  0  0999 V2000
   10.0084   -1.8019   23.4945 C   0  0  0  0  0  0  0  0  0  0  0  0
   10.0005   -4.2520   16.5631 C   0  0  0  0  0  0  0  0  0  0  0  0
   10.2759   -4.0036   17.8845 C   0  0  0  0  0  0  0  0  0  0  0  0
    8.5652    1.5478   25.3778 N   0  0  0  0  0  0  0  0  0  0  0  0
    6.8048   -7.5457   17.8752 C   0  0  0  0  0  0  0  0  0  0  0  0
    6.1721   -8.2186   15.9886 N   0  0  0  0  0  0  0  0  0  0  0  0
   11.1764   -2.6600   19.5604 C   0  0  0  0  0  0  0  0  0  0  0  0
    9.5491   -0.6380   24.1912 C   0  0  0  0  0  0  0  0  0  0  0  0
    7.5337   -6.9256   16.9519 C   0  0  0  0  0  0  0  0  0  0  0  0
    9.6782    0.5671   23.5143 C   0  0  0  0  0  0  0  0  0  0  0  0
    8.4532    0.3482   26.0821 C   0  0  0  0  0  0  0  0  0  0  0  0
   10.4239   -1.7677   22.2230 N   0  0  0  0  0  0  0  0  0  0  0  0
    9.9468   -4.5953   20.1709 C   0  0  0  0  0  0  0  0  0  0  0  0
   10.0366   -3.0590   23.9864 N   0  0  0  0  0  0  0  0  0  0  0  0
    7.1191   -7.3636   15.7739 C   0  0  0  0  0  0  0  0  0  0  0  0
    5.9612   -8.3203   17.2732 N   0  0  0  0  0  0  0  0  0  0  0  0
    8.5296   -5.9814   17.1841 C   0  0  0  0  0  0  0  0  0  0  0  0
    9.1527   -5.2118   16.2116 C   0  0  0  0  0  0  0  0  0  0  0  0
   10.3364   -3.8368   22.9255 O   0  0  0  0  0  0  0  0  0  0  0  0
    9.6947   -4.8407   18.8534 C   0  0  0  0  0  0  0  0  0  0  0  0
    9.1596    1.7042   24.1381 C   0  0  0  0  0  0  0  0  0  0  0  0
   11.0456   -2.9774   18.2694 N   0  0  0  0  0  0  0  0  0  0  0  0
   10.4788   -3.0457   21.8593 C   0  0  0  0  0  0  0  0  0  0  0  0
    8.8693   -5.8099   18.4657 N   0  0  0  0  0  0  0  0  0  0  0  0
    8.9892   -0.7926   25.4573 C   0  0  0  0  0  0  0  0  0  0  0  0
   10.5677   -3.4462   20.5323 C   0  0  0  0  0  0  0  0  0  0  0  0
  1  8  1  0
  1 12  4  0
  1 14  4  0
  2  3  4  0
  2 18  4  0
  3 20  4  0
  3 22  4  0
  4 11  4  0
  4 21  4  0
  5  9  4  0
  5 16  4  0
  6 15  4  0
  6 16  4  0
  7 22  4  0
  7 26  4  0
  8 10  4  0
  8 25  4  0
  9 15  4  0
  9 17  1  0
 10 21  4  0
 11 25  4  0
 12 23  4  0
 13 20  4  0
 13 26  4  0
 14 19  4  0
 17 18  4  0
 17 24  4  0
 19 23  4  0
 20 24  4  0
 23 26  1  0
M  END
$$$$

 Created by Python create_sdf_string function

 26 30  0  0  0  0  0  0  0  0999 V2000
   10.0084   -1.8019   23.4945 C   0  0  0  0  0  0  0  0  0  0  0  0
   10.0005   -4.2520   16.5631 C   0  0  0  0  0  0  0  0  0  0  0  0
   10.2759   -4.0036   17.8845 C   0  0  0  0  0  0  0  0  0  0  0  0
    8.5652    1.5478   25.3778 N   0  0  0  0  0  0  0  0  0  0  0  0
    6.8048   -7.5457   17.8752 C   0  0  0  0  0  0  0  0  0  0  0  0
    6.1721   -8.2186   15.9886 N   0  0  0  0  0  0  0  0  0  0  0  0
   11.1764   -2.6600   19.5604 C   0  0  0  0  0  0  0  0  0  0  0  0
    9.5491   -0.6380   24.1912 C   0  0  0  0  0  0  0  0  0  0  0  0
    7.5337   -6.9256   16.9519 C   0  0  0  0  0  0  0  0  0  0  0  0
    9.6782    0.5671   23.5143 C   0  0  0  0  0  0  0  0  0  0  0  0
    8.4532    0.3482   26.0821 C   0  0  0  0  0  0  0  0  0  0  0  0
   10.4239   -1.7677   22.2230 N   0  0  0  0  0  0  0  0  0  0  0  0
    9.9468   -4.5953   20.1709 C   0  0  0  0  0  0  0  0  0  0  0  0
   10.0366   -3.0590   23.9864 N   0  0  0  0  0  0  0  0  0  0  0  0
    7.1191   -7.3636   15.7739 C   0  0  0  0  0  0  0  0  0  0  0  0
    5.9612   -8.3203   17.2732 N   0  0  0  0  0  0  0  0  0  0  0  0
    8.5296   -5.9814   17.1841 C   0  0  0  0  0  0  0  0  0  0  0  0
    9.1527   -5.2118   16.2116 C   0  0  0  0  0  0  0  0  0  0  0  0
   10.3364   -3.8368   22.9255 O   0  0  0  0  0  0  0  0  0  0  0  0
    9.6947   -4.8407   18.8534 C   0  0  0  0  0  0  0  0  0  0  0  0
    9.1596    1.7042   24.1381 C   0  0  0  0  0  0  0  0  0  0  0  0
   11.0456   -2.9774   18.2694 N   0  0  0  0  0  0  0  0  0  0  0  0
   10.4788   -3.0457   21.8593 C   0  0  0  0  0  0  0  0  0  0  0  0
    8.8693   -5.8099   18.4657 N   0  0  0  0  0  0  0  0  0  0  0  0
    8.9892   -0.7926   25.4573 C   0  0  0  0  0  0  0  0  0  0  0  0
   10.5677   -3.4462   20.5323 C   0  0  0  0  0  0  0  0  0  0  0  0
  1  8  1  0
  1 12  4  0
  1 14  4  0
  2  3  4  0
  2 18  4  0
  3 20  4  0
  3 22  4  0
  4 11  4  0
  4 21  4  0
  5  9  4  0
  5 16  4  0
  6 15  4  0
  6 16  4  0
  7 22  4  0
  7 26  4  0
  8 10  4  0
  8 25  4  0
  9 15  4  0
  9 17  1  0
 10 21  4  0
 11 25  4  0
 12 23  4  0
 13 20  4  0
 13 26  4  0
 14 19  4  0
 17 18  4  0
 17 24  4  0
 19 23  4  0
 20 24  4  0
 23 26  1  0
M  END
$$$$

 Created by Python create_sdf_string function

 26 30  0  0  0  0  0  0  0  0999 V2000
   10.0084   -1.8019   23.4945 C   0  0  0  0  0  0  0  0  0  0  0  0
   10.0005   -4.2520   16.5631 C   0  0  0  0  0  0  0  0  0  0  0  0
   10.2759   -4.0036   17.8845 C   0  0  0  0  0  0  0  0  0  0  0  0
    8.5652    1.5478   25.3778 N   0  0  0  0  0  0  0  0  0  0  0  0
    6.8048   -7.5457   17.8752 C   0  0  0  0  0  0  0  0  0  0  0  0
    6.1721   -8.2186   15.9886 N   0  0  0  0  0  0  0  0  0  0  0  0
   11.1764   -2.6600   19.5604 C   0  0  0  0  0  0  0  0  0  0  0  0
    9.5491   -0.6380   24.1912 C   0  0  0  0  0  0  0  0  0  0  0  0
    7.5337   -6.9256   16.9519 C   0  0  0  0  0  0  0  0  0  0  0  0
    9.6782    0.5671   23.5143 C   0  0  0  0  0  0  0  0  0  0  0  0
    8.4532    0.3482   26.0821 C   0  0  0  0  0  0  0  0  0  0  0  0
   10.4239   -1.7677   22.2230 N   0  0  0  0  0  0  0  0  0  0  0  0
    9.9468   -4.5953   20.1709 C   0  0  0  0  0  0  0  0  0  0  0  0
   10.0366   -3.0590   23.9864 N   0  0  0  0  0  0  0  0  0  0  0  0
    7.1191   -7.3636   15.7739 C   0  0  0  0  0  0  0  0  0  0  0  0
    5.9612   -8.3203   17.2732 N   0  0  0  0  0  0  0  0  0  0  0  0
    8.5296   -5.9814   17.1841 C   0  0  0  0  0  0  0  0  0  0  0  0
    9.1527   -5.2118   16.2116 C   0  0  0  0  0  0  0  0  0  0  0  0
   10.3364   -3.8368   22.9255 O   0  0  0  0  0  0  0  0  0  0  0  0
    9.6947   -4.8407   18.8534 C   0  0  0  0  0  0  0  0  0  0  0  0
    9.1596    1.7042   24.1381 C   0  0  0  0  0  0  0  0  0  0  0  0
   11.0456   -2.9774   18.2694 N   0  0  0  0  0  0  0  0  0  0  0  0
   10.4788   -3.0457   21.8593 C   0  0  0  0  0  0  0  0  0  0  0  0
    8.8693   -5.8099   18.4657 N   0  0  0  0  0  0  0  0  0  0  0  0
    8.9892   -0.7926   25.4573 C   0  0  0  0  0  0  0  0  0  0  0  0
   10.5677   -3.4462   20.5323 C   0  0  0  0  0  0  0  0  0  0  0  0
  1  8  1  0
  1 12  4  0
  1 14  4  0
  2  3  4  0
  2 18  4  0
  3 20  4  0
  3 22  4  0
  4 11  4  0
  4 21  4  0
  5  9  4  0
  5 16  4  0
  6 15  4  0
  6 16  4  0
  7 22  4  0
  7 26  4  0
  8 10  4  0
  8 25  4  0
  9 15  4  0
  9 17  1  0
 10 21  4  0
 11 25  4  0
 12 23  4  0
 13 20  4  0
 13 26  4  0
 14 19  4  0
 17 18  4  0
 17 24  4  0
 19 23  4  0
 20 24  4  0
 23 26  1  0
M  END
$$$$

 Created by Python create_sdf_string function

 26 30  0  0  0  0  0  0  0  0999 V2000
   10.0084   -1.8019   23.4945 C   0  0  0  0  0  0  0  0  0  0  0  0
   10.0005   -4.2520   16.5631 C   0  0  0  0  0  0  0  0  0  0  0  0
   10.2759   -4.0036   17.8845 C   0  0  0  0  0  0  0  0  0  0  0  0
    8.5652    1.5478   25.3778 N   0  0  0  0  0  0  0  0  0  0  0  0
    6.8048   -7.5457   17.8752 C   0  0  0  0  0  0  0  0  0  0  0  0
    6.1721   -8.2186   15.9886 N   0  0  0  0  0  0  0  0  0  0  0  0
   11.1764   -2.6600   19.5604 C   0  0  0  0  0  0  0  0  0  0  0  0
    9.5491   -0.6380   24.1912 C   0  0  0  0  0  0  0  0  0  0  0  0
    7.5337   -6.9256   16.9519 C   0  0  0  0  0  0  0  0  0  0  0  0
    9.6782    0.5671   23.5143 C   0  0  0  0  0  0  0  0  0  0  0  0
    8.4532    0.3482   26.0821 C   0  0  0  0  0  0  0  0  0  0  0  0
   10.4239   -1.7677   22.2230 N   0  0  0  0  0  0  0  0  0  0  0  0
    9.9468   -4.5953   20.1709 C   0  0  0  0  0  0  0  0  0  0  0  0
   10.0366   -3.0590   23.9864 N   0  0  0  0  0  0  0  0  0  0  0  0
    7.1191   -7.3636   15.7739 C   0  0  0  0  0  0  0  0  0  0  0  0
    5.9612   -8.3203   17.2732 N   0  0  0  0  0  0  0  0  0  0  0  0
    8.5296   -5.9814   17.1841 C   0  0  0  0  0  0  0  0  0  0  0  0
    9.1527   -5.2118   16.2116 C   0  0  0  0  0  0  0  0  0  0  0  0
   10.3364   -3.8368   22.9255 O   0  0  0  0  0  0  0  0  0  0  0  0
    9.6947   -4.8407   18.8534 C   0  0  0  0  0  0  0  0  0  0  0  0
    9.1596    1.7042   24.1381 C   0  0  0  0  0  0  0  0  0  0  0  0
   11.0456   -2.9774   18.2694 N   0  0  0  0  0  0  0  0  0  0  0  0
   10.4788   -3.0457   21.8593 C   0  0  0  0  0  0  0  0  0  0  0  0
    8.8693   -5.8099   18.4657 N   0  0  0  0  0  0  0  0  0  0  0  0
    8.9892   -0.7926   25.4573 C   0  0  0  0  0  0  0  0  0  0  0  0
   10.5677   -3.4462   20.5323 C   0  0  0  0  0  0  0  0  0  0  0  0
  1  8  1  0
  1 12  4  0
  1 14  4  0
  2  3  4  0
  2 18  4  0
  3 20  4  0
  3 22  4  0
  4 11  4  0
  4 21  4  0
  5  9  4  0
  5 16  4  0
  6 15  4  0
  6 16  4  0
  7 22  4  0
  7 26  4  0
  8 10  4  0
  8 25  4  0
  9 15  4  0
  9 17  1  0
 10 21  4  0
 11 25  4  0
 12 23  4  0
 13 20  4  0
 13 26  4  0
 14 19  4  0
 17 18  4  0
 17 24  4  0
 19 23  4  0
 20 24  4  0
 23 26  1  0
M  END
$$$$

 Created by Python create_sdf_string function

 26 30  0  0  0  0  0  0  0  0999 V2000
   10.0084   -1.8019   23.4945 C   0  0  0  0  0  0  0  0  0  0  0  0
   10.0005   -4.2520   16.5631 C   0  0  0  0  0  0  0  0  0  0  0  0
   10.2759   -4.0036   17.8845 C   0  0  0  0  0  0  0  0  0  0  0  0
    8.5652    1.5478   25.3778 N   0  0  0  0  0  0  0  0  0  0  0  0
    6.8048   -7.5457   17.8752 C   0  0  0  0  0  0  0  0  0  0  0  0
    6.1721   -8.2186   15.9886 N   0  0  0  0  0  0  0  0  0  0  0  0
   11.1764   -2.6600   19.5604 C   0  0  0  0  0  0  0  0  0  0  0  0
    9.5491   -0.6380   24.1912 C   0  0  0  0  0  0  0  0  0  0  0  0
    7.5337   -6.9256   16.9519 C   0  0  0  0  0  0  0  0  0  0  0  0
    9.6782    0.5671   23.5143 C   0  0  0  0  0  0  0  0  0  0  0  0
    8.4532    0.3482   26.0821 C   0  0  0  0  0  0  0  0  0  0  0  0
   10.4239   -1.7677   22.2230 N   0  0  0  0  0  0  0  0  0  0  0  0
    9.9468   -4.5953   20.1709 C   0  0  0  0  0  0  0  0  0  0  0  0
   10.0366   -3.0590   23.9864 N   0  0  0  0  0  0  0  0  0  0  0  0
    7.1191   -7.3636   15.7739 C   0  0  0  0  0  0  0  0  0  0  0  0
    5.9612   -8.3203   17.2732 N   0  0  0  0  0  0  0  0  0  0  0  0
    8.5296   -5.9814   17.1841 C   0  0  0  0  0  0  0  0  0  0  0  0
    9.1527   -5.2118   16.2116 C   0  0  0  0  0  0  0  0  0  0  0  0
   10.3364   -3.8368   22.9255 O   0  0  0  0  0  0  0  0  0  0  0  0
    9.6947   -4.8407   18.8534 C   0  0  0  0  0  0  0  0  0  0  0  0
    9.1596    1.7042   24.1381 C   0  0  0  0  0  0  0  0  0  0  0  0
   11.0456   -2.9774   18.2694 N   0  0  0  0  0  0  0  0  0  0  0  0
   10.4788   -3.0457   21.8593 C   0  0  0  0  0  0  0  0  0  0  0  0
    8.8693   -5.8099   18.4657 N   0  0  0  0  0  0  0  0  0  0  0  0
    8.9892   -0.7926   25.4573 C   0  0  0  0  0  0  0  0  0  0  0  0
   10.5677   -3.4462   20.5323 C   0  0  0  0  0  0  0  0  0  0  0  0
  1  8  1  0
  1 12  4  0
  1 14  4  0
  2  3  4  0
  2 18  4  0
  3 20  4  0
  3 22  4  0
  4 11  4  0
  4 21  4  0
  5  9  4  0
  5 16  4  0
  6 15  4  0
  6 16  4  0
  7 22  4  0
  7 26  4  0
  8 10  4  0
  8 25  4  0
  9 15  4  0
  9 17  1  0
 10 21  4  0
 11 25  4  0
 12 23  4  0
 13 20  4  0
 13 26  4  0
 14 19  4  0
 17 18  4  0
 17 24  4  0
 19 23  4  0
 20 24  4  0
 23 26  1  0
M  END
$$$$

 Created by Python create_sdf_string function

 26 30  0  0  0  0  0  0  0  0999 V2000
   10.0084   -1.8019   23.4945 C   0  0  0  0  0  0  0  0  0  0  0  0
   10.0005   -4.2520   16.5631 C   0  0  0  0  0  0  0  0  0  0  0  0
   10.2759   -4.0036   17.8845 C   0  0  0  0  0  0  0  0  0  0  0  0
    8.5652    1.5478   25.3778 N   0  0  0  0  0  0  0  0  0  0  0  0
    6.8048   -7.5457   17.8752 C   0  0  0  0  0  0  0  0  0  0  0  0
    6.1721   -8.2186   15.9886 N   0  0  0  0  0  0  0  0  0  0  0  0
   11.1764   -2.6600   19.5604 C   0  0  0  0  0  0  0  0  0  0  0  0
    9.5491   -0.6380   24.1912 C   0  0  0  0  0  0  0  0  0  0  0  0
    7.5337   -6.9256   16.9519 C   0  0  0  0  0  0  0  0  0  0  0  0
    9.6782    0.5671   23.5143 C   0  0  0  0  0  0  0  0  0  0  0  0
    8.4532    0.3482   26.0821 C   0  0  0  0  0  0  0  0  0  0  0  0
   10.4239   -1.7677   22.2230 N   0  0  0  0  0  0  0  0  0  0  0  0
    9.9468   -4.5953   20.1709 C   0  0  0  0  0  0  0  0  0  0  0  0
   10.0366   -3.0590   23.9864 N   0  0  0  0  0  0  0  0  0  0  0  0
    7.1191   -7.3636   15.7739 C   0  0  0  0  0  0  0  0  0  0  0  0
    5.9612   -8.3203   17.2732 N   0  0  0  0  0  0  0  0  0  0  0  0
    8.5296   -5.9814   17.1841 C   0  0  0  0  0  0  0  0  0  0  0  0
    9.1527   -5.2118   16.2116 C   0  0  0  0  0  0  0  0  0  0  0  0
   10.3364   -3.8368   22.9255 O   0  0  0  0  0  0  0  0  0  0  0  0
    9.6947   -4.8407   18.8534 C   0  0  0  0  0  0  0  0  0  0  0  0
    9.1596    1.7042   24.1381 C   0  0  0  0  0  0  0  0  0  0  0  0
   11.0456   -2.9774   18.2694 N   0  0  0  0  0  0  0  0  0  0  0  0
   10.4788   -3.0457   21.8593 C   0  0  0  0  0  0  0  0  0  0  0  0
    8.8693   -5.8099   18.4657 N   0  0  0  0  0  0  0  0  0  0  0  0
    8.9892   -0.7926   25.4573 C   0  0  0  0  0  0  0  0  0  0  0  0
   10.5677   -3.4462   20.5323 C   0  0  0  0  0  0  0  0  0  0  0  0
  1  8  1  0
  1 12  4  0
  1 14  4  0
  2  3  4  0
  2 18  4  0
  3 20  4  0
  3 22  4  0
  4 11  4  0
  4 21  4  0
  5  9  4  0
  5 16  4  0
  6 15  4  0
  6 16  4  0
  7 22  4  0
  7 26  4  0
  8 10  4  0
  8 25  4  0
  9 15  4  0
  9 17  1  0
 10 21  4  0
 11 25  4  0
 12 23  4  0
 13 20  4  0
 13 26  4  0
 14 19  4  0
 17 18  4  0
 17 24  4  0
 19 23  4  0
 20 24  4  0
 23 26  1  0
M  END
$$$$

 Created by Python create_sdf_string function

 26 30  0  0  0  0  0  0  0  0999 V2000
   10.0084   -1.8019   23.4945 C   0  0  0  0  0  0  0  0  0  0  0  0
   10.0005   -4.2520   16.5631 C   0  0  0  0  0  0  0  0  0  0  0  0
   10.2759   -4.0036   17.8845 C   0  0  0  0  0  0  0  0  0  0  0  0
    8.5652    1.5478   25.3778 N   0  0  0  0  0  0  0  0  0  0  0  0
    6.8048   -7.5457   17.8752 C   0  0  0  0  0  0  0  0  0  0  0  0
    6.1721   -8.2186   15.9886 N   0  0  0  0  0  0  0  0  0  0  0  0
   11.1764   -2.6600   19.5604 C   0  0  0  0  0  0  0  0  0  0  0  0
    9.5491   -0.6380   24.1912 C   0  0  0  0  0  0  0  0  0  0  0  0
    7.5337   -6.9256   16.9519 C   0  0  0  0  0  0  0  0  0  0  0  0
    9.6782    0.5671   23.5143 C   0  0  0  0  0  0  0  0  0  0  0  0
    8.4532    0.3482   26.0821 C   0  0  0  0  0  0  0  0  0  0  0  0
   10.4239   -1.7677   22.2230 N   0  0  0  0  0  0  0  0  0  0  0  0
    9.9468   -4.5953   20.1709 C   0  0  0  0  0  0  0  0  0  0  0  0
   10.0366   -3.0590   23.9864 N   0  0  0  0  0  0  0  0  0  0  0  0
    7.1191   -7.3636   15.7739 C   0  0  0  0  0  0  0  0  0  0  0  0
    5.9612   -8.3203   17.2732 N   0  0  0  0  0  0  0  0  0  0  0  0
    8.5296   -5.9814   17.1841 C   0  0  0  0  0  0  0  0  0  0  0  0
    9.1527   -5.2118   16.2116 C   0  0  0  0  0  0  0  0  0  0  0  0
   10.3364   -3.8368   22.9255 O   0  0  0  0  0  0  0  0  0  0  0  0
    9.6947   -4.8407   18.8534 C   0  0  0  0  0  0  0  0  0  0  0  0
    9.1596    1.7042   24.1381 C   0  0  0  0  0  0  0  0  0  0  0  0
   11.0456   -2.9774   18.2694 N   0  0  0  0  0  0  0  0  0  0  0  0
   10.4788   -3.0457   21.8593 C   0  0  0  0  0  0  0  0  0  0  0  0
    8.8693   -5.8099   18.4657 N   0  0  0  0  0  0  0  0  0  0  0  0
    8.9892   -0.7926   25.4573 C   0  0  0  0  0  0  0  0  0  0  0  0
   10.5677   -3.4462   20.5323 C   0  0  0  0  0  0  0  0  0  0  0  0
  1  8  1  0
  1 12  4  0
  1 14  4  0
  2  3  4  0
  2 18  4  0
  3 20  4  0
  3 22  4  0
  4 11  4  0
  4 21  4  0
  5  9  4  0
  5 16  4  0
  6 15  4  0
  6 16  4  0
  7 22  4  0
  7 26  4  0
  8 10  4  0
  8 25  4  0
  9 15  4  0
  9 17  1  0
 10 21  4  0
 11 25  4  0
 12 23  4  0
 13 20  4  0
 13 26  4  0
 14 19  4  0
 17 18  4  0
 17 24  4  0
 19 23  4  0
 20 24  4  0
 23 26  1  0
M  END
$$$$

 Created by Python create_sdf_string function

 26 30  0  0  0  0  0  0  0  0999 V2000
   10.0084   -1.8019   23.4945 C   0  0  0  0  0  0  0  0  0  0  0  0
   10.0005   -4.2520   16.5631 C   0  0  0  0  0  0  0  0  0  0  0  0
   10.2759   -4.0036   17.8845 C   0  0  0  0  0  0  0  0  0  0  0  0
    8.5652    1.5478   25.3778 N   0  0  0  0  0  0  0  0  0  0  0  0
    6.8048   -7.5457   17.8752 C   0  0  0  0  0  0  0  0  0  0  0  0
    6.1721   -8.2186   15.9886 N   0  0  0  0  0  0  0  0  0  0  0  0
   11.1764   -2.6600   19.5604 C   0  0  0  0  0  0  0  0  0  0  0  0
    9.5491   -0.6380   24.1912 C   0  0  0  0  0  0  0  0  0  0  0  0
    7.5337   -6.9256   16.9519 C   0  0  0  0  0  0  0  0  0  0  0  0
    9.6782    0.5671   23.5143 C   0  0  0  0  0  0  0  0  0  0  0  0
    8.4532    0.3482   26.0821 C   0  0  0  0  0  0  0  0  0  0  0  0
   10.4239   -1.7677   22.2230 N   0  0  0  0  0  0  0  0  0  0  0  0
    9.9468   -4.5953   20.1709 C   0  0  0  0  0  0  0  0  0  0  0  0
   10.0366   -3.0590   23.9864 N   0  0  0  0  0  0  0  0  0  0  0  0
    7.1191   -7.3636   15.7739 C   0  0  0  0  0  0  0  0  0  0  0  0
    5.9612   -8.3203   17.2732 N   0  0  0  0  0  0  0  0  0  0  0  0
    8.5296   -5.9814   17.1841 C   0  0  0  0  0  0  0  0  0  0  0  0
    9.1527   -5.2118   16.2116 C   0  0  0  0  0  0  0  0  0  0  0  0
   10.3364   -3.8368   22.9255 O   0  0  0  0  0  0  0  0  0  0  0  0
    9.6947   -4.8407   18.8534 C   0  0  0  0  0  0  0  0  0  0  0  0
    9.1596    1.7042   24.1381 C   0  0  0  0  0  0  0  0  0  0  0  0
   11.0456   -2.9774   18.2694 N   0  0  0  0  0  0  0  0  0  0  0  0
   10.4788   -3.0457   21.8593 C   0  0  0  0  0  0  0  0  0  0  0  0
    8.8693   -5.8099   18.4657 N   0  0  0  0  0  0  0  0  0  0  0  0
    8.9892   -0.7926   25.4573 C   0  0  0  0  0  0  0  0  0  0  0  0
   10.5677   -3.4462   20.5323 C   0  0  0  0  0  0  0  0  0  0  0  0
  1  8  1  0
  1 12  4  0
  1 14  4  0
  2  3  4  0
  2 18  4  0
  3 20  4  0
  3 22  4  0
  4 11  4  0
  4 21  4  0
  5  9  4  0
  5 16  4  0
  6 15  4  0
  6 16  4  0
  7 22  4  0
  7 26  4  0
  8 10  4  0
  8 25  4  0
  9 15  4  0
  9 17  1  0
 10 21  4  0
 11 25  4  0
 12 23  4  0
 13 20  4  0
 13 26  4  0
 14 19  4  0
 17 18  4  0
 17 24  4  0
 19 23  4  0
 20 24  4  0
 23 26  1  0
M  END
$$$$

 Created by Python create_sdf_string function

 26 30  0  0  0  0  0  0  0  0999 V2000
   10.0084   -1.8019   23.4945 C   0  0  0  0  0  0  0  0  0  0  0  0
   10.0005   -4.2520   16.5631 C   0  0  0  0  0  0  0  0  0  0  0  0
   10.2759   -4.0036   17.8845 C   0  0  0  0  0  0  0  0  0  0  0  0
    8.5652    1.5478   25.3778 N   0  0  0  0  0  0  0  0  0  0  0  0
    6.8048   -7.5457   17.8752 C   0  0  0  0  0  0  0  0  0  0  0  0
    6.1721   -8.2186   15.9886 N   0  0  0  0  0  0  0  0  0  0  0  0
   11.1764   -2.6600   19.5604 C   0  0  0  0  0  0  0  0  0  0  0  0
    9.5491   -0.6380   24.1912 C   0  0  0  0  0  0  0  0  0  0  0  0
    7.5337   -6.9256   16.9519 C   0  0  0  0  0  0  0  0  0  0  0  0
    9.6782    0.5671   23.5143 C   0  0  0  0  0  0  0  0  0  0  0  0
    8.4532    0.3482   26.0821 C   0  0  0  0  0  0  0  0  0  0  0  0
   10.4239   -1.7677   22.2230 N   0  0  0  0  0  0  0  0  0  0  0  0
    9.9468   -4.5953   20.1709 C   0  0  0  0  0  0  0  0  0  0  0  0
   10.0366   -3.0590   23.9864 N   0  0  0  0  0  0  0  0  0  0  0  0
    7.1191   -7.3636   15.7739 C   0  0  0  0  0  0  0  0  0  0  0  0
    5.9612   -8.3203   17.2732 N   0  0  0  0  0  0  0  0  0  0  0  0
    8.5296   -5.9814   17.1841 C   0  0  0  0  0  0  0  0  0  0  0  0
    9.1527   -5.2118   16.2116 C   0  0  0  0  0  0  0  0  0  0  0  0
   10.3364   -3.8368   22.9255 O   0  0  0  0  0  0  0  0  0  0  0  0
    9.6947   -4.8407   18.8534 C   0  0  0  0  0  0  0  0  0  0  0  0
    9.1596    1.7042   24.1381 C   0  0  0  0  0  0  0  0  0  0  0  0
   11.0456   -2.9774   18.2694 N   0  0  0  0  0  0  0  0  0  0  0  0
   10.4788   -3.0457   21.8593 C   0  0  0  0  0  0  0  0  0  0  0  0
    8.8693   -5.8099   18.4657 N   0  0  0  0  0  0  0  0  0  0  0  0
    8.9892   -0.7926   25.4573 C   0  0  0  0  0  0  0  0  0  0  0  0
   10.5677   -3.4462   20.5323 C   0  0  0  0  0  0  0  0  0  0  0  0
  1  8  1  0
  1 12  4  0
  1 14  4  0
  2  3  4  0
  2 18  4  0
  3 20  4  0
  3 22  4  0
  4 11  4  0
  4 21  4  0
  5  9  4  0
  5 16  4  0
  6 15  4  0
  6 16  4  0
  7 22  4  0
  7 26  4  0
  8 10  4  0
  8 25  4  0
  9 15  4  0
  9 17  1  0
 10 21  4  0
 11 25  4  0
 12 23  4  0
 13 20  4  0
 13 26  4  0
 14 19  4  0
 17 18  4  0
 17 24  4  0
 19 23  4  0
 20 24  4  0
 23 26  1  0
M  END
$$$$

 Created by Python create_sdf_string function

 26 30  0  0  0  0  0  0  0  0999 V2000
   10.0084   -1.8019   23.4945 C   0  0  0  0  0  0  0  0  0  0  0  0
   10.0005   -4.2520   16.5631 C   0  0  0  0  0  0  0  0  0  0  0  0
   10.2759   -4.0036   17.8845 C   0  0  0  0  0  0  0  0  0  0  0  0
    8.5652    1.5478   25.3778 N   0  0  0  0  0  0  0  0  0  0  0  0
    6.8048   -7.5457   17.8752 C   0  0  0  0  0  0  0  0  0  0  0  0
    6.1721   -8.2186   15.9886 N   0  0  0  0  0  0  0  0  0  0  0  0
   11.1764   -2.6600   19.5604 C   0  0  0  0  0  0  0  0  0  0  0  0
    9.5491   -0.6380   24.1912 C   0  0  0  0  0  0  0  0  0  0  0  0
    7.5337   -6.9256   16.9519 C   0  0  0  0  0  0  0  0  0  0  0  0
    9.6782    0.5671   23.5143 C   0  0  0  0  0  0  0  0  0  0  0  0
    8.4532    0.3482   26.0821 C   0  0  0  0  0  0  0  0  0  0  0  0
   10.4239   -1.7677   22.2230 N   0  0  0  0  0  0  0  0  0  0  0  0
    9.9468   -4.5953   20.1709 C   0  0  0  0  0  0  0  0  0  0  0  0
   10.0366   -3.0590   23.9864 N   0  0  0  0  0  0  0  0  0  0  0  0
    7.1191   -7.3636   15.7739 C   0  0  0  0  0  0  0  0  0  0  0  0
    5.9612   -8.3203   17.2732 N   0  0  0  0  0  0  0  0  0  0  0  0
    8.5296   -5.9814   17.1841 C   0  0  0  0  0  0  0  0  0  0  0  0
    9.1527   -5.2118   16.2116 C   0  0  0  0  0  0  0  0  0  0  0  0
   10.3364   -3.8368   22.9255 O   0  0  0  0  0  0  0  0  0  0  0  0
    9.6947   -4.8407   18.8534 C   0  0  0  0  0  0  0  0  0  0  0  0
    9.1596    1.7042   24.1381 C   0  0  0  0  0  0  0  0  0  0  0  0
   11.0456   -2.9774   18.2694 N   0  0  0  0  0  0  0  0  0  0  0  0
   10.4788   -3.0457   21.8593 C   0  0  0  0  0  0  0  0  0  0  0  0
    8.8693   -5.8099   18.4657 N   0  0  0  0  0  0  0  0  0  0  0  0
    8.9892   -0.7926   25.4573 C   0  0  0  0  0  0  0  0  0  0  0  0
   10.5677   -3.4462   20.5323 C   0  0  0  0  0  0  0  0  0  0  0  0
  1  8  1  0
  1 12  4  0
  1 14  4  0
  2  3  4  0
  2 18  4  0
  3 20  4  0
  3 22  4  0
  4 11  4  0
  4 21  4  0
  5  9  4  0
  5 16  4  0
  6 15  4  0
  6 16  4  0
  7 22  4  0
  7 26  4  0
  8 10  4  0
  8 25  4  0
  9 15  4  0
  9 17  1  0
 10 21  4  0
 11 25  4  0
 12 23  4  0
 13 20  4  0
 13 26  4  0
 14 19  4  0
 17 18  4  0
 17 24  4  0
 19 23  4  0
 20 24  4  0
 23 26  1  0
M  END
$$$$

 Created by Python create_sdf_string function

 26 30  0  0  0  0  0  0  0  0999 V2000
   10.0084   -1.8019   23.4945 C   0  0  0  0  0  0  0  0  0  0  0  0
   10.0005   -4.2520   16.5631 C   0  0  0  0  0  0  0  0  0  0  0  0
   10.2759   -4.0036   17.8845 C   0  0  0  0  0  0  0  0  0  0  0  0
    8.5652    1.5478   25.3778 N   0  0  0  0  0  0  0  0  0  0  0  0
    6.8048   -7.5457   17.8752 C   0  0  0  0  0  0  0  0  0  0  0  0
    6.1721   -8.2186   15.9886 N   0  0  0  0  0  0  0  0  0  0  0  0
   11.1764   -2.6600   19.5604 C   0  0  0  0  0  0  0  0  0  0  0  0
    9.5491   -0.6380   24.1912 C   0  0  0  0  0  0  0  0  0  0  0  0
    7.5337   -6.9256   16.9519 C   0  0  0  0  0  0  0  0  0  0  0  0
    9.6782    0.5671   23.5143 C   0  0  0  0  0  0  0  0  0  0  0  0
    8.4532    0.3482   26.0821 C   0  0  0  0  0  0  0  0  0  0  0  0
   10.4239   -1.7677   22.2230 N   0  0  0  0  0  0  0  0  0  0  0  0
    9.9468   -4.5953   20.1709 C   0  0  0  0  0  0  0  0  0  0  0  0
   10.0366   -3.0590   23.9864 N   0  0  0  0  0  0  0  0  0  0  0  0
    7.1191   -7.3636   15.7739 C   0  0  0  0  0  0  0  0  0  0  0  0
    5.9612   -8.3203   17.2732 N   0  0  0  0  0  0  0  0  0  0  0  0
    8.5296   -5.9814   17.1841 C   0  0  0  0  0  0  0  0  0  0  0  0
    9.1527   -5.2118   16.2116 C   0  0  0  0  0  0  0  0  0  0  0  0
   10.3364   -3.8368   22.9255 O   0  0  0  0  0  0  0  0  0  0  0  0
    9.6947   -4.8407   18.8534 C   0  0  0  0  0  0  0  0  0  0  0  0
    9.1596    1.7042   24.1381 C   0  0  0  0  0  0  0  0  0  0  0  0
   11.0456   -2.9774   18.2694 N   0  0  0  0  0  0  0  0  0  0  0  0
   10.4788   -3.0457   21.8593 C   0  0  0  0  0  0  0  0  0  0  0  0
    8.8693   -5.8099   18.4657 N   0  0  0  0  0  0  0  0  0  0  0  0
    8.9892   -0.7926   25.4573 C   0  0  0  0  0  0  0  0  0  0  0  0
   10.5677   -3.4462   20.5323 C   0  0  0  0  0  0  0  0  0  0  0  0
  1  8  1  0
  1 12  4  0
  1 14  4  0
  2  3  4  0
  2 18  4  0
  3 20  4  0
  3 22  4  0
  4 11  4  0
  4 21  4  0
  5  9  4  0
  5 16  4  0
  6 15  4  0
  6 16  4  0
  7 22  4  0
  7 26  4  0
  8 10  4  0
  8 25  4  0
  9 15  4  0
  9 17  1  0
 10 21  4  0
 11 25  4  0
 12 23  4  0
 13 20  4  0
 13 26  4  0
 14 19  4  0
 17 18  4  0
 17 24  4  0
 19 23  4  0
 20 24  4  0
 23 26  1  0
M  END
$$$$

 Created by Python create_sdf_string function

 26 30  0  0  0  0  0  0  0  0999 V2000
   10.0084   -1.8019   23.4945 C   0  0  0  0  0  0  0  0  0  0  0  0
   10.0005   -4.2520   16.5631 C   0  0  0  0  0  0  0  0  0  0  0  0
   10.2759   -4.0036   17.8845 C   0  0  0  0  0  0  0  0  0  0  0  0
    8.5652    1.5478   25.3778 N   0  0  0  0  0  0  0  0  0  0  0  0
    6.8048   -7.5457   17.8752 C   0  0  0  0  0  0  0  0  0  0  0  0
    6.1721   -8.2186   15.9886 N   0  0  0  0  0  0  0  0  0  0  0  0
   11.1764   -2.6600   19.5604 C   0  0  0  0  0  0  0  0  0  0  0  0
    9.5491   -0.6380   24.1912 C   0  0  0  0  0  0  0  0  0  0  0  0
    7.5337   -6.9256   16.9519 C   0  0  0  0  0  0  0  0  0  0  0  0
    9.6782    0.5671   23.5143 C   0  0  0  0  0  0  0  0  0  0  0  0
    8.4532    0.3482   26.0821 C   0  0  0  0  0  0  0  0  0  0  0  0
   10.4239   -1.7677   22.2230 N   0  0  0  0  0  0  0  0  0  0  0  0
    9.9468   -4.5953   20.1709 C   0  0  0  0  0  0  0  0  0  0  0  0
   10.0366   -3.0590   23.9864 N   0  0  0  0  0  0  0  0  0  0  0  0
    7.1191   -7.3636   15.7739 C   0  0  0  0  0  0  0  0  0  0  0  0
    5.9612   -8.3203   17.2732 N   0  0  0  0  0  0  0  0  0  0  0  0
    8.5296   -5.9814   17.1841 C   0  0  0  0  0  0  0  0  0  0  0  0
    9.1527   -5.2118   16.2116 C   0  0  0  0  0  0  0  0  0  0  0  0
   10.3364   -3.8368   22.9255 O   0  0  0  0  0  0  0  0  0  0  0  0
    9.6947   -4.8407   18.8534 C   0  0  0  0  0  0  0  0  0  0  0  0
    9.1596    1.7042   24.1381 C   0  0  0  0  0  0  0  0  0  0  0  0
   11.0456   -2.9774   18.2694 N   0  0  0  0  0  0  0  0  0  0  0  0
   10.4788   -3.0457   21.8593 C   0  0  0  0  0  0  0  0  0  0  0  0
    8.8693   -5.8099   18.4657 N   0  0  0  0  0  0  0  0  0  0  0  0
    8.9892   -0.7926   25.4573 C   0  0  0  0  0  0  0  0  0  0  0  0
   10.5677   -3.4462   20.5323 C   0  0  0  0  0  0  0  0  0  0  0  0
  1  8  1  0
  1 12  4  0
  1 14  4  0
  2  3  4  0
  2 18  4  0
  3 20  4  0
  3 22  4  0
  4 11  4  0
  4 21  4  0
  5  9  4  0
  5 16  4  0
  6 15  4  0
  6 16  4  0
  7 22  4  0
  7 26  4  0
  8 10  4  0
  8 25  4  0
  9 15  4  0
  9 17  1  0
 10 21  4  0
 11 25  4  0
 12 23  4  0
 13 20  4  0
 13 26  4  0
 14 19  4  0
 17 18  4  0
 17 24  4  0
 19 23  4  0
 20 24  4  0
 23 26  1  0
M  END
$$$$

 Created by Python create_sdf_string function

 26 30  0  0  0  0  0  0  0  0999 V2000
   10.0084   -1.8019   23.4945 C   0  0  0  0  0  0  0  0  0  0  0  0
   10.0005   -4.2520   16.5631 C   0  0  0  0  0  0  0  0  0  0  0  0
   10.2759   -4.0036   17.8845 C   0  0  0  0  0  0  0  0  0  0  0  0
    8.5652    1.5478   25.3778 N   0  0  0  0  0  0  0  0  0  0  0  0
    6.8048   -7.5457   17.8752 C   0  0  0  0  0  0  0  0  0  0  0  0
    6.1721   -8.2186   15.9886 N   0  0  0  0  0  0  0  0  0  0  0  0
   11.1764   -2.6600   19.5604 C   0  0  0  0  0  0  0  0  0  0  0  0
    9.5491   -0.6380   24.1912 C   0  0  0  0  0  0  0  0  0  0  0  0
    7.5337   -6.9256   16.9519 C   0  0  0  0  0  0  0  0  0  0  0  0
    9.6782    0.5671   23.5143 C   0  0  0  0  0  0  0  0  0  0  0  0
    8.4532    0.3482   26.0821 C   0  0  0  0  0  0  0  0  0  0  0  0
   10.4239   -1.7677   22.2230 N   0  0  0  0  0  0  0  0  0  0  0  0
    9.9468   -4.5953   20.1709 C   0  0  0  0  0  0  0  0  0  0  0  0
   10.0366   -3.0590   23.9864 N   0  0  0  0  0  0  0  0  0  0  0  0
    7.1191   -7.3636   15.7739 C   0  0  0  0  0  0  0  0  0  0  0  0
    5.9612   -8.3203   17.2732 N   0  0  0  0  0  0  0  0  0  0  0  0
    8.5296   -5.9814   17.1841 C   0  0  0  0  0  0  0  0  0  0  0  0
    9.1527   -5.2118   16.2116 C   0  0  0  0  0  0  0  0  0  0  0  0
   10.3364   -3.8368   22.9255 O   0  0  0  0  0  0  0  0  0  0  0  0
    9.6947   -4.8407   18.8534 C   0  0  0  0  0  0  0  0  0  0  0  0
    9.1596    1.7042   24.1381 C   0  0  0  0  0  0  0  0  0  0  0  0
   11.0456   -2.9774   18.2694 N   0  0  0  0  0  0  0  0  0  0  0  0
   10.4788   -3.0457   21.8593 C   0  0  0  0  0  0  0  0  0  0  0  0
    8.8693   -5.8099   18.4657 N   0  0  0  0  0  0  0  0  0  0  0  0
    8.9892   -0.7926   25.4573 C   0  0  0  0  0  0  0  0  0  0  0  0
   10.5677   -3.4462   20.5323 C   0  0  0  0  0  0  0  0  0  0  0  0
  1  8  1  0
  1 12  4  0
  1 14  4  0
  2  3  4  0
  2 18  4  0
  3 20  4  0
  3 22  4  0
  4 11  4  0
  4 21  4  0
  5  9  4  0
  5 16  4  0
  6 15  4  0
  6 16  4  0
  7 22  4  0
  7 26  4  0
  8 10  4  0
  8 25  4  0
  9 15  4  0
  9 17  1  0
 10 21  4  0
 11 25  4  0
 12 23  4  0
 13 20  4  0
 13 26  4  0
 14 19  4  0
 17 18  4  0
 17 24  4  0
 19 23  4  0
 20 24  4  0
 23 26  1  0
M  END
$$$$

 Created by Python create_sdf_string function

 26 30  0  0  0  0  0  0  0  0999 V2000
   10.0084   -1.8019   23.4945 C   0  0  0  0  0  0  0  0  0  0  0  0
   10.0005   -4.2520   16.5631 C   0  0  0  0  0  0  0  0  0  0  0  0
   10.2759   -4.0036   17.8845 C   0  0  0  0  0  0  0  0  0  0  0  0
    8.5652    1.5478   25.3778 N   0  0  0  0  0  0  0  0  0  0  0  0
    6.8048   -7.5457   17.8752 C   0  0  0  0  0  0  0  0  0  0  0  0
    6.1721   -8.2186   15.9886 N   0  0  0  0  0  0  0  0  0  0  0  0
   11.1764   -2.6600   19.5604 C   0  0  0  0  0  0  0  0  0  0  0  0
    9.5491   -0.6380   24.1912 C   0  0  0  0  0  0  0  0  0  0  0  0
    7.5337   -6.9256   16.9519 C   0  0  0  0  0  0  0  0  0  0  0  0
    9.6782    0.5671   23.5143 C   0  0  0  0  0  0  0  0  0  0  0  0
    8.4532    0.3482   26.0821 C   0  0  0  0  0  0  0  0  0  0  0  0
   10.4239   -1.7677   22.2230 N   0  0  0  0  0  0  0  0  0  0  0  0
    9.9468   -4.5953   20.1709 C   0  0  0  0  0  0  0  0  0  0  0  0
   10.0366   -3.0590   23.9864 N   0  0  0  0  0  0  0  0  0  0  0  0
    7.1191   -7.3636   15.7739 C   0  0  0  0  0  0  0  0  0  0  0  0
    5.9612   -8.3203   17.2732 N   0  0  0  0  0  0  0  0  0  0  0  0
    8.5296   -5.9814   17.1841 C   0  0  0  0  0  0  0  0  0  0  0  0
    9.1527   -5.2118   16.2116 C   0  0  0  0  0  0  0  0  0  0  0  0
   10.3364   -3.8368   22.9255 O   0  0  0  0  0  0  0  0  0  0  0  0
    9.6947   -4.8407   18.8534 C   0  0  0  0  0  0  0  0  0  0  0  0
    9.1596    1.7042   24.1381 C   0  0  0  0  0  0  0  0  0  0  0  0
   11.0456   -2.9774   18.2694 N   0  0  0  0  0  0  0  0  0  0  0  0
   10.4788   -3.0457   21.8593 C   0  0  0  0  0  0  0  0  0  0  0  0
    8.8693   -5.8099   18.4657 N   0  0  0  0  0  0  0  0  0  0  0  0
    8.9892   -0.7926   25.4573 C   0  0  0  0  0  0  0  0  0  0  0  0
   10.5677   -3.4462   20.5323 C   0  0  0  0  0  0  0  0  0  0  0  0
  1  8  1  0
  1 12  4  0
  1 14  4  0
  2  3  4  0
  2 18  4  0
  3 20  4  0
  3 22  4  0
  4 11  4  0
  4 21  4  0
  5  9  4  0
  5 16  4  0
  6 15  4  0
  6 16  4  0
  7 22  4  0
  7 26  4  0
  8 10  4  0
  8 25  4  0
  9 15  4  0
  9 17  1  0
 10 21  4  0
 11 25  4  0
 12 23  4  0
 13 20  4  0
 13 26  4  0
 14 19  4  0
 17 18  4  0
 17 24  4  0
 19 23  4  0
 20 24  4  0
 23 26  1  0
M  END
$$$$

 Created by Python create_sdf_string function

 26 30  0  0  0  0  0  0  0  0999 V2000
   10.0084   -1.8019   23.4945 C   0  0  0  0  0  0  0  0  0  0  0  0
   10.0005   -4.2520   16.5631 C   0  0  0  0  0  0  0  0  0  0  0  0
   10.2759   -4.0036   17.8845 C   0  0  0  0  0  0  0  0  0  0  0  0
    8.5652    1.5478   25.3778 N   0  0  0  0  0  0  0  0  0  0  0  0
    6.8048   -7.5457   17.8752 C   0  0  0  0  0  0  0  0  0  0  0  0
    6.1721   -8.2186   15.9886 N   0  0  0  0  0  0  0  0  0  0  0  0
   11.1764   -2.6600   19.5604 C   0  0  0  0  0  0  0  0  0  0  0  0
    9.5491   -0.6380   24.1912 C   0  0  0  0  0  0  0  0  0  0  0  0
    7.5337   -6.9256   16.9519 C   0  0  0  0  0  0  0  0  0  0  0  0
    9.6782    0.5671   23.5143 C   0  0  0  0  0  0  0  0  0  0  0  0
    8.4532    0.3482   26.0821 C   0  0  0  0  0  0  0  0  0  0  0  0
   10.4239   -1.7677   22.2230 N   0  0  0  0  0  0  0  0  0  0  0  0
    9.9468   -4.5953   20.1709 C   0  0  0  0  0  0  0  0  0  0  0  0
   10.0366   -3.0590   23.9864 N   0  0  0  0  0  0  0  0  0  0  0  0
    7.1191   -7.3636   15.7739 C   0  0  0  0  0  0  0  0  0  0  0  0
    5.9612   -8.3203   17.2732 N   0  0  0  0  0  0  0  0  0  0  0  0
    8.5296   -5.9814   17.1841 C   0  0  0  0  0  0  0  0  0  0  0  0
    9.1527   -5.2118   16.2116 C   0  0  0  0  0  0  0  0  0  0  0  0
   10.3364   -3.8368   22.9255 O   0  0  0  0  0  0  0  0  0  0  0  0
    9.6947   -4.8407   18.8534 C   0  0  0  0  0  0  0  0  0  0  0  0
    9.1596    1.7042   24.1381 C   0  0  0  0  0  0  0  0  0  0  0  0
   11.0456   -2.9774   18.2694 N   0  0  0  0  0  0  0  0  0  0  0  0
   10.4788   -3.0457   21.8593 C   0  0  0  0  0  0  0  0  0  0  0  0
    8.8693   -5.8099   18.4657 N   0  0  0  0  0  0  0  0  0  0  0  0
    8.9892   -0.7926   25.4573 C   0  0  0  0  0  0  0  0  0  0  0  0
   10.5677   -3.4462   20.5323 C   0  0  0  0  0  0  0  0  0  0  0  0
  1  8  1  0
  1 12  4  0
  1 14  4  0
  2  3  4  0
  2 18  4  0
  3 20  4  0
  3 22  4  0
  4 11  4  0
  4 21  4  0
  5  9  4  0
  5 16  4  0
  6 15  4  0
  6 16  4  0
  7 22  4  0
  7 26  4  0
  8 10  4  0
  8 25  4  0
  9 15  4  0
  9 17  1  0
 10 21  4  0
 11 25  4  0
 12 23  4  0
 13 20  4  0
 13 26  4  0
 14 19  4  0
 17 18  4  0
 17 24  4  0
 19 23  4  0
 20 24  4  0
 23 26  1  0
M  END
$$$$

 Created by Python create_sdf_string function

 26 30  0  0  0  0  0  0  0  0999 V2000
   10.0084   -1.8019   23.4945 C   0  0  0  0  0  0  0  0  0  0  0  0
   10.0005   -4.2520   16.5631 C   0  0  0  0  0  0  0  0  0  0  0  0
   10.2759   -4.0036   17.8845 C   0  0  0  0  0  0  0  0  0  0  0  0
    8.5652    1.5478   25.3778 N   0  0  0  0  0  0  0  0  0  0  0  0
    6.8048   -7.5457   17.8752 C   0  0  0  0  0  0  0  0  0  0  0  0
    6.1721   -8.2186   15.9886 N   0  0  0  0  0  0  0  0  0  0  0  0
   11.1764   -2.6600   19.5604 C   0  0  0  0  0  0  0  0  0  0  0  0
    9.5491   -0.6380   24.1912 C   0  0  0  0  0  0  0  0  0  0  0  0
    7.5337   -6.9256   16.9519 C   0  0  0  0  0  0  0  0  0  0  0  0
    9.6782    0.5671   23.5143 C   0  0  0  0  0  0  0  0  0  0  0  0
    8.4532    0.3482   26.0821 C   0  0  0  0  0  0  0  0  0  0  0  0
   10.4239   -1.7677   22.2230 N   0  0  0  0  0  0  0  0  0  0  0  0
    9.9468   -4.5953   20.1709 C   0  0  0  0  0  0  0  0  0  0  0  0
   10.0366   -3.0590   23.9864 N   0  0  0  0  0  0  0  0  0  0  0  0
    7.1191   -7.3636   15.7739 C   0  0  0  0  0  0  0  0  0  0  0  0
    5.9612   -8.3203   17.2732 N   0  0  0  0  0  0  0  0  0  0  0  0
    8.5296   -5.9814   17.1841 C   0  0  0  0  0  0  0  0  0  0  0  0
    9.1527   -5.2118   16.2116 C   0  0  0  0  0  0  0  0  0  0  0  0
   10.3364   -3.8368   22.9255 O   0  0  0  0  0  0  0  0  0  0  0  0
    9.6947   -4.8407   18.8534 C   0  0  0  0  0  0  0  0  0  0  0  0
    9.1596    1.7042   24.1381 C   0  0  0  0  0  0  0  0  0  0  0  0
   11.0456   -2.9774   18.2694 N   0  0  0  0  0  0  0  0  0  0  0  0
   10.4788   -3.0457   21.8593 C   0  0  0  0  0  0  0  0  0  0  0  0
    8.8693   -5.8099   18.4657 N   0  0  0  0  0  0  0  0  0  0  0  0
    8.9892   -0.7926   25.4573 C   0  0  0  0  0  0  0  0  0  0  0  0
   10.5677   -3.4462   20.5323 C   0  0  0  0  0  0  0  0  0  0  0  0
  1  8  1  0
  1 12  4  0
  1 14  4  0
  2  3  4  0
  2 18  4  0
  3 20  4  0
  3 22  4  0
  4 11  4  0
  4 21  4  0
  5  9  4  0
  5 16  4  0
  6 15  4  0
  6 16  4  0
  7 22  4  0
  7 26  4  0
  8 10  4  0
  8 25  4  0
  9 15  4  0
  9 17  1  0
 10 21  4  0
 11 25  4  0
 12 23  4  0
 13 20  4  0
 13 26  4  0
 14 19  4  0
 17 18  4  0
 17 24  4  0
 19 23  4  0
 20 24  4  0
 23 26  1  0
M  END
$$$$

 Created by Python create_sdf_string function

 26 30  0  0  0  0  0  0  0  0999 V2000
   10.0084   -1.8019   23.4945 C   0  0  0  0  0  0  0  0  0  0  0  0
   10.0005   -4.2520   16.5631 C   0  0  0  0  0  0  0  0  0  0  0  0
   10.2759   -4.0036   17.8845 C   0  0  0  0  0  0  0  0  0  0  0  0
    8.5652    1.5478   25.3778 N   0  0  0  0  0  0  0  0  0  0  0  0
    6.8048   -7.5457   17.8752 C   0  0  0  0  0  0  0  0  0  0  0  0
    6.1721   -8.2186   15.9886 N   0  0  0  0  0  0  0  0  0  0  0  0
   11.1764   -2.6600   19.5604 C   0  0  0  0  0  0  0  0  0  0  0  0
    9.5491   -0.6380   24.1912 C   0  0  0  0  0  0  0  0  0  0  0  0
    7.5337   -6.9256   16.9519 C   0  0  0  0  0  0  0  0  0  0  0  0
    9.6782    0.5671   23.5143 C   0  0  0  0  0  0  0  0  0  0  0  0
    8.4532    0.3482   26.0821 C   0  0  0  0  0  0  0  0  0  0  0  0
   10.4239   -1.7677   22.2230 N   0  0  0  0  0  0  0  0  0  0  0  0
    9.9468   -4.5953   20.1709 C   0  0  0  0  0  0  0  0  0  0  0  0
   10.0366   -3.0590   23.9864 N   0  0  0  0  0  0  0  0  0  0  0  0
    7.1191   -7.3636   15.7739 C   0  0  0  0  0  0  0  0  0  0  0  0
    5.9612   -8.3203   17.2732 N   0  0  0  0  0  0  0  0  0  0  0  0
    8.5296   -5.9814   17.1841 C   0  0  0  0  0  0  0  0  0  0  0  0
    9.1527   -5.2118   16.2116 C   0  0  0  0  0  0  0  0  0  0  0  0
   10.3364   -3.8368   22.9255 O   0  0  0  0  0  0  0  0  0  0  0  0
    9.6947   -4.8407   18.8534 C   0  0  0  0  0  0  0  0  0  0  0  0
    9.1596    1.7042   24.1381 C   0  0  0  0  0  0  0  0  0  0  0  0
   11.0456   -2.9774   18.2694 N   0  0  0  0  0  0  0  0  0  0  0  0
   10.4788   -3.0457   21.8593 C   0  0  0  0  0  0  0  0  0  0  0  0
    8.8693   -5.8099   18.4657 N   0  0  0  0  0  0  0  0  0  0  0  0
    8.9892   -0.7926   25.4573 C   0  0  0  0  0  0  0  0  0  0  0  0
   10.5677   -3.4462   20.5323 C   0  0  0  0  0  0  0  0  0  0  0  0
  1  8  1  0
  1 12  4  0
  1 14  4  0
  2  3  4  0
  2 18  4  0
  3 20  4  0
  3 22  4  0
  4 11  4  0
  4 21  4  0
  5  9  4  0
  5 16  4  0
  6 15  4  0
  6 16  4  0
  7 22  4  0
  7 26  4  0
  8 10  4  0
  8 25  4  0
  9 15  4  0
  9 17  1  0
 10 21  4  0
 11 25  4  0
 12 23  4  0
 13 20  4  0
 13 26  4  0
 14 19  4  0
 17 18  4  0
 17 24  4  0
 19 23  4  0
 20 24  4  0
 23 26  1  0
M  END
$$$$

 Created by Python create_sdf_string function

 26 30  0  0  0  0  0  0  0  0999 V2000
   10.0084   -1.8019   23.4945 C   0  0  0  0  0  0  0  0  0  0  0  0
   10.0005   -4.2520   16.5631 C   0  0  0  0  0  0  0  0  0  0  0  0
   10.2759   -4.0036   17.8845 C   0  0  0  0  0  0  0  0  0  0  0  0
    8.5652    1.5478   25.3778 N   0  0  0  0  0  0  0  0  0  0  0  0
    6.8048   -7.5457   17.8752 C   0  0  0  0  0  0  0  0  0  0  0  0
    6.1721   -8.2186   15.9886 N   0  0  0  0  0  0  0  0  0  0  0  0
   11.1764   -2.6600   19.5604 C   0  0  0  0  0  0  0  0  0  0  0  0
    9.5491   -0.6380   24.1912 C   0  0  0  0  0  0  0  0  0  0  0  0
    7.5337   -6.9256   16.9519 C   0  0  0  0  0  0  0  0  0  0  0  0
    9.6782    0.5671   23.5143 C   0  0  0  0  0  0  0  0  0  0  0  0
    8.4532    0.3482   26.0821 C   0  0  0  0  0  0  0  0  0  0  0  0
   10.4239   -1.7677   22.2230 N   0  0  0  0  0  0  0  0  0  0  0  0
    9.9468   -4.5953   20.1709 C   0  0  0  0  0  0  0  0  0  0  0  0
   10.0366   -3.0590   23.9864 N   0  0  0  0  0  0  0  0  0  0  0  0
    7.1191   -7.3636   15.7739 C   0  0  0  0  0  0  0  0  0  0  0  0
    5.9612   -8.3203   17.2732 N   0  0  0  0  0  0  0  0  0  0  0  0
    8.5296   -5.9814   17.1841 C   0  0  0  0  0  0  0  0  0  0  0  0
    9.1527   -5.2118   16.2116 C   0  0  0  0  0  0  0  0  0  0  0  0
   10.3364   -3.8368   22.9255 O   0  0  0  0  0  0  0  0  0  0  0  0
    9.6947   -4.8407   18.8534 C   0  0  0  0  0  0  0  0  0  0  0  0
    9.1596    1.7042   24.1381 C   0  0  0  0  0  0  0  0  0  0  0  0
   11.0456   -2.9774   18.2694 N   0  0  0  0  0  0  0  0  0  0  0  0
   10.4788   -3.0457   21.8593 C   0  0  0  0  0  0  0  0  0  0  0  0
    8.8693   -5.8099   18.4657 N   0  0  0  0  0  0  0  0  0  0  0  0
    8.9892   -0.7926   25.4573 C   0  0  0  0  0  0  0  0  0  0  0  0
   10.5677   -3.4462   20.5323 C   0  0  0  0  0  0  0  0  0  0  0  0
  1  8  1  0
  1 12  4  0
  1 14  4  0
  2  3  4  0
  2 18  4  0
  3 20  4  0
  3 22  4  0
  4 11  4  0
  4 21  4  0
  5  9  4  0
  5 16  4  0
  6 15  4  0
  6 16  4  0
  7 22  4  0
  7 26  4  0
  8 10  4  0
  8 25  4  0
  9 15  4  0
  9 17  1  0
 10 21  4  0
 11 25  4  0
 12 23  4  0
 13 20  4  0
 13 26  4  0
 14 19  4  0
 17 18  4  0
 17 24  4  0
 19 23  4  0
 20 24  4  0
 23 26  1  0
M  END
$$$$

 Created by Python create_sdf_string function

 26 30  0  0  0  0  0  0  0  0999 V2000
   10.0084   -1.8019   23.4945 C   0  0  0  0  0  0  0  0  0  0  0  0
   10.0005   -4.2520   16.5631 C   0  0  0  0  0  0  0  0  0  0  0  0
   10.2759   -4.0036   17.8845 C   0  0  0  0  0  0  0  0  0  0  0  0
    8.5652    1.5478   25.3778 N   0  0  0  0  0  0  0  0  0  0  0  0
    6.8048   -7.5457   17.8752 C   0  0  0  0  0  0  0  0  0  0  0  0
    6.1721   -8.2186   15.9886 N   0  0  0  0  0  0  0  0  0  0  0  0
   11.1764   -2.6600   19.5604 C   0  0  0  0  0  0  0  0  0  0  0  0
    9.5491   -0.6380   24.1912 C   0  0  0  0  0  0  0  0  0  0  0  0
    7.5337   -6.9256   16.9519 C   0  0  0  0  0  0  0  0  0  0  0  0
    9.6782    0.5671   23.5143 C   0  0  0  0  0  0  0  0  0  0  0  0
    8.4532    0.3482   26.0821 C   0  0  0  0  0  0  0  0  0  0  0  0
   10.4239   -1.7677   22.2230 N   0  0  0  0  0  0  0  0  0  0  0  0
    9.9468   -4.5953   20.1709 C   0  0  0  0  0  0  0  0  0  0  0  0
   10.0366   -3.0590   23.9864 N   0  0  0  0  0  0  0  0  0  0  0  0
    7.1191   -7.3636   15.7739 C   0  0  0  0  0  0  0  0  0  0  0  0
    5.9612   -8.3203   17.2732 N   0  0  0  0  0  0  0  0  0  0  0  0
    8.5296   -5.9814   17.1841 C   0  0  0  0  0  0  0  0  0  0  0  0
    9.1527   -5.2118   16.2116 C   0  0  0  0  0  0  0  0  0  0  0  0
   10.3364   -3.8368   22.9255 O   0  0  0  0  0  0  0  0  0  0  0  0
    9.6947   -4.8407   18.8534 C   0  0  0  0  0  0  0  0  0  0  0  0
    9.1596    1.7042   24.1381 C   0  0  0  0  0  0  0  0  0  0  0  0
   11.0456   -2.9774   18.2694 N   0  0  0  0  0  0  0  0  0  0  0  0
   10.4788   -3.0457   21.8593 C   0  0  0  0  0  0  0  0  0  0  0  0
    8.8693   -5.8099   18.4657 N   0  0  0  0  0  0  0  0  0  0  0  0
    8.9892   -0.7926   25.4573 C   0  0  0  0  0  0  0  0  0  0  0  0
   10.5677   -3.4462   20.5323 C   0  0  0  0  0  0  0  0  0  0  0  0
  1  8  1  0
  1 12  4  0
  1 14  4  0
  2  3  4  0
  2 18  4  0
  3 20  4  0
  3 22  4  0
  4 11  4  0
  4 21  4  0
  5  9  4  0
  5 16  4  0
  6 15  4  0
  6 16  4  0
  7 22  4  0
  7 26  4  0
  8 10  4  0
  8 25  4  0
  9 15  4  0
  9 17  1  0
 10 21  4  0
 11 25  4  0
 12 23  4  0
 13 20  4  0
 13 26  4  0
 14 19  4  0
 17 18  4  0
 17 24  4  0
 19 23  4  0
 20 24  4  0
 23 26  1  0
M  END
$$$$

 Created by Python create_sdf_string function

 26 30  0  0  0  0  0  0  0  0999 V2000
   10.0084   -1.8019   23.4945 C   0  0  0  0  0  0  0  0  0  0  0  0
   10.0005   -4.2520   16.5631 C   0  0  0  0  0  0  0  0  0  0  0  0
   10.2759   -4.0036   17.8845 C   0  0  0  0  0  0  0  0  0  0  0  0
    8.5652    1.5478   25.3778 N   0  0  0  0  0  0  0  0  0  0  0  0
    6.8048   -7.5457   17.8752 C   0  0  0  0  0  0  0  0  0  0  0  0
    6.1721   -8.2186   15.9886 N   0  0  0  0  0  0  0  0  0  0  0  0
   11.1764   -2.6600   19.5604 C   0  0  0  0  0  0  0  0  0  0  0  0
    9.5491   -0.6380   24.1912 C   0  0  0  0  0  0  0  0  0  0  0  0
    7.5337   -6.9256   16.9519 C   0  0  0  0  0  0  0  0  0  0  0  0
    9.6782    0.5671   23.5143 C   0  0  0  0  0  0  0  0  0  0  0  0
    8.4532    0.3482   26.0821 C   0  0  0  0  0  0  0  0  0  0  0  0
   10.4239   -1.7677   22.2230 N   0  0  0  0  0  0  0  0  0  0  0  0
    9.9468   -4.5953   20.1709 C   0  0  0  0  0  0  0  0  0  0  0  0
   10.0366   -3.0590   23.9864 N   0  0  0  0  0  0  0  0  0  0  0  0
    7.1191   -7.3636   15.7739 C   0  0  0  0  0  0  0  0  0  0  0  0
    5.9612   -8.3203   17.2732 N   0  0  0  0  0  0  0  0  0  0  0  0
    8.5296   -5.9814   17.1841 C   0  0  0  0  0  0  0  0  0  0  0  0
    9.1527   -5.2118   16.2116 C   0  0  0  0  0  0  0  0  0  0  0  0
   10.3364   -3.8368   22.9255 O   0  0  0  0  0  0  0  0  0  0  0  0
    9.6947   -4.8407   18.8534 C   0  0  0  0  0  0  0  0  0  0  0  0
    9.1596    1.7042   24.1381 C   0  0  0  0  0  0  0  0  0  0  0  0
   11.0456   -2.9774   18.2694 N   0  0  0  0  0  0  0  0  0  0  0  0
   10.4788   -3.0457   21.8593 C   0  0  0  0  0  0  0  0  0  0  0  0
    8.8693   -5.8099   18.4657 N   0  0  0  0  0  0  0  0  0  0  0  0
    8.9892   -0.7926   25.4573 C   0  0  0  0  0  0  0  0  0  0  0  0
   10.5677   -3.4462   20.5323 C   0  0  0  0  0  0  0  0  0  0  0  0
  1  8  1  0
  1 12  4  0
  1 14  4  0
  2  3  4  0
  2 18  4  0
  3 20  4  0
  3 22  4  0
  4 11  4  0
  4 21  4  0
  5  9  4  0
  5 16  4  0
  6 15  4  0
  6 16  4  0
  7 22  4  0
  7 26  4  0
  8 10  4  0
  8 25  4  0
  9 15  4  0
  9 17  1  0
 10 21  4  0
 11 25  4  0
 12 23  4  0
 13 20  4  0
 13 26  4  0
 14 19  4  0
 17 18  4  0
 17 24  4  0
 19 23  4  0
 20 24  4  0
 23 26  1  0
M  END
$$$$

 Created by Python create_sdf_string function

 26 30  0  0  0  0  0  0  0  0999 V2000
   10.0084   -1.8019   23.4945 C   0  0  0  0  0  0  0  0  0  0  0  0
   10.0005   -4.2520   16.5631 C   0  0  0  0  0  0  0  0  0  0  0  0
   10.2759   -4.0036   17.8845 C   0  0  0  0  0  0  0  0  0  0  0  0
    8.5652    1.5478   25.3778 N   0  0  0  0  0  0  0  0  0  0  0  0
    6.8048   -7.5457   17.8752 C   0  0  0  0  0  0  0  0  0  0  0  0
    6.1721   -8.2186   15.9886 N   0  0  0  0  0  0  0  0  0  0  0  0
   11.1764   -2.6600   19.5604 C   0  0  0  0  0  0  0  0  0  0  0  0
    9.5491   -0.6380   24.1912 C   0  0  0  0  0  0  0  0  0  0  0  0
    7.5337   -6.9256   16.9519 C   0  0  0  0  0  0  0  0  0  0  0  0
    9.6782    0.5671   23.5143 C   0  0  0  0  0  0  0  0  0  0  0  0
    8.4532    0.3482   26.0821 C   0  0  0  0  0  0  0  0  0  0  0  0
   10.4239   -1.7677   22.2230 N   0  0  0  0  0  0  0  0  0  0  0  0
    9.9468   -4.5953   20.1709 C   0  0  0  0  0  0  0  0  0  0  0  0
   10.0366   -3.0590   23.9864 N   0  0  0  0  0  0  0  0  0  0  0  0
    7.1191   -7.3636   15.7739 C   0  0  0  0  0  0  0  0  0  0  0  0
    5.9612   -8.3203   17.2732 N   0  0  0  0  0  0  0  0  0  0  0  0
    8.5296   -5.9814   17.1841 C   0  0  0  0  0  0  0  0  0  0  0  0
    9.1527   -5.2118   16.2116 C   0  0  0  0  0  0  0  0  0  0  0  0
   10.3364   -3.8368   22.9255 O   0  0  0  0  0  0  0  0  0  0  0  0
    9.6947   -4.8407   18.8534 C   0  0  0  0  0  0  0  0  0  0  0  0
    9.1596    1.7042   24.1381 C   0  0  0  0  0  0  0  0  0  0  0  0
   11.0456   -2.9774   18.2694 N   0  0  0  0  0  0  0  0  0  0  0  0
   10.4788   -3.0457   21.8593 C   0  0  0  0  0  0  0  0  0  0  0  0
    8.8693   -5.8099   18.4657 N   0  0  0  0  0  0  0  0  0  0  0  0
    8.9892   -0.7926   25.4573 C   0  0  0  0  0  0  0  0  0  0  0  0
   10.5677   -3.4462   20.5323 C   0  0  0  0  0  0  0  0  0  0  0  0
  1  8  1  0
  1 12  4  0
  1 14  4  0
  2  3  4  0
  2 18  4  0
  3 20  4  0
  3 22  4  0
  4 11  4  0
  4 21  4  0
  5  9  4  0
  5 16  4  0
  6 15  4  0
  6 16  4  0
  7 22  4  0
  7 26  4  0
  8 10  4  0
  8 25  4  0
  9 15  4  0
  9 17  1  0
 10 21  4  0
 11 25  4  0
 12 23  4  0
 13 20  4  0
 13 26  4  0
 14 19  4  0
 17 18  4  0
 17 24  4  0
 19 23  4  0
 20 24  4  0
 23 26  1  0
M  END
$$$$

 Created by Python create_sdf_string function

 26 30  0  0  0  0  0  0  0  0999 V2000
   10.0084   -1.8019   23.4945 C   0  0  0  0  0  0  0  0  0  0  0  0
   10.0005   -4.2520   16.5631 C   0  0  0  0  0  0  0  0  0  0  0  0
   10.2759   -4.0036   17.8845 C   0  0  0  0  0  0  0  0  0  0  0  0
    8.5652    1.5478   25.3778 N   0  0  0  0  0  0  0  0  0  0  0  0
    6.8048   -7.5457   17.8752 C   0  0  0  0  0  0  0  0  0  0  0  0
    6.1721   -8.2186   15.9886 N   0  0  0  0  0  0  0  0  0  0  0  0
   11.1764   -2.6600   19.5604 C   0  0  0  0  0  0  0  0  0  0  0  0
    9.5491   -0.6380   24.1912 C   0  0  0  0  0  0  0  0  0  0  0  0
    7.5337   -6.9256   16.9519 C   0  0  0  0  0  0  0  0  0  0  0  0
    9.6782    0.5671   23.5143 C   0  0  0  0  0  0  0  0  0  0  0  0
    8.4532    0.3482   26.0821 C   0  0  0  0  0  0  0  0  0  0  0  0
   10.4239   -1.7677   22.2230 N   0  0  0  0  0  0  0  0  0  0  0  0
    9.9468   -4.5953   20.1709 C   0  0  0  0  0  0  0  0  0  0  0  0
   10.0366   -3.0590   23.9864 N   0  0  0  0  0  0  0  0  0  0  0  0
    7.1191   -7.3636   15.7739 C   0  0  0  0  0  0  0  0  0  0  0  0
    5.9612   -8.3203   17.2732 N   0  0  0  0  0  0  0  0  0  0  0  0
    8.5296   -5.9814   17.1841 C   0  0  0  0  0  0  0  0  0  0  0  0
    9.1527   -5.2118   16.2116 C   0  0  0  0  0  0  0  0  0  0  0  0
   10.3364   -3.8368   22.9255 O   0  0  0  0  0  0  0  0  0  0  0  0
    9.6947   -4.8407   18.8534 C   0  0  0  0  0  0  0  0  0  0  0  0
    9.1596    1.7042   24.1381 C   0  0  0  0  0  0  0  0  0  0  0  0
   11.0456   -2.9774   18.2694 N   0  0  0  0  0  0  0  0  0  0  0  0
   10.4788   -3.0457   21.8593 C   0  0  0  0  0  0  0  0  0  0  0  0
    8.8693   -5.8099   18.4657 N   0  0  0  0  0  0  0  0  0  0  0  0
    8.9892   -0.7926   25.4573 C   0  0  0  0  0  0  0  0  0  0  0  0
   10.5677   -3.4462   20.5323 C   0  0  0  0  0  0  0  0  0  0  0  0
  1  8  1  0
  1 12  4  0
  1 14  4  0
  2  3  4  0
  2 18  4  0
  3 20  4  0
  3 22  4  0
  4 11  4  0
  4 21  4  0
  5  9  4  0
  5 16  4  0
  6 15  4  0
  6 16  4  0
  7 22  4  0
  7 26  4  0
  8 10  4  0
  8 25  4  0
  9 15  4  0
  9 17  1  0
 10 21  4  0
 11 25  4  0
 12 23  4  0
 13 20  4  0
 13 26  4  0
 14 19  4  0
 17 18  4  0
 17 24  4  0
 19 23  4  0
 20 24  4  0
 23 26  1  0
M  END
$$$$

 Created by Python create_sdf_string function

 26 30  0  0  0  0  0  0  0  0999 V2000
   10.0084   -1.8019   23.4945 C   0  0  0  0  0  0  0  0  0  0  0  0
   10.0005   -4.2520   16.5631 C   0  0  0  0  0  0  0  0  0  0  0  0
   10.2759   -4.0036   17.8845 C   0  0  0  0  0  0  0  0  0  0  0  0
    8.5652    1.5478   25.3778 N   0  0  0  0  0  0  0  0  0  0  0  0
    6.8048   -7.5457   17.8752 C   0  0  0  0  0  0  0  0  0  0  0  0
    6.1721   -8.2186   15.9886 N   0  0  0  0  0  0  0  0  0  0  0  0
   11.1764   -2.6600   19.5604 C   0  0  0  0  0  0  0  0  0  0  0  0
    9.5491   -0.6380   24.1912 C   0  0  0  0  0  0  0  0  0  0  0  0
    7.5337   -6.9256   16.9519 C   0  0  0  0  0  0  0  0  0  0  0  0
    9.6782    0.5671   23.5143 C   0  0  0  0  0  0  0  0  0  0  0  0
    8.4532    0.3482   26.0821 C   0  0  0  0  0  0  0  0  0  0  0  0
   10.4239   -1.7677   22.2230 N   0  0  0  0  0  0  0  0  0  0  0  0
    9.9468   -4.5953   20.1709 C   0  0  0  0  0  0  0  0  0  0  0  0
   10.0366   -3.0590   23.9864 N   0  0  0  0  0  0  0  0  0  0  0  0
    7.1191   -7.3636   15.7739 C   0  0  0  0  0  0  0  0  0  0  0  0
    5.9612   -8.3203   17.2732 N   0  0  0  0  0  0  0  0  0  0  0  0
    8.5296   -5.9814   17.1841 C   0  0  0  0  0  0  0  0  0  0  0  0
    9.1527   -5.2118   16.2116 C   0  0  0  0  0  0  0  0  0  0  0  0
   10.3364   -3.8368   22.9255 O   0  0  0  0  0  0  0  0  0  0  0  0
    9.6947   -4.8407   18.8534 C   0  0  0  0  0  0  0  0  0  0  0  0
    9.1596    1.7042   24.1381 C   0  0  0  0  0  0  0  0  0  0  0  0
   11.0456   -2.9774   18.2694 N   0  0  0  0  0  0  0  0  0  0  0  0
   10.4788   -3.0457   21.8593 C   0  0  0  0  0  0  0  0  0  0  0  0
    8.8693   -5.8099   18.4657 N   0  0  0  0  0  0  0  0  0  0  0  0
    8.9892   -0.7926   25.4573 C   0  0  0  0  0  0  0  0  0  0  0  0
   10.5677   -3.4462   20.5323 C   0  0  0  0  0  0  0  0  0  0  0  0
  1  8  1  0
  1 12  4  0
  1 14  4  0
  2  3  4  0
  2 18  4  0
  3 20  4  0
  3 22  4  0
  4 11  4  0
  4 21  4  0
  5  9  4  0
  5 16  4  0
  6 15  4  0
  6 16  4  0
  7 22  4  0
  7 26  4  0
  8 10  4  0
  8 25  4  0
  9 15  4  0
  9 17  1  0
 10 21  4  0
 11 25  4  0
 12 23  4  0
 13 20  4  0
 13 26  4  0
 14 19  4  0
 17 18  4  0
 17 24  4  0
 19 23  4  0
 20 24  4  0
 23 26  1  0
M  END
$$$$

 Created by Python create_sdf_string function

 26 30  0  0  0  0  0  0  0  0999 V2000
   10.0084   -1.8019   23.4945 C   0  0  0  0  0  0  0  0  0  0  0  0
   10.0005   -4.2520   16.5631 C   0  0  0  0  0  0  0  0  0  0  0  0
   10.2759   -4.0036   17.8845 C   0  0  0  0  0  0  0  0  0  0  0  0
    8.5652    1.5478   25.3778 N   0  0  0  0  0  0  0  0  0  0  0  0
    6.8048   -7.5457   17.8752 C   0  0  0  0  0  0  0  0  0  0  0  0
    6.1721   -8.2186   15.9886 N   0  0  0  0  0  0  0  0  0  0  0  0
   11.1764   -2.6600   19.5604 C   0  0  0  0  0  0  0  0  0  0  0  0
    9.5491   -0.6380   24.1912 C   0  0  0  0  0  0  0  0  0  0  0  0
    7.5337   -6.9256   16.9519 C   0  0  0  0  0  0  0  0  0  0  0  0
    9.6782    0.5671   23.5143 C   0  0  0  0  0  0  0  0  0  0  0  0
    8.4532    0.3482   26.0821 C   0  0  0  0  0  0  0  0  0  0  0  0
   10.4239   -1.7677   22.2230 N   0  0  0  0  0  0  0  0  0  0  0  0
    9.9468   -4.5953   20.1709 C   0  0  0  0  0  0  0  0  0  0  0  0
   10.0366   -3.0590   23.9864 N   0  0  0  0  0  0  0  0  0  0  0  0
    7.1191   -7.3636   15.7739 C   0  0  0  0  0  0  0  0  0  0  0  0
    5.9612   -8.3203   17.2732 N   0  0  0  0  0  0  0  0  0  0  0  0
    8.5296   -5.9814   17.1841 C   0  0  0  0  0  0  0  0  0  0  0  0
    9.1527   -5.2118   16.2116 C   0  0  0  0  0  0  0  0  0  0  0  0
   10.3364   -3.8368   22.9255 O   0  0  0  0  0  0  0  0  0  0  0  0
    9.6947   -4.8407   18.8534 C   0  0  0  0  0  0  0  0  0  0  0  0
    9.1596    1.7042   24.1381 C   0  0  0  0  0  0  0  0  0  0  0  0
   11.0456   -2.9774   18.2694 N   0  0  0  0  0  0  0  0  0  0  0  0
   10.4788   -3.0457   21.8593 C   0  0  0  0  0  0  0  0  0  0  0  0
    8.8693   -5.8099   18.4657 N   0  0  0  0  0  0  0  0  0  0  0  0
    8.9892   -0.7926   25.4573 C   0  0  0  0  0  0  0  0  0  0  0  0
   10.5677   -3.4462   20.5323 C   0  0  0  0  0  0  0  0  0  0  0  0
  1  8  1  0
  1 12  4  0
  1 14  4  0
  2  3  4  0
  2 18  4  0
  3 20  4  0
  3 22  4  0
  4 11  4  0
  4 21  4  0
  5  9  4  0
  5 16  4  0
  6 15  4  0
  6 16  4  0
  7 22  4  0
  7 26  4  0
  8 10  4  0
  8 25  4  0
  9 15  4  0
  9 17  1  0
 10 21  4  0
 11 25  4  0
 12 23  4  0
 13 20  4  0
 13 26  4  0
 14 19  4  0
 17 18  4  0
 17 24  4  0
 19 23  4  0
 20 24  4  0
 23 26  1  0
M  END
$$$$

 Created by Python create_sdf_string function

 26 30  0  0  0  0  0  0  0  0999 V2000
   10.0084   -1.8019   23.4945 C   0  0  0  0  0  0  0  0  0  0  0  0
   10.0005   -4.2520   16.5631 C   0  0  0  0  0  0  0  0  0  0  0  0
   10.2759   -4.0036   17.8845 C   0  0  0  0  0  0  0  0  0  0  0  0
    8.5652    1.5478   25.3778 N   0  0  0  0  0  0  0  0  0  0  0  0
    6.8048   -7.5457   17.8752 C   0  0  0  0  0  0  0  0  0  0  0  0
    6.1721   -8.2186   15.9886 N   0  0  0  0  0  0  0  0  0  0  0  0
   11.1764   -2.6600   19.5604 C   0  0  0  0  0  0  0  0  0  0  0  0
    9.5491   -0.6380   24.1912 C   0  0  0  0  0  0  0  0  0  0  0  0
    7.5337   -6.9256   16.9519 C   0  0  0  0  0  0  0  0  0  0  0  0
    9.6782    0.5671   23.5143 C   0  0  0  0  0  0  0  0  0  0  0  0
    8.4532    0.3482   26.0821 C   0  0  0  0  0  0  0  0  0  0  0  0
   10.4239   -1.7677   22.2230 N   0  0  0  0  0  0  0  0  0  0  0  0
    9.9468   -4.5953   20.1709 C   0  0  0  0  0  0  0  0  0  0  0  0
   10.0366   -3.0590   23.9864 N   0  0  0  0  0  0  0  0  0  0  0  0
    7.1191   -7.3636   15.7739 C   0  0  0  0  0  0  0  0  0  0  0  0
    5.9612   -8.3203   17.2732 N   0  0  0  0  0  0  0  0  0  0  0  0
    8.5296   -5.9814   17.1841 C   0  0  0  0  0  0  0  0  0  0  0  0
    9.1527   -5.2118   16.2116 C   0  0  0  0  0  0  0  0  0  0  0  0
   10.3364   -3.8368   22.9255 O   0  0  0  0  0  0  0  0  0  0  0  0
    9.6947   -4.8407   18.8534 C   0  0  0  0  0  0  0  0  0  0  0  0
    9.1596    1.7042   24.1381 C   0  0  0  0  0  0  0  0  0  0  0  0
   11.0456   -2.9774   18.2694 N   0  0  0  0  0  0  0  0  0  0  0  0
   10.4788   -3.0457   21.8593 C   0  0  0  0  0  0  0  0  0  0  0  0
    8.8693   -5.8099   18.4657 N   0  0  0  0  0  0  0  0  0  0  0  0
    8.9892   -0.7926   25.4573 C   0  0  0  0  0  0  0  0  0  0  0  0
   10.5677   -3.4462   20.5323 C   0  0  0  0  0  0  0  0  0  0  0  0
  1  8  1  0
  1 12  4  0
  1 14  4  0
  2  3  4  0
  2 18  4  0
  3 20  4  0
  3 22  4  0
  4 11  4  0
  4 21  4  0
  5  9  4  0
  5 16  4  0
  6 15  4  0
  6 16  4  0
  7 22  4  0
  7 26  4  0
  8 10  4  0
  8 25  4  0
  9 15  4  0
  9 17  1  0
 10 21  4  0
 11 25  4  0
 12 23  4  0
 13 20  4  0
 13 26  4  0
 14 19  4  0
 17 18  4  0
 17 24  4  0
 19 23  4  0
 20 24  4  0
 23 26  1  0
M  END
$$$$

 Created by Python create_sdf_string function

 26 30  0  0  0  0  0  0  0  0999 V2000
   10.0084   -1.8019   23.4945 C   0  0  0  0  0  0  0  0  0  0  0  0
   10.0005   -4.2520   16.5631 C   0  0  0  0  0  0  0  0  0  0  0  0
   10.2759   -4.0036   17.8845 C   0  0  0  0  0  0  0  0  0  0  0  0
    8.5652    1.5478   25.3778 N   0  0  0  0  0  0  0  0  0  0  0  0
    6.8048   -7.5457   17.8752 C   0  0  0  0  0  0  0  0  0  0  0  0
    6.1721   -8.2186   15.9886 N   0  0  0  0  0  0  0  0  0  0  0  0
   11.1764   -2.6600   19.5604 C   0  0  0  0  0  0  0  0  0  0  0  0
    9.5491   -0.6380   24.1912 C   0  0  0  0  0  0  0  0  0  0  0  0
    7.5337   -6.9256   16.9519 C   0  0  0  0  0  0  0  0  0  0  0  0
    9.6782    0.5671   23.5143 C   0  0  0  0  0  0  0  0  0  0  0  0
    8.4532    0.3482   26.0821 C   0  0  0  0  0  0  0  0  0  0  0  0
   10.4239   -1.7677   22.2230 N   0  0  0  0  0  0  0  0  0  0  0  0
    9.9468   -4.5953   20.1709 C   0  0  0  0  0  0  0  0  0  0  0  0
   10.0366   -3.0590   23.9864 N   0  0  0  0  0  0  0  0  0  0  0  0
    7.1191   -7.3636   15.7739 C   0  0  0  0  0  0  0  0  0  0  0  0
    5.9612   -8.3203   17.2732 N   0  0  0  0  0  0  0  0  0  0  0  0
    8.5296   -5.9814   17.1841 C   0  0  0  0  0  0  0  0  0  0  0  0
    9.1527   -5.2118   16.2116 C   0  0  0  0  0  0  0  0  0  0  0  0
   10.3364   -3.8368   22.9255 O   0  0  0  0  0  0  0  0  0  0  0  0
    9.6947   -4.8407   18.8534 C   0  0  0  0  0  0  0  0  0  0  0  0
    9.1596    1.7042   24.1381 C   0  0  0  0  0  0  0  0  0  0  0  0
   11.0456   -2.9774   18.2694 N   0  0  0  0  0  0  0  0  0  0  0  0
   10.4788   -3.0457   21.8593 C   0  0  0  0  0  0  0  0  0  0  0  0
    8.8693   -5.8099   18.4657 N   0  0  0  0  0  0  0  0  0  0  0  0
    8.9892   -0.7926   25.4573 C   0  0  0  0  0  0  0  0  0  0  0  0
   10.5677   -3.4462   20.5323 C   0  0  0  0  0  0  0  0  0  0  0  0
  1  8  1  0
  1 12  4  0
  1 14  4  0
  2  3  4  0
  2 18  4  0
  3 20  4  0
  3 22  4  0
  4 11  4  0
  4 21  4  0
  5  9  4  0
  5 16  4  0
  6 15  4  0
  6 16  4  0
  7 22  4  0
  7 26  4  0
  8 10  4  0
  8 25  4  0
  9 15  4  0
  9 17  1  0
 10 21  4  0
 11 25  4  0
 12 23  4  0
 13 20  4  0
 13 26  4  0
 14 19  4  0
 17 18  4  0
 17 24  4  0
 19 23  4  0
 20 24  4  0
 23 26  1  0
M  END
$$$$

 Created by Python create_sdf_string function

 26 30  0  0  0  0  0  0  0  0999 V2000
   10.0084   -1.8019   23.4945 C   0  0  0  0  0  0  0  0  0  0  0  0
   10.0005   -4.2520   16.5631 C   0  0  0  0  0  0  0  0  0  0  0  0
   10.2759   -4.0036   17.8845 C   0  0  0  0  0  0  0  0  0  0  0  0
    8.5652    1.5478   25.3778 N   0  0  0  0  0  0  0  0  0  0  0  0
    6.8048   -7.5457   17.8752 C   0  0  0  0  0  0  0  0  0  0  0  0
    6.1721   -8.2186   15.9886 N   0  0  0  0  0  0  0  0  0  0  0  0
   11.1764   -2.6600   19.5604 C   0  0  0  0  0  0  0  0  0  0  0  0
    9.5491   -0.6380   24.1912 C   0  0  0  0  0  0  0  0  0  0  0  0
    7.5337   -6.9256   16.9519 C   0  0  0  0  0  0  0  0  0  0  0  0
    9.6782    0.5671   23.5143 C   0  0  0  0  0  0  0  0  0  0  0  0
    8.4532    0.3482   26.0821 C   0  0  0  0  0  0  0  0  0  0  0  0
   10.4239   -1.7677   22.2230 N   0  0  0  0  0  0  0  0  0  0  0  0
    9.9468   -4.5953   20.1709 C   0  0  0  0  0  0  0  0  0  0  0  0
   10.0366   -3.0590   23.9864 N   0  0  0  0  0  0  0  0  0  0  0  0
    7.1191   -7.3636   15.7739 C   0  0  0  0  0  0  0  0  0  0  0  0
    5.9612   -8.3203   17.2732 N   0  0  0  0  0  0  0  0  0  0  0  0
    8.5296   -5.9814   17.1841 C   0  0  0  0  0  0  0  0  0  0  0  0
    9.1527   -5.2118   16.2116 C   0  0  0  0  0  0  0  0  0  0  0  0
   10.3364   -3.8368   22.9255 O   0  0  0  0  0  0  0  0  0  0  0  0
    9.6947   -4.8407   18.8534 C   0  0  0  0  0  0  0  0  0  0  0  0
    9.1596    1.7042   24.1381 C   0  0  0  0  0  0  0  0  0  0  0  0
   11.0456   -2.9774   18.2694 N   0  0  0  0  0  0  0  0  0  0  0  0
   10.4788   -3.0457   21.8593 C   0  0  0  0  0  0  0  0  0  0  0  0
    8.8693   -5.8099   18.4657 N   0  0  0  0  0  0  0  0  0  0  0  0
    8.9892   -0.7926   25.4573 C   0  0  0  0  0  0  0  0  0  0  0  0
   10.5677   -3.4462   20.5323 C   0  0  0  0  0  0  0  0  0  0  0  0
  1  8  1  0
  1 12  4  0
  1 14  4  0
  2  3  4  0
  2 18  4  0
  3 20  4  0
  3 22  4  0
  4 11  4  0
  4 21  4  0
  5  9  4  0
  5 16  4  0
  6 15  4  0
  6 16  4  0
  7 22  4  0
  7 26  4  0
  8 10  4  0
  8 25  4  0
  9 15  4  0
  9 17  1  0
 10 21  4  0
 11 25  4  0
 12 23  4  0
 13 20  4  0
 13 26  4  0
 14 19  4  0
 17 18  4  0
 17 24  4  0
 19 23  4  0
 20 24  4  0
 23 26  1  0
M  END
$$$$

 Created by Python create_sdf_string function

 26 30  0  0  0  0  0  0  0  0999 V2000
   10.0084   -1.8019   23.4945 C   0  0  0  0  0  0  0  0  0  0  0  0
   10.0005   -4.2520   16.5631 C   0  0  0  0  0  0  0  0  0  0  0  0
   10.2759   -4.0036   17.8845 C   0  0  0  0  0  0  0  0  0  0  0  0
    8.5652    1.5478   25.3778 N   0  0  0  0  0  0  0  0  0  0  0  0
    6.8048   -7.5457   17.8752 C   0  0  0  0  0  0  0  0  0  0  0  0
    6.1721   -8.2186   15.9886 N   0  0  0  0  0  0  0  0  0  0  0  0
   11.1764   -2.6600   19.5604 C   0  0  0  0  0  0  0  0  0  0  0  0
    9.5491   -0.6380   24.1912 C   0  0  0  0  0  0  0  0  0  0  0  0
    7.5337   -6.9256   16.9519 C   0  0  0  0  0  0  0  0  0  0  0  0
    9.6782    0.5671   23.5143 C   0  0  0  0  0  0  0  0  0  0  0  0
    8.4532    0.3482   26.0821 C   0  0  0  0  0  0  0  0  0  0  0  0
   10.4239   -1.7677   22.2230 N   0  0  0  0  0  0  0  0  0  0  0  0
    9.9468   -4.5953   20.1709 C   0  0  0  0  0  0  0  0  0  0  0  0
   10.0366   -3.0590   23.9864 N   0  0  0  0  0  0  0  0  0  0  0  0
    7.1191   -7.3636   15.7739 C   0  0  0  0  0  0  0  0  0  0  0  0
    5.9612   -8.3203   17.2732 N   0  0  0  0  0  0  0  0  0  0  0  0
    8.5296   -5.9814   17.1841 C   0  0  0  0  0  0  0  0  0  0  0  0
    9.1527   -5.2118   16.2116 C   0  0  0  0  0  0  0  0  0  0  0  0
   10.3364   -3.8368   22.9255 O   0  0  0  0  0  0  0  0  0  0  0  0
    9.6947   -4.8407   18.8534 C   0  0  0  0  0  0  0  0  0  0  0  0
    9.1596    1.7042   24.1381 C   0  0  0  0  0  0  0  0  0  0  0  0
   11.0456   -2.9774   18.2694 N   0  0  0  0  0  0  0  0  0  0  0  0
   10.4788   -3.0457   21.8593 C   0  0  0  0  0  0  0  0  0  0  0  0
    8.8693   -5.8099   18.4657 N   0  0  0  0  0  0  0  0  0  0  0  0
    8.9892   -0.7926   25.4573 C   0  0  0  0  0  0  0  0  0  0  0  0
   10.5677   -3.4462   20.5323 C   0  0  0  0  0  0  0  0  0  0  0  0
  1  8  1  0
  1 12  4  0
  1 14  4  0
  2  3  4  0
  2 18  4  0
  3 20  4  0
  3 22  4  0
  4 11  4  0
  4 21  4  0
  5  9  4  0
  5 16  4  0
  6 15  4  0
  6 16  4  0
  7 22  4  0
  7 26  4  0
  8 10  4  0
  8 25  4  0
  9 15  4  0
  9 17  1  0
 10 21  4  0
 11 25  4  0
 12 23  4  0
 13 20  4  0
 13 26  4  0
 14 19  4  0
 17 18  4  0
 17 24  4  0
 19 23  4  0
 20 24  4  0
 23 26  1  0
M  END
$$$$

 Created by Python create_sdf_string function

 26 30  0  0  0  0  0  0  0  0999 V2000
   10.0084   -1.8019   23.4945 C   0  0  0  0  0  0  0  0  0  0  0  0
   10.0005   -4.2520   16.5631 C   0  0  0  0  0  0  0  0  0  0  0  0
   10.2759   -4.0036   17.8845 C   0  0  0  0  0  0  0  0  0  0  0  0
    8.5652    1.5478   25.3778 N   0  0  0  0  0  0  0  0  0  0  0  0
    6.8048   -7.5457   17.8752 C   0  0  0  0  0  0  0  0  0  0  0  0
    6.1721   -8.2186   15.9886 N   0  0  0  0  0  0  0  0  0  0  0  0
   11.1764   -2.6600   19.5604 C   0  0  0  0  0  0  0  0  0  0  0  0
    9.5491   -0.6380   24.1912 C   0  0  0  0  0  0  0  0  0  0  0  0
    7.5337   -6.9256   16.9519 C   0  0  0  0  0  0  0  0  0  0  0  0
    9.6782    0.5671   23.5143 C   0  0  0  0  0  0  0  0  0  0  0  0
    8.4532    0.3482   26.0821 C   0  0  0  0  0  0  0  0  0  0  0  0
   10.4239   -1.7677   22.2230 N   0  0  0  0  0  0  0  0  0  0  0  0
    9.9468   -4.5953   20.1709 C   0  0  0  0  0  0  0  0  0  0  0  0
   10.0366   -3.0590   23.9864 N   0  0  0  0  0  0  0  0  0  0  0  0
    7.1191   -7.3636   15.7739 C   0  0  0  0  0  0  0  0  0  0  0  0
    5.9612   -8.3203   17.2732 N   0  0  0  0  0  0  0  0  0  0  0  0
    8.5296   -5.9814   17.1841 C   0  0  0  0  0  0  0  0  0  0  0  0
    9.1527   -5.2118   16.2116 C   0  0  0  0  0  0  0  0  0  0  0  0
   10.3364   -3.8368   22.9255 O   0  0  0  0  0  0  0  0  0  0  0  0
    9.6947   -4.8407   18.8534 C   0  0  0  0  0  0  0  0  0  0  0  0
    9.1596    1.7042   24.1381 C   0  0  0  0  0  0  0  0  0  0  0  0
   11.0456   -2.9774   18.2694 N   0  0  0  0  0  0  0  0  0  0  0  0
   10.4788   -3.0457   21.8593 C   0  0  0  0  0  0  0  0  0  0  0  0
    8.8693   -5.8099   18.4657 N   0  0  0  0  0  0  0  0  0  0  0  0
    8.9892   -0.7926   25.4573 C   0  0  0  0  0  0  0  0  0  0  0  0
   10.5677   -3.4462   20.5323 C   0  0  0  0  0  0  0  0  0  0  0  0
  1  8  1  0
  1 12  4  0
  1 14  4  0
  2  3  4  0
  2 18  4  0
  3 20  4  0
  3 22  4  0
  4 11  4  0
  4 21  4  0
  5  9  4  0
  5 16  4  0
  6 15  4  0
  6 16  4  0
  7 22  4  0
  7 26  4  0
  8 10  4  0
  8 25  4  0
  9 15  4  0
  9 17  1  0
 10 21  4  0
 11 25  4  0
 12 23  4  0
 13 20  4  0
 13 26  4  0
 14 19  4  0
 17 18  4  0
 17 24  4  0
 19 23  4  0
 20 24  4  0
 23 26  1  0
M  END
$$$$

 Created by Python create_sdf_string function

 26 30  0  0  0  0  0  0  0  0999 V2000
   10.0084   -1.8019   23.4945 C   0  0  0  0  0  0  0  0  0  0  0  0
   10.0005   -4.2520   16.5631 C   0  0  0  0  0  0  0  0  0  0  0  0
   10.2759   -4.0036   17.8845 C   0  0  0  0  0  0  0  0  0  0  0  0
    8.5652    1.5478   25.3778 N   0  0  0  0  0  0  0  0  0  0  0  0
    6.8048   -7.5457   17.8752 C   0  0  0  0  0  0  0  0  0  0  0  0
    6.1721   -8.2186   15.9886 N   0  0  0  0  0  0  0  0  0  0  0  0
   11.1764   -2.6600   19.5604 C   0  0  0  0  0  0  0  0  0  0  0  0
    9.5491   -0.6380   24.1912 C   0  0  0  0  0  0  0  0  0  0  0  0
    7.5337   -6.9256   16.9519 C   0  0  0  0  0  0  0  0  0  0  0  0
    9.6782    0.5671   23.5143 C   0  0  0  0  0  0  0  0  0  0  0  0
    8.4532    0.3482   26.0821 C   0  0  0  0  0  0  0  0  0  0  0  0
   10.4239   -1.7677   22.2230 N   0  0  0  0  0  0  0  0  0  0  0  0
    9.9468   -4.5953   20.1709 C   0  0  0  0  0  0  0  0  0  0  0  0
   10.0366   -3.0590   23.9864 N   0  0  0  0  0  0  0  0  0  0  0  0
    7.1191   -7.3636   15.7739 C   0  0  0  0  0  0  0  0  0  0  0  0
    5.9612   -8.3203   17.2732 N   0  0  0  0  0  0  0  0  0  0  0  0
    8.5296   -5.9814   17.1841 C   0  0  0  0  0  0  0  0  0  0  0  0
    9.1527   -5.2118   16.2116 C   0  0  0  0  0  0  0  0  0  0  0  0
   10.3364   -3.8368   22.9255 O   0  0  0  0  0  0  0  0  0  0  0  0
    9.6947   -4.8407   18.8534 C   0  0  0  0  0  0  0  0  0  0  0  0
    9.1596    1.7042   24.1381 C   0  0  0  0  0  0  0  0  0  0  0  0
   11.0456   -2.9774   18.2694 N   0  0  0  0  0  0  0  0  0  0  0  0
   10.4788   -3.0457   21.8593 C   0  0  0  0  0  0  0  0  0  0  0  0
    8.8693   -5.8099   18.4657 N   0  0  0  0  0  0  0  0  0  0  0  0
    8.9892   -0.7926   25.4573 C   0  0  0  0  0  0  0  0  0  0  0  0
   10.5677   -3.4462   20.5323 C   0  0  0  0  0  0  0  0  0  0  0  0
  1  8  1  0
  1 12  4  0
  1 14  4  0
  2  3  4  0
  2 18  4  0
  3 20  4  0
  3 22  4  0
  4 11  4  0
  4 21  4  0
  5  9  4  0
  5 16  4  0
  6 15  4  0
  6 16  4  0
  7 22  4  0
  7 26  4  0
  8 10  4  0
  8 25  4  0
  9 15  4  0
  9 17  1  0
 10 21  4  0
 11 25  4  0
 12 23  4  0
 13 20  4  0
 13 26  4  0
 14 19  4  0
 17 18  4  0
 17 24  4  0
 19 23  4  0
 20 24  4  0
 23 26  1  0
M  END
$$$$

 Created by Python create_sdf_string function

 26 30  0  0  0  0  0  0  0  0999 V2000
   10.0084   -1.8019   23.4945 C   0  0  0  0  0  0  0  0  0  0  0  0
   10.0005   -4.2520   16.5631 C   0  0  0  0  0  0  0  0  0  0  0  0
   10.2759   -4.0036   17.8845 C   0  0  0  0  0  0  0  0  0  0  0  0
    8.5652    1.5478   25.3778 N   0  0  0  0  0  0  0  0  0  0  0  0
    6.8048   -7.5457   17.8752 C   0  0  0  0  0  0  0  0  0  0  0  0
    6.1721   -8.2186   15.9886 N   0  0  0  0  0  0  0  0  0  0  0  0
   11.1764   -2.6600   19.5604 C   0  0  0  0  0  0  0  0  0  0  0  0
    9.5491   -0.6380   24.1912 C   0  0  0  0  0  0  0  0  0  0  0  0
    7.5337   -6.9256   16.9519 C   0  0  0  0  0  0  0  0  0  0  0  0
    9.6782    0.5671   23.5143 C   0  0  0  0  0  0  0  0  0  0  0  0
    8.4532    0.3482   26.0821 C   0  0  0  0  0  0  0  0  0  0  0  0
   10.4239   -1.7677   22.2230 N   0  0  0  0  0  0  0  0  0  0  0  0
    9.9468   -4.5953   20.1709 C   0  0  0  0  0  0  0  0  0  0  0  0
   10.0366   -3.0590   23.9864 N   0  0  0  0  0  0  0  0  0  0  0  0
    7.1191   -7.3636   15.7739 C   0  0  0  0  0  0  0  0  0  0  0  0
    5.9612   -8.3203   17.2732 N   0  0  0  0  0  0  0  0  0  0  0  0
    8.5296   -5.9814   17.1841 C   0  0  0  0  0  0  0  0  0  0  0  0
    9.1527   -5.2118   16.2116 C   0  0  0  0  0  0  0  0  0  0  0  0
   10.3364   -3.8368   22.9255 O   0  0  0  0  0  0  0  0  0  0  0  0
    9.6947   -4.8407   18.8534 C   0  0  0  0  0  0  0  0  0  0  0  0
    9.1596    1.7042   24.1381 C   0  0  0  0  0  0  0  0  0  0  0  0
   11.0456   -2.9774   18.2694 N   0  0  0  0  0  0  0  0  0  0  0  0
   10.4788   -3.0457   21.8593 C   0  0  0  0  0  0  0  0  0  0  0  0
    8.8693   -5.8099   18.4657 N   0  0  0  0  0  0  0  0  0  0  0  0
    8.9892   -0.7926   25.4573 C   0  0  0  0  0  0  0  0  0  0  0  0
   10.5677   -3.4462   20.5323 C   0  0  0  0  0  0  0  0  0  0  0  0
  1  8  1  0
  1 12  4  0
  1 14  4  0
  2  3  4  0
  2 18  4  0
  3 20  4  0
  3 22  4  0
  4 11  4  0
  4 21  4  0
  5  9  4  0
  5 16  4  0
  6 15  4  0
  6 16  4  0
  7 22  4  0
  7 26  4  0
  8 10  4  0
  8 25  4  0
  9 15  4  0
  9 17  1  0
 10 21  4  0
 11 25  4  0
 12 23  4  0
 13 20  4  0
 13 26  4  0
 14 19  4  0
 17 18  4  0
 17 24  4  0
 19 23  4  0
 20 24  4  0
 23 26  1  0
M  END
$$$$

 Created by Python create_sdf_string function

 26 30  0  0  0  0  0  0  0  0999 V2000
   10.0084   -1.8019   23.4945 C   0  0  0  0  0  0  0  0  0  0  0  0
   10.0005   -4.2520   16.5631 C   0  0  0  0  0  0  0  0  0  0  0  0
   10.2759   -4.0036   17.8845 C   0  0  0  0  0  0  0  0  0  0  0  0
    8.5652    1.5478   25.3778 N   0  0  0  0  0  0  0  0  0  0  0  0
    6.8048   -7.5457   17.8752 C   0  0  0  0  0  0  0  0  0  0  0  0
    6.1721   -8.2186   15.9886 N   0  0  0  0  0  0  0  0  0  0  0  0
   11.1764   -2.6600   19.5604 C   0  0  0  0  0  0  0  0  0  0  0  0
    9.5491   -0.6380   24.1912 C   0  0  0  0  0  0  0  0  0  0  0  0
    7.5337   -6.9256   16.9519 C   0  0  0  0  0  0  0  0  0  0  0  0
    9.6782    0.5671   23.5143 C   0  0  0  0  0  0  0  0  0  0  0  0
    8.4532    0.3482   26.0821 C   0  0  0  0  0  0  0  0  0  0  0  0
   10.4239   -1.7677   22.2230 N   0  0  0  0  0  0  0  0  0  0  0  0
    9.9468   -4.5953   20.1709 C   0  0  0  0  0  0  0  0  0  0  0  0
   10.0366   -3.0590   23.9864 N   0  0  0  0  0  0  0  0  0  0  0  0
    7.1191   -7.3636   15.7739 C   0  0  0  0  0  0  0  0  0  0  0  0
    5.9612   -8.3203   17.2732 N   0  0  0  0  0  0  0  0  0  0  0  0
    8.5296   -5.9814   17.1841 C   0  0  0  0  0  0  0  0  0  0  0  0
    9.1527   -5.2118   16.2116 C   0  0  0  0  0  0  0  0  0  0  0  0
   10.3364   -3.8368   22.9255 O   0  0  0  0  0  0  0  0  0  0  0  0
    9.6947   -4.8407   18.8534 C   0  0  0  0  0  0  0  0  0  0  0  0
    9.1596    1.7042   24.1381 C   0  0  0  0  0  0  0  0  0  0  0  0
   11.0456   -2.9774   18.2694 N   0  0  0  0  0  0  0  0  0  0  0  0
   10.4788   -3.0457   21.8593 C   0  0  0  0  0  0  0  0  0  0  0  0
    8.8693   -5.8099   18.4657 N   0  0  0  0  0  0  0  0  0  0  0  0
    8.9892   -0.7926   25.4573 C   0  0  0  0  0  0  0  0  0  0  0  0
   10.5677   -3.4462   20.5323 C   0  0  0  0  0  0  0  0  0  0  0  0
  1  8  1  0
  1 12  4  0
  1 14  4  0
  2  3  4  0
  2 18  4  0
  3 20  4  0
  3 22  4  0
  4 11  4  0
  4 21  4  0
  5  9  4  0
  5 16  4  0
  6 15  4  0
  6 16  4  0
  7 22  4  0
  7 26  4  0
  8 10  4  0
  8 25  4  0
  9 15  4  0
  9 17  1  0
 10 21  4  0
 11 25  4  0
 12 23  4  0
 13 20  4  0
 13 26  4  0
 14 19  4  0
 17 18  4  0
 17 24  4  0
 19 23  4  0
 20 24  4  0
 23 26  1  0
M  END
$$$$

 Created by Python create_sdf_string function

 26 30  0  0  0  0  0  0  0  0999 V2000
   10.0084   -1.8019   23.4945 C   0  0  0  0  0  0  0  0  0  0  0  0
   10.0005   -4.2520   16.5631 C   0  0  0  0  0  0  0  0  0  0  0  0
   10.2759   -4.0036   17.8845 C   0  0  0  0  0  0  0  0  0  0  0  0
    8.5652    1.5478   25.3778 N   0  0  0  0  0  0  0  0  0  0  0  0
    6.8048   -7.5457   17.8752 C   0  0  0  0  0  0  0  0  0  0  0  0
    6.1721   -8.2186   15.9886 N   0  0  0  0  0  0  0  0  0  0  0  0
   11.1764   -2.6600   19.5604 C   0  0  0  0  0  0  0  0  0  0  0  0
    9.5491   -0.6380   24.1912 C   0  0  0  0  0  0  0  0  0  0  0  0
    7.5337   -6.9256   16.9519 C   0  0  0  0  0  0  0  0  0  0  0  0
    9.6782    0.5671   23.5143 C   0  0  0  0  0  0  0  0  0  0  0  0
    8.4532    0.3482   26.0821 C   0  0  0  0  0  0  0  0  0  0  0  0
   10.4239   -1.7677   22.2230 N   0  0  0  0  0  0  0  0  0  0  0  0
    9.9468   -4.5953   20.1709 C   0  0  0  0  0  0  0  0  0  0  0  0
   10.0366   -3.0590   23.9864 N   0  0  0  0  0  0  0  0  0  0  0  0
    7.1191   -7.3636   15.7739 C   0  0  0  0  0  0  0  0  0  0  0  0
    5.9612   -8.3203   17.2732 N   0  0  0  0  0  0  0  0  0  0  0  0
    8.5296   -5.9814   17.1841 C   0  0  0  0  0  0  0  0  0  0  0  0
    9.1527   -5.2118   16.2116 C   0  0  0  0  0  0  0  0  0  0  0  0
   10.3364   -3.8368   22.9255 O   0  0  0  0  0  0  0  0  0  0  0  0
    9.6947   -4.8407   18.8534 C   0  0  0  0  0  0  0  0  0  0  0  0
    9.1596    1.7042   24.1381 C   0  0  0  0  0  0  0  0  0  0  0  0
   11.0456   -2.9774   18.2694 N   0  0  0  0  0  0  0  0  0  0  0  0
   10.4788   -3.0457   21.8593 C   0  0  0  0  0  0  0  0  0  0  0  0
    8.8693   -5.8099   18.4657 N   0  0  0  0  0  0  0  0  0  0  0  0
    8.9892   -0.7926   25.4573 C   0  0  0  0  0  0  0  0  0  0  0  0
   10.5677   -3.4462   20.5323 C   0  0  0  0  0  0  0  0  0  0  0  0
  1  8  1  0
  1 12  4  0
  1 14  4  0
  2  3  4  0
  2 18  4  0
  3 20  4  0
  3 22  4  0
  4 11  4  0
  4 21  4  0
  5  9  4  0
  5 16  4  0
  6 15  4  0
  6 16  4  0
  7 22  4  0
  7 26  4  0
  8 10  4  0
  8 25  4  0
  9 15  4  0
  9 17  1  0
 10 21  4  0
 11 25  4  0
 12 23  4  0
 13 20  4  0
 13 26  4  0
 14 19  4  0
 17 18  4  0
 17 24  4  0
 19 23  4  0
 20 24  4  0
 23 26  1  0
M  END
$$$$

 Created by Python create_sdf_string function

 26 30  0  0  0  0  0  0  0  0999 V2000
   10.0084   -1.8019   23.4945 C   0  0  0  0  0  0  0  0  0  0  0  0
   10.0005   -4.2520   16.5631 C   0  0  0  0  0  0  0  0  0  0  0  0
   10.2759   -4.0036   17.8845 C   0  0  0  0  0  0  0  0  0  0  0  0
    8.5652    1.5478   25.3778 N   0  0  0  0  0  0  0  0  0  0  0  0
    6.8048   -7.5457   17.8752 C   0  0  0  0  0  0  0  0  0  0  0  0
    6.1721   -8.2186   15.9886 N   0  0  0  0  0  0  0  0  0  0  0  0
   11.1764   -2.6600   19.5604 C   0  0  0  0  0  0  0  0  0  0  0  0
    9.5491   -0.6380   24.1912 C   0  0  0  0  0  0  0  0  0  0  0  0
    7.5337   -6.9256   16.9519 C   0  0  0  0  0  0  0  0  0  0  0  0
    9.6782    0.5671   23.5143 C   0  0  0  0  0  0  0  0  0  0  0  0
    8.4532    0.3482   26.0821 C   0  0  0  0  0  0  0  0  0  0  0  0
   10.4239   -1.7677   22.2230 N   0  0  0  0  0  0  0  0  0  0  0  0
    9.9468   -4.5953   20.1709 C   0  0  0  0  0  0  0  0  0  0  0  0
   10.0366   -3.0590   23.9864 N   0  0  0  0  0  0  0  0  0  0  0  0
    7.1191   -7.3636   15.7739 C   0  0  0  0  0  0  0  0  0  0  0  0
    5.9612   -8.3203   17.2732 N   0  0  0  0  0  0  0  0  0  0  0  0
    8.5296   -5.9814   17.1841 C   0  0  0  0  0  0  0  0  0  0  0  0
    9.1527   -5.2118   16.2116 C   0  0  0  0  0  0  0  0  0  0  0  0
   10.3364   -3.8368   22.9255 O   0  0  0  0  0  0  0  0  0  0  0  0
    9.6947   -4.8407   18.8534 C   0  0  0  0  0  0  0  0  0  0  0  0
    9.1596    1.7042   24.1381 C   0  0  0  0  0  0  0  0  0  0  0  0
   11.0456   -2.9774   18.2694 N   0  0  0  0  0  0  0  0  0  0  0  0
   10.4788   -3.0457   21.8593 C   0  0  0  0  0  0  0  0  0  0  0  0
    8.8693   -5.8099   18.4657 N   0  0  0  0  0  0  0  0  0  0  0  0
    8.9892   -0.7926   25.4573 C   0  0  0  0  0  0  0  0  0  0  0  0
   10.5677   -3.4462   20.5323 C   0  0  0  0  0  0  0  0  0  0  0  0
  1  8  1  0
  1 12  4  0
  1 14  4  0
  2  3  4  0
  2 18  4  0
  3 20  4  0
  3 22  4  0
  4 11  4  0
  4 21  4  0
  5  9  4  0
  5 16  4  0
  6 15  4  0
  6 16  4  0
  7 22  4  0
  7 26  4  0
  8 10  4  0
  8 25  4  0
  9 15  4  0
  9 17  1  0
 10 21  4  0
 11 25  4  0
 12 23  4  0
 13 20  4  0
 13 26  4  0
 14 19  4  0
 17 18  4  0
 17 24  4  0
 19 23  4  0
 20 24  4  0
 23 26  1  0
M  END
$$$$

 Created by Python create_sdf_string function

 26 30  0  0  0  0  0  0  0  0999 V2000
   10.0084   -1.8019   23.4945 C   0  0  0  0  0  0  0  0  0  0  0  0
   10.0005   -4.2520   16.5631 C   0  0  0  0  0  0  0  0  0  0  0  0
   10.2759   -4.0036   17.8845 C   0  0  0  0  0  0  0  0  0  0  0  0
    8.5652    1.5478   25.3778 N   0  0  0  0  0  0  0  0  0  0  0  0
    6.8048   -7.5457   17.8752 C   0  0  0  0  0  0  0  0  0  0  0  0
    6.1721   -8.2186   15.9886 N   0  0  0  0  0  0  0  0  0  0  0  0
   11.1764   -2.6600   19.5604 C   0  0  0  0  0  0  0  0  0  0  0  0
    9.5491   -0.6380   24.1912 C   0  0  0  0  0  0  0  0  0  0  0  0
    7.5337   -6.9256   16.9519 C   0  0  0  0  0  0  0  0  0  0  0  0
    9.6782    0.5671   23.5143 C   0  0  0  0  0  0  0  0  0  0  0  0
    8.4532    0.3482   26.0821 C   0  0  0  0  0  0  0  0  0  0  0  0
   10.4239   -1.7677   22.2230 N   0  0  0  0  0  0  0  0  0  0  0  0
    9.9468   -4.5953   20.1709 C   0  0  0  0  0  0  0  0  0  0  0  0
   10.0366   -3.0590   23.9864 N   0  0  0  0  0  0  0  0  0  0  0  0
    7.1191   -7.3636   15.7739 C   0  0  0  0  0  0  0  0  0  0  0  0
    5.9612   -8.3203   17.2732 N   0  0  0  0  0  0  0  0  0  0  0  0
    8.5296   -5.9814   17.1841 C   0  0  0  0  0  0  0  0  0  0  0  0
    9.1527   -5.2118   16.2116 C   0  0  0  0  0  0  0  0  0  0  0  0
   10.3364   -3.8368   22.9255 O   0  0  0  0  0  0  0  0  0  0  0  0
    9.6947   -4.8407   18.8534 C   0  0  0  0  0  0  0  0  0  0  0  0
    9.1596    1.7042   24.1381 C   0  0  0  0  0  0  0  0  0  0  0  0
   11.0456   -2.9774   18.2694 N   0  0  0  0  0  0  0  0  0  0  0  0
   10.4788   -3.0457   21.8593 C   0  0  0  0  0  0  0  0  0  0  0  0
    8.8693   -5.8099   18.4657 N   0  0  0  0  0  0  0  0  0  0  0  0
    8.9892   -0.7926   25.4573 C   0  0  0  0  0  0  0  0  0  0  0  0
   10.5677   -3.4462   20.5323 C   0  0  0  0  0  0  0  0  0  0  0  0
  1  8  1  0
  1 12  4  0
  1 14  4  0
  2  3  4  0
  2 18  4  0
  3 20  4  0
  3 22  4  0
  4 11  4  0
  4 21  4  0
  5  9  4  0
  5 16  4  0
  6 15  4  0
  6 16  4  0
  7 22  4  0
  7 26  4  0
  8 10  4  0
  8 25  4  0
  9 15  4  0
  9 17  1  0
 10 21  4  0
 11 25  4  0
 12 23  4  0
 13 20  4  0
 13 26  4  0
 14 19  4  0
 17 18  4  0
 17 24  4  0
 19 23  4  0
 20 24  4  0
 23 26  1  0
M  END
$$$$

 Created by Python create_sdf_string function

 26 30  0  0  0  0  0  0  0  0999 V2000
   10.0084   -1.8019   23.4945 C   0  0  0  0  0  0  0  0  0  0  0  0
   10.0005   -4.2520   16.5631 C   0  0  0  0  0  0  0  0  0  0  0  0
   10.2759   -4.0036   17.8845 C   0  0  0  0  0  0  0  0  0  0  0  0
    8.5652    1.5478   25.3778 N   0  0  0  0  0  0  0  0  0  0  0  0
    6.8048   -7.5457   17.8752 C   0  0  0  0  0  0  0  0  0  0  0  0
    6.1721   -8.2186   15.9886 N   0  0  0  0  0  0  0  0  0  0  0  0
   11.1764   -2.6600   19.5604 C   0  0  0  0  0  0  0  0  0  0  0  0
    9.5491   -0.6380   24.1912 C   0  0  0  0  0  0  0  0  0  0  0  0
    7.5337   -6.9256   16.9519 C   0  0  0  0  0  0  0  0  0  0  0  0
    9.6782    0.5671   23.5143 C   0  0  0  0  0  0  0  0  0  0  0  0
    8.4532    0.3482   26.0821 C   0  0  0  0  0  0  0  0  0  0  0  0
   10.4239   -1.7677   22.2230 N   0  0  0  0  0  0  0  0  0  0  0  0
    9.9468   -4.5953   20.1709 C   0  0  0  0  0  0  0  0  0  0  0  0
   10.0366   -3.0590   23.9864 N   0  0  0  0  0  0  0  0  0  0  0  0
    7.1191   -7.3636   15.7739 C   0  0  0  0  0  0  0  0  0  0  0  0
    5.9612   -8.3203   17.2732 N   0  0  0  0  0  0  0  0  0  0  0  0
    8.5296   -5.9814   17.1841 C   0  0  0  0  0  0  0  0  0  0  0  0
    9.1527   -5.2118   16.2116 C   0  0  0  0  0  0  0  0  0  0  0  0
   10.3364   -3.8368   22.9255 O   0  0  0  0  0  0  0  0  0  0  0  0
    9.6947   -4.8407   18.8534 C   0  0  0  0  0  0  0  0  0  0  0  0
    9.1596    1.7042   24.1381 C   0  0  0  0  0  0  0  0  0  0  0  0
   11.0456   -2.9774   18.2694 N   0  0  0  0  0  0  0  0  0  0  0  0
   10.4788   -3.0457   21.8593 C   0  0  0  0  0  0  0  0  0  0  0  0
    8.8693   -5.8099   18.4657 N   0  0  0  0  0  0  0  0  0  0  0  0
    8.9892   -0.7926   25.4573 C   0  0  0  0  0  0  0  0  0  0  0  0
   10.5677   -3.4462   20.5323 C   0  0  0  0  0  0  0  0  0  0  0  0
  1  8  1  0
  1 12  4  0
  1 14  4  0
  2  3  4  0
  2 18  4  0
  3 20  4  0
  3 22  4  0
  4 11  4  0
  4 21  4  0
  5  9  4  0
  5 16  4  0
  6 15  4  0
  6 16  4  0
  7 22  4  0
  7 26  4  0
  8 10  4  0
  8 25  4  0
  9 15  4  0
  9 17  1  0
 10 21  4  0
 11 25  4  0
 12 23  4  0
 13 20  4  0
 13 26  4  0
 14 19  4  0
 17 18  4  0
 17 24  4  0
 19 23  4  0
 20 24  4  0
 23 26  1  0
M  END
$$$$

 Created by Python create_sdf_string function

 26 30  0  0  0  0  0  0  0  0999 V2000
   10.0084   -1.8019   23.4945 C   0  0  0  0  0  0  0  0  0  0  0  0
   10.0005   -4.2520   16.5631 C   0  0  0  0  0  0  0  0  0  0  0  0
   10.2759   -4.0036   17.8845 C   0  0  0  0  0  0  0  0  0  0  0  0
    8.5652    1.5478   25.3778 N   0  0  0  0  0  0  0  0  0  0  0  0
    6.8048   -7.5457   17.8752 C   0  0  0  0  0  0  0  0  0  0  0  0
    6.1721   -8.2186   15.9886 N   0  0  0  0  0  0  0  0  0  0  0  0
   11.1764   -2.6600   19.5604 C   0  0  0  0  0  0  0  0  0  0  0  0
    9.5491   -0.6380   24.1912 C   0  0  0  0  0  0  0  0  0  0  0  0
    7.5337   -6.9256   16.9519 C   0  0  0  0  0  0  0  0  0  0  0  0
    9.6782    0.5671   23.5143 C   0  0  0  0  0  0  0  0  0  0  0  0
    8.4532    0.3482   26.0821 C   0  0  0  0  0  0  0  0  0  0  0  0
   10.4239   -1.7677   22.2230 N   0  0  0  0  0  0  0  0  0  0  0  0
    9.9468   -4.5953   20.1709 C   0  0  0  0  0  0  0  0  0  0  0  0
   10.0366   -3.0590   23.9864 N   0  0  0  0  0  0  0  0  0  0  0  0
    7.1191   -7.3636   15.7739 C   0  0  0  0  0  0  0  0  0  0  0  0
    5.9612   -8.3203   17.2732 N   0  0  0  0  0  0  0  0  0  0  0  0
    8.5296   -5.9814   17.1841 C   0  0  0  0  0  0  0  0  0  0  0  0
    9.1527   -5.2118   16.2116 C   0  0  0  0  0  0  0  0  0  0  0  0
   10.3364   -3.8368   22.9255 O   0  0  0  0  0  0  0  0  0  0  0  0
    9.6947   -4.8407   18.8534 C   0  0  0  0  0  0  0  0  0  0  0  0
    9.1596    1.7042   24.1381 C   0  0  0  0  0  0  0  0  0  0  0  0
   11.0456   -2.9774   18.2694 N   0  0  0  0  0  0  0  0  0  0  0  0
   10.4788   -3.0457   21.8593 C   0  0  0  0  0  0  0  0  0  0  0  0
    8.8693   -5.8099   18.4657 N   0  0  0  0  0  0  0  0  0  0  0  0
    8.9892   -0.7926   25.4573 C   0  0  0  0  0  0  0  0  0  0  0  0
   10.5677   -3.4462   20.5323 C   0  0  0  0  0  0  0  0  0  0  0  0
  1  8  1  0
  1 12  4  0
  1 14  4  0
  2  3  4  0
  2 18  4  0
  3 20  4  0
  3 22  4  0
  4 11  4  0
  4 21  4  0
  5  9  4  0
  5 16  4  0
  6 15  4  0
  6 16  4  0
  7 22  4  0
  7 26  4  0
  8 10  4  0
  8 25  4  0
  9 15  4  0
  9 17  1  0
 10 21  4  0
 11 25  4  0
 12 23  4  0
 13 20  4  0
 13 26  4  0
 14 19  4  0
 17 18  4  0
 17 24  4  0
 19 23  4  0
 20 24  4  0
 23 26  1  0
M  END
$$$$

 Created by Python create_sdf_string function

 26 30  0  0  0  0  0  0  0  0999 V2000
   10.0084   -1.8019   23.4945 C   0  0  0  0  0  0  0  0  0  0  0  0
   10.0005   -4.2520   16.5631 C   0  0  0  0  0  0  0  0  0  0  0  0
   10.2759   -4.0036   17.8845 C   0  0  0  0  0  0  0  0  0  0  0  0
    8.5652    1.5478   25.3778 N   0  0  0  0  0  0  0  0  0  0  0  0
    6.8048   -7.5457   17.8752 C   0  0  0  0  0  0  0  0  0  0  0  0
    6.1721   -8.2186   15.9886 N   0  0  0  0  0  0  0  0  0  0  0  0
   11.1764   -2.6600   19.5604 C   0  0  0  0  0  0  0  0  0  0  0  0
    9.5491   -0.6380   24.1912 C   0  0  0  0  0  0  0  0  0  0  0  0
    7.5337   -6.9256   16.9519 C   0  0  0  0  0  0  0  0  0  0  0  0
    9.6782    0.5671   23.5143 C   0  0  0  0  0  0  0  0  0  0  0  0
    8.4532    0.3482   26.0821 C   0  0  0  0  0  0  0  0  0  0  0  0
   10.4239   -1.7677   22.2230 N   0  0  0  0  0  0  0  0  0  0  0  0
    9.9468   -4.5953   20.1709 C   0  0  0  0  0  0  0  0  0  0  0  0
   10.0366   -3.0590   23.9864 N   0  0  0  0  0  0  0  0  0  0  0  0
    7.1191   -7.3636   15.7739 C   0  0  0  0  0  0  0  0  0  0  0  0
    5.9612   -8.3203   17.2732 N   0  0  0  0  0  0  0  0  0  0  0  0
    8.5296   -5.9814   17.1841 C   0  0  0  0  0  0  0  0  0  0  0  0
    9.1527   -5.2118   16.2116 C   0  0  0  0  0  0  0  0  0  0  0  0
   10.3364   -3.8368   22.9255 O   0  0  0  0  0  0  0  0  0  0  0  0
    9.6947   -4.8407   18.8534 C   0  0  0  0  0  0  0  0  0  0  0  0
    9.1596    1.7042   24.1381 C   0  0  0  0  0  0  0  0  0  0  0  0
   11.0456   -2.9774   18.2694 N   0  0  0  0  0  0  0  0  0  0  0  0
   10.4788   -3.0457   21.8593 C   0  0  0  0  0  0  0  0  0  0  0  0
    8.8693   -5.8099   18.4657 N   0  0  0  0  0  0  0  0  0  0  0  0
    8.9892   -0.7926   25.4573 C   0  0  0  0  0  0  0  0  0  0  0  0
   10.5677   -3.4462   20.5323 C   0  0  0  0  0  0  0  0  0  0  0  0
  1  8  1  0
  1 12  4  0
  1 14  4  0
  2  3  4  0
  2 18  4  0
  3 20  4  0
  3 22  4  0
  4 11  4  0
  4 21  4  0
  5  9  4  0
  5 16  4  0
  6 15  4  0
  6 16  4  0
  7 22  4  0
  7 26  4  0
  8 10  4  0
  8 25  4  0
  9 15  4  0
  9 17  1  0
 10 21  4  0
 11 25  4  0
 12 23  4  0
 13 20  4  0
 13 26  4  0
 14 19  4  0
 17 18  4  0
 17 24  4  0
 19 23  4  0
 20 24  4  0
 23 26  1  0
M  END
$$$$

 Created by Python create_sdf_string function

 26 30  0  0  0  0  0  0  0  0999 V2000
   10.0084   -1.8019   23.4945 C   0  0  0  0  0  0  0  0  0  0  0  0
   10.0005   -4.2520   16.5631 C   0  0  0  0  0  0  0  0  0  0  0  0
   10.2759   -4.0036   17.8845 C   0  0  0  0  0  0  0  0  0  0  0  0
    8.5652    1.5478   25.3778 N   0  0  0  0  0  0  0  0  0  0  0  0
    6.8048   -7.5457   17.8752 C   0  0  0  0  0  0  0  0  0  0  0  0
    6.1721   -8.2186   15.9886 N   0  0  0  0  0  0  0  0  0  0  0  0
   11.1764   -2.6600   19.5604 C   0  0  0  0  0  0  0  0  0  0  0  0
    9.5491   -0.6380   24.1912 C   0  0  0  0  0  0  0  0  0  0  0  0
    7.5337   -6.9256   16.9519 C   0  0  0  0  0  0  0  0  0  0  0  0
    9.6782    0.5671   23.5143 C   0  0  0  0  0  0  0  0  0  0  0  0
    8.4532    0.3482   26.0821 C   0  0  0  0  0  0  0  0  0  0  0  0
   10.4239   -1.7677   22.2230 N   0  0  0  0  0  0  0  0  0  0  0  0
    9.9468   -4.5953   20.1709 C   0  0  0  0  0  0  0  0  0  0  0  0
   10.0366   -3.0590   23.9864 N   0  0  0  0  0  0  0  0  0  0  0  0
    7.1191   -7.3636   15.7739 C   0  0  0  0  0  0  0  0  0  0  0  0
    5.9612   -8.3203   17.2732 N   0  0  0  0  0  0  0  0  0  0  0  0
    8.5296   -5.9814   17.1841 C   0  0  0  0  0  0  0  0  0  0  0  0
    9.1527   -5.2118   16.2116 C   0  0  0  0  0  0  0  0  0  0  0  0
   10.3364   -3.8368   22.9255 O   0  0  0  0  0  0  0  0  0  0  0  0
    9.6947   -4.8407   18.8534 C   0  0  0  0  0  0  0  0  0  0  0  0
    9.1596    1.7042   24.1381 C   0  0  0  0  0  0  0  0  0  0  0  0
   11.0456   -2.9774   18.2694 N   0  0  0  0  0  0  0  0  0  0  0  0
   10.4788   -3.0457   21.8593 C   0  0  0  0  0  0  0  0  0  0  0  0
    8.8693   -5.8099   18.4657 N   0  0  0  0  0  0  0  0  0  0  0  0
    8.9892   -0.7926   25.4573 C   0  0  0  0  0  0  0  0  0  0  0  0
   10.5677   -3.4462   20.5323 C   0  0  0  0  0  0  0  0  0  0  0  0
  1  8  1  0
  1 12  4  0
  1 14  4  0
  2  3  4  0
  2 18  4  0
  3 20  4  0
  3 22  4  0
  4 11  4  0
  4 21  4  0
  5  9  4  0
  5 16  4  0
  6 15  4  0
  6 16  4  0
  7 22  4  0
  7 26  4  0
  8 10  4  0
  8 25  4  0
  9 15  4  0
  9 17  1  0
 10 21  4  0
 11 25  4  0
 12 23  4  0
 13 20  4  0
 13 26  4  0
 14 19  4  0
 17 18  4  0
 17 24  4  0
 19 23  4  0
 20 24  4  0
 23 26  1  0
M  END
$$$$

 Created by Python create_sdf_string function

 26 30  0  0  0  0  0  0  0  0999 V2000
   10.0084   -1.8019   23.4945 C   0  0  0  0  0  0  0  0  0  0  0  0
   10.0005   -4.2520   16.5631 C   0  0  0  0  0  0  0  0  0  0  0  0
   10.2759   -4.0036   17.8845 C   0  0  0  0  0  0  0  0  0  0  0  0
    8.5652    1.5478   25.3778 N   0  0  0  0  0  0  0  0  0  0  0  0
    6.8048   -7.5457   17.8752 C   0  0  0  0  0  0  0  0  0  0  0  0
    6.1721   -8.2186   15.9886 N   0  0  0  0  0  0  0  0  0  0  0  0
   11.1764   -2.6600   19.5604 C   0  0  0  0  0  0  0  0  0  0  0  0
    9.5491   -0.6380   24.1912 C   0  0  0  0  0  0  0  0  0  0  0  0
    7.5337   -6.9256   16.9519 C   0  0  0  0  0  0  0  0  0  0  0  0
    9.6782    0.5671   23.5143 C   0  0  0  0  0  0  0  0  0  0  0  0
    8.4532    0.3482   26.0821 C   0  0  0  0  0  0  0  0  0  0  0  0
   10.4239   -1.7677   22.2230 N   0  0  0  0  0  0  0  0  0  0  0  0
    9.9468   -4.5953   20.1709 C   0  0  0  0  0  0  0  0  0  0  0  0
   10.0366   -3.0590   23.9864 N   0  0  0  0  0  0  0  0  0  0  0  0
    7.1191   -7.3636   15.7739 C   0  0  0  0  0  0  0  0  0  0  0  0
    5.9612   -8.3203   17.2732 N   0  0  0  0  0  0  0  0  0  0  0  0
    8.5296   -5.9814   17.1841 C   0  0  0  0  0  0  0  0  0  0  0  0
    9.1527   -5.2118   16.2116 C   0  0  0  0  0  0  0  0  0  0  0  0
   10.3364   -3.8368   22.9255 O   0  0  0  0  0  0  0  0  0  0  0  0
    9.6947   -4.8407   18.8534 C   0  0  0  0  0  0  0  0  0  0  0  0
    9.1596    1.7042   24.1381 C   0  0  0  0  0  0  0  0  0  0  0  0
   11.0456   -2.9774   18.2694 N   0  0  0  0  0  0  0  0  0  0  0  0
   10.4788   -3.0457   21.8593 C   0  0  0  0  0  0  0  0  0  0  0  0
    8.8693   -5.8099   18.4657 N   0  0  0  0  0  0  0  0  0  0  0  0
    8.9892   -0.7926   25.4573 C   0  0  0  0  0  0  0  0  0  0  0  0
   10.5677   -3.4462   20.5323 C   0  0  0  0  0  0  0  0  0  0  0  0
  1  8  1  0
  1 12  4  0
  1 14  4  0
  2  3  4  0
  2 18  4  0
  3 20  4  0
  3 22  4  0
  4 11  4  0
  4 21  4  0
  5  9  4  0
  5 16  4  0
  6 15  4  0
  6 16  4  0
  7 22  4  0
  7 26  4  0
  8 10  4  0
  8 25  4  0
  9 15  4  0
  9 17  1  0
 10 21  4  0
 11 25  4  0
 12 23  4  0
 13 20  4  0
 13 26  4  0
 14 19  4  0
 17 18  4  0
 17 24  4  0
 19 23  4  0
 20 24  4  0
 23 26  1  0
M  END
$$$$

 Created by Python create_sdf_string function

 26 30  0  0  0  0  0  0  0  0999 V2000
   10.0084   -1.8019   23.4945 C   0  0  0  0  0  0  0  0  0  0  0  0
   10.0005   -4.2520   16.5631 C   0  0  0  0  0  0  0  0  0  0  0  0
   10.2759   -4.0036   17.8845 C   0  0  0  0  0  0  0  0  0  0  0  0
    8.5652    1.5478   25.3778 N   0  0  0  0  0  0  0  0  0  0  0  0
    6.8048   -7.5457   17.8752 C   0  0  0  0  0  0  0  0  0  0  0  0
    6.1721   -8.2186   15.9886 N   0  0  0  0  0  0  0  0  0  0  0  0
   11.1764   -2.6600   19.5604 C   0  0  0  0  0  0  0  0  0  0  0  0
    9.5491   -0.6380   24.1912 C   0  0  0  0  0  0  0  0  0  0  0  0
    7.5337   -6.9256   16.9519 C   0  0  0  0  0  0  0  0  0  0  0  0
    9.6782    0.5671   23.5143 C   0  0  0  0  0  0  0  0  0  0  0  0
    8.4532    0.3482   26.0821 C   0  0  0  0  0  0  0  0  0  0  0  0
   10.4239   -1.7677   22.2230 N   0  0  0  0  0  0  0  0  0  0  0  0
    9.9468   -4.5953   20.1709 C   0  0  0  0  0  0  0  0  0  0  0  0
   10.0366   -3.0590   23.9864 N   0  0  0  0  0  0  0  0  0  0  0  0
    7.1191   -7.3636   15.7739 C   0  0  0  0  0  0  0  0  0  0  0  0
    5.9612   -8.3203   17.2732 N   0  0  0  0  0  0  0  0  0  0  0  0
    8.5296   -5.9814   17.1841 C   0  0  0  0  0  0  0  0  0  0  0  0
    9.1527   -5.2118   16.2116 C   0  0  0  0  0  0  0  0  0  0  0  0
   10.3364   -3.8368   22.9255 O   0  0  0  0  0  0  0  0  0  0  0  0
    9.6947   -4.8407   18.8534 C   0  0  0  0  0  0  0  0  0  0  0  0
    9.1596    1.7042   24.1381 C   0  0  0  0  0  0  0  0  0  0  0  0
   11.0456   -2.9774   18.2694 N   0  0  0  0  0  0  0  0  0  0  0  0
   10.4788   -3.0457   21.8593 C   0  0  0  0  0  0  0  0  0  0  0  0
    8.8693   -5.8099   18.4657 N   0  0  0  0  0  0  0  0  0  0  0  0
    8.9892   -0.7926   25.4573 C   0  0  0  0  0  0  0  0  0  0  0  0
   10.5677   -3.4462   20.5323 C   0  0  0  0  0  0  0  0  0  0  0  0
  1  8  1  0
  1 12  4  0
  1 14  4  0
  2  3  4  0
  2 18  4  0
  3 20  4  0
  3 22  4  0
  4 11  4  0
  4 21  4  0
  5  9  4  0
  5 16  4  0
  6 15  4  0
  6 16  4  0
  7 22  4  0
  7 26  4  0
  8 10  4  0
  8 25  4  0
  9 15  4  0
  9 17  1  0
 10 21  4  0
 11 25  4  0
 12 23  4  0
 13 20  4  0
 13 26  4  0
 14 19  4  0
 17 18  4  0
 17 24  4  0
 19 23  4  0
 20 24  4  0
 23 26  1  0
M  END
$$$$

 Created by Python create_sdf_string function

 26 30  0  0  0  0  0  0  0  0999 V2000
   10.0084   -1.8019   23.4945 C   0  0  0  0  0  0  0  0  0  0  0  0
   10.0005   -4.2520   16.5631 C   0  0  0  0  0  0  0  0  0  0  0  0
   10.2759   -4.0036   17.8845 C   0  0  0  0  0  0  0  0  0  0  0  0
    8.5652    1.5478   25.3778 N   0  0  0  0  0  0  0  0  0  0  0  0
    6.8048   -7.5457   17.8752 C   0  0  0  0  0  0  0  0  0  0  0  0
    6.1721   -8.2186   15.9886 N   0  0  0  0  0  0  0  0  0  0  0  0
   11.1764   -2.6600   19.5604 C   0  0  0  0  0  0  0  0  0  0  0  0
    9.5491   -0.6380   24.1912 C   0  0  0  0  0  0  0  0  0  0  0  0
    7.5337   -6.9256   16.9519 C   0  0  0  0  0  0  0  0  0  0  0  0
    9.6782    0.5671   23.5143 C   0  0  0  0  0  0  0  0  0  0  0  0
    8.4532    0.3482   26.0821 C   0  0  0  0  0  0  0  0  0  0  0  0
   10.4239   -1.7677   22.2230 N   0  0  0  0  0  0  0  0  0  0  0  0
    9.9468   -4.5953   20.1709 C   0  0  0  0  0  0  0  0  0  0  0  0
   10.0366   -3.0590   23.9864 N   0  0  0  0  0  0  0  0  0  0  0  0
    7.1191   -7.3636   15.7739 C   0  0  0  0  0  0  0  0  0  0  0  0
    5.9612   -8.3203   17.2732 N   0  0  0  0  0  0  0  0  0  0  0  0
    8.5296   -5.9814   17.1841 C   0  0  0  0  0  0  0  0  0  0  0  0
    9.1527   -5.2118   16.2116 C   0  0  0  0  0  0  0  0  0  0  0  0
   10.3364   -3.8368   22.9255 O   0  0  0  0  0  0  0  0  0  0  0  0
    9.6947   -4.8407   18.8534 C   0  0  0  0  0  0  0  0  0  0  0  0
    9.1596    1.7042   24.1381 C   0  0  0  0  0  0  0  0  0  0  0  0
   11.0456   -2.9774   18.2694 N   0  0  0  0  0  0  0  0  0  0  0  0
   10.4788   -3.0457   21.8593 C   0  0  0  0  0  0  0  0  0  0  0  0
    8.8693   -5.8099   18.4657 N   0  0  0  0  0  0  0  0  0  0  0  0
    8.9892   -0.7926   25.4573 C   0  0  0  0  0  0  0  0  0  0  0  0
   10.5677   -3.4462   20.5323 C   0  0  0  0  0  0  0  0  0  0  0  0
  1  8  1  0
  1 12  4  0
  1 14  4  0
  2  3  4  0
  2 18  4  0
  3 20  4  0
  3 22  4  0
  4 11  4  0
  4 21  4  0
  5  9  4  0
  5 16  4  0
  6 15  4  0
  6 16  4  0
  7 22  4  0
  7 26  4  0
  8 10  4  0
  8 25  4  0
  9 15  4  0
  9 17  1  0
 10 21  4  0
 11 25  4  0
 12 23  4  0
 13 20  4  0
 13 26  4  0
 14 19  4  0
 17 18  4  0
 17 24  4  0
 19 23  4  0
 20 24  4  0
 23 26  1  0
M  END
$$$$

 Created by Python create_sdf_string function

 26 30  0  0  0  0  0  0  0  0999 V2000
   10.0084   -1.8019   23.4945 C   0  0  0  0  0  0  0  0  0  0  0  0
   10.0005   -4.2520   16.5631 C   0  0  0  0  0  0  0  0  0  0  0  0
   10.2759   -4.0036   17.8845 C   0  0  0  0  0  0  0  0  0  0  0  0
    8.5652    1.5478   25.3778 N   0  0  0  0  0  0  0  0  0  0  0  0
    6.8048   -7.5457   17.8752 C   0  0  0  0  0  0  0  0  0  0  0  0
    6.1721   -8.2186   15.9886 N   0  0  0  0  0  0  0  0  0  0  0  0
   11.1764   -2.6600   19.5604 C   0  0  0  0  0  0  0  0  0  0  0  0
    9.5491   -0.6380   24.1912 C   0  0  0  0  0  0  0  0  0  0  0  0
    7.5337   -6.9256   16.9519 C   0  0  0  0  0  0  0  0  0  0  0  0
    9.6782    0.5671   23.5143 C   0  0  0  0  0  0  0  0  0  0  0  0
    8.4532    0.3482   26.0821 C   0  0  0  0  0  0  0  0  0  0  0  0
   10.4239   -1.7677   22.2230 N   0  0  0  0  0  0  0  0  0  0  0  0
    9.9468   -4.5953   20.1709 C   0  0  0  0  0  0  0  0  0  0  0  0
   10.0366   -3.0590   23.9864 N   0  0  0  0  0  0  0  0  0  0  0  0
    7.1191   -7.3636   15.7739 C   0  0  0  0  0  0  0  0  0  0  0  0
    5.9612   -8.3203   17.2732 N   0  0  0  0  0  0  0  0  0  0  0  0
    8.5296   -5.9814   17.1841 C   0  0  0  0  0  0  0  0  0  0  0  0
    9.1527   -5.2118   16.2116 C   0  0  0  0  0  0  0  0  0  0  0  0
   10.3364   -3.8368   22.9255 O   0  0  0  0  0  0  0  0  0  0  0  0
    9.6947   -4.8407   18.8534 C   0  0  0  0  0  0  0  0  0  0  0  0
    9.1596    1.7042   24.1381 C   0  0  0  0  0  0  0  0  0  0  0  0
   11.0456   -2.9774   18.2694 N   0  0  0  0  0  0  0  0  0  0  0  0
   10.4788   -3.0457   21.8593 C   0  0  0  0  0  0  0  0  0  0  0  0
    8.8693   -5.8099   18.4657 N   0  0  0  0  0  0  0  0  0  0  0  0
    8.9892   -0.7926   25.4573 C   0  0  0  0  0  0  0  0  0  0  0  0
   10.5677   -3.4462   20.5323 C   0  0  0  0  0  0  0  0  0  0  0  0
  1  8  1  0
  1 12  4  0
  1 14  4  0
  2  3  4  0
  2 18  4  0
  3 20  4  0
  3 22  4  0
  4 11  4  0
  4 21  4  0
  5  9  4  0
  5 16  4  0
  6 15  4  0
  6 16  4  0
  7 22  4  0
  7 26  4  0
  8 10  4  0
  8 25  4  0
  9 15  4  0
  9 17  1  0
 10 21  4  0
 11 25  4  0
 12 23  4  0
 13 20  4  0
 13 26  4  0
 14 19  4  0
 17 18  4  0
 17 24  4  0
 19 23  4  0
 20 24  4  0
 23 26  1  0
M  END
$$$$

 Created by Python create_sdf_string function

 26 30  0  0  0  0  0  0  0  0999 V2000
   10.0084   -1.8019   23.4945 C   0  0  0  0  0  0  0  0  0  0  0  0
   10.0005   -4.2520   16.5631 C   0  0  0  0  0  0  0  0  0  0  0  0
   10.2759   -4.0036   17.8845 C   0  0  0  0  0  0  0  0  0  0  0  0
    8.5652    1.5478   25.3778 N   0  0  0  0  0  0  0  0  0  0  0  0
    6.8048   -7.5457   17.8752 C   0  0  0  0  0  0  0  0  0  0  0  0
    6.1721   -8.2186   15.9886 N   0  0  0  0  0  0  0  0  0  0  0  0
   11.1764   -2.6600   19.5604 C   0  0  0  0  0  0  0  0  0  0  0  0
    9.5491   -0.6380   24.1912 C   0  0  0  0  0  0  0  0  0  0  0  0
    7.5337   -6.9256   16.9519 C   0  0  0  0  0  0  0  0  0  0  0  0
    9.6782    0.5671   23.5143 C   0  0  0  0  0  0  0  0  0  0  0  0
    8.4532    0.3482   26.0821 C   0  0  0  0  0  0  0  0  0  0  0  0
   10.4239   -1.7677   22.2230 N   0  0  0  0  0  0  0  0  0  0  0  0
    9.9468   -4.5953   20.1709 C   0  0  0  0  0  0  0  0  0  0  0  0
   10.0366   -3.0590   23.9864 N   0  0  0  0  0  0  0  0  0  0  0  0
    7.1191   -7.3636   15.7739 C   0  0  0  0  0  0  0  0  0  0  0  0
    5.9612   -8.3203   17.2732 N   0  0  0  0  0  0  0  0  0  0  0  0
    8.5296   -5.9814   17.1841 C   0  0  0  0  0  0  0  0  0  0  0  0
    9.1527   -5.2118   16.2116 C   0  0  0  0  0  0  0  0  0  0  0  0
   10.3364   -3.8368   22.9255 O   0  0  0  0  0  0  0  0  0  0  0  0
    9.6947   -4.8407   18.8534 C   0  0  0  0  0  0  0  0  0  0  0  0
    9.1596    1.7042   24.1381 C   0  0  0  0  0  0  0  0  0  0  0  0
   11.0456   -2.9774   18.2694 N   0  0  0  0  0  0  0  0  0  0  0  0
   10.4788   -3.0457   21.8593 C   0  0  0  0  0  0  0  0  0  0  0  0
    8.8693   -5.8099   18.4657 N   0  0  0  0  0  0  0  0  0  0  0  0
    8.9892   -0.7926   25.4573 C   0  0  0  0  0  0  0  0  0  0  0  0
   10.5677   -3.4462   20.5323 C   0  0  0  0  0  0  0  0  0  0  0  0
  1  8  1  0
  1 12  4  0
  1 14  4  0
  2  3  4  0
  2 18  4  0
  3 20  4  0
  3 22  4  0
  4 11  4  0
  4 21  4  0
  5  9  4  0
  5 16  4  0
  6 15  4  0
  6 16  4  0
  7 22  4  0
  7 26  4  0
  8 10  4  0
  8 25  4  0
  9 15  4  0
  9 17  1  0
 10 21  4  0
 11 25  4  0
 12 23  4  0
 13 20  4  0
 13 26  4  0
 14 19  4  0
 17 18  4  0
 17 24  4  0
 19 23  4  0
 20 24  4  0
 23 26  1  0
M  END
$$$$

 Created by Python create_sdf_string function

 26 30  0  0  0  0  0  0  0  0999 V2000
   10.0084   -1.8019   23.4945 C   0  0  0  0  0  0  0  0  0  0  0  0
   10.0005   -4.2520   16.5631 C   0  0  0  0  0  0  0  0  0  0  0  0
   10.2759   -4.0036   17.8845 C   0  0  0  0  0  0  0  0  0  0  0  0
    8.5652    1.5478   25.3778 N   0  0  0  0  0  0  0  0  0  0  0  0
    6.8048   -7.5457   17.8752 C   0  0  0  0  0  0  0  0  0  0  0  0
    6.1721   -8.2186   15.9886 N   0  0  0  0  0  0  0  0  0  0  0  0
   11.1764   -2.6600   19.5604 C   0  0  0  0  0  0  0  0  0  0  0  0
    9.5491   -0.6380   24.1912 C   0  0  0  0  0  0  0  0  0  0  0  0
    7.5337   -6.9256   16.9519 C   0  0  0  0  0  0  0  0  0  0  0  0
    9.6782    0.5671   23.5143 C   0  0  0  0  0  0  0  0  0  0  0  0
    8.4532    0.3482   26.0821 C   0  0  0  0  0  0  0  0  0  0  0  0
   10.4239   -1.7677   22.2230 N   0  0  0  0  0  0  0  0  0  0  0  0
    9.9468   -4.5953   20.1709 C   0  0  0  0  0  0  0  0  0  0  0  0
   10.0366   -3.0590   23.9864 N   0  0  0  0  0  0  0  0  0  0  0  0
    7.1191   -7.3636   15.7739 C   0  0  0  0  0  0  0  0  0  0  0  0
    5.9612   -8.3203   17.2732 N   0  0  0  0  0  0  0  0  0  0  0  0
    8.5296   -5.9814   17.1841 C   0  0  0  0  0  0  0  0  0  0  0  0
    9.1527   -5.2118   16.2116 C   0  0  0  0  0  0  0  0  0  0  0  0
   10.3364   -3.8368   22.9255 O   0  0  0  0  0  0  0  0  0  0  0  0
    9.6947   -4.8407   18.8534 C   0  0  0  0  0  0  0  0  0  0  0  0
    9.1596    1.7042   24.1381 C   0  0  0  0  0  0  0  0  0  0  0  0
   11.0456   -2.9774   18.2694 N   0  0  0  0  0  0  0  0  0  0  0  0
   10.4788   -3.0457   21.8593 C   0  0  0  0  0  0  0  0  0  0  0  0
    8.8693   -5.8099   18.4657 N   0  0  0  0  0  0  0  0  0  0  0  0
    8.9892   -0.7926   25.4573 C   0  0  0  0  0  0  0  0  0  0  0  0
   10.5677   -3.4462   20.5323 C   0  0  0  0  0  0  0  0  0  0  0  0
  1  8  1  0
  1 12  4  0
  1 14  4  0
  2  3  4  0
  2 18  4  0
  3 20  4  0
  3 22  4  0
  4 11  4  0
  4 21  4  0
  5  9  4  0
  5 16  4  0
  6 15  4  0
  6 16  4  0
  7 22  4  0
  7 26  4  0
  8 10  4  0
  8 25  4  0
  9 15  4  0
  9 17  1  0
 10 21  4  0
 11 25  4  0
 12 23  4  0
 13 20  4  0
 13 26  4  0
 14 19  4  0
 17 18  4  0
 17 24  4  0
 19 23  4  0
 20 24  4  0
 23 26  1  0
M  END
$$$$

 Created by Python create_sdf_string function

 26 30  0  0  0  0  0  0  0  0999 V2000
   10.0084   -1.8019   23.4945 C   0  0  0  0  0  0  0  0  0  0  0  0
   10.0005   -4.2520   16.5631 C   0  0  0  0  0  0  0  0  0  0  0  0
   10.2759   -4.0036   17.8845 C   0  0  0  0  0  0  0  0  0  0  0  0
    8.5652    1.5478   25.3778 N   0  0  0  0  0  0  0  0  0  0  0  0
    6.8048   -7.5457   17.8752 C   0  0  0  0  0  0  0  0  0  0  0  0
    6.1721   -8.2186   15.9886 N   0  0  0  0  0  0  0  0  0  0  0  0
   11.1764   -2.6600   19.5604 C   0  0  0  0  0  0  0  0  0  0  0  0
    9.5491   -0.6380   24.1912 C   0  0  0  0  0  0  0  0  0  0  0  0
    7.5337   -6.9256   16.9519 C   0  0  0  0  0  0  0  0  0  0  0  0
    9.6782    0.5671   23.5143 C   0  0  0  0  0  0  0  0  0  0  0  0
    8.4532    0.3482   26.0821 C   0  0  0  0  0  0  0  0  0  0  0  0
   10.4239   -1.7677   22.2230 N   0  0  0  0  0  0  0  0  0  0  0  0
    9.9468   -4.5953   20.1709 C   0  0  0  0  0  0  0  0  0  0  0  0
   10.0366   -3.0590   23.9864 N   0  0  0  0  0  0  0  0  0  0  0  0
    7.1191   -7.3636   15.7739 C   0  0  0  0  0  0  0  0  0  0  0  0
    5.9612   -8.3203   17.2732 N   0  0  0  0  0  0  0  0  0  0  0  0
    8.5296   -5.9814   17.1841 C   0  0  0  0  0  0  0  0  0  0  0  0
    9.1527   -5.2118   16.2116 C   0  0  0  0  0  0  0  0  0  0  0  0
   10.3364   -3.8368   22.9255 O   0  0  0  0  0  0  0  0  0  0  0  0
    9.6947   -4.8407   18.8534 C   0  0  0  0  0  0  0  0  0  0  0  0
    9.1596    1.7042   24.1381 C   0  0  0  0  0  0  0  0  0  0  0  0
   11.0456   -2.9774   18.2694 N   0  0  0  0  0  0  0  0  0  0  0  0
   10.4788   -3.0457   21.8593 C   0  0  0  0  0  0  0  0  0  0  0  0
    8.8693   -5.8099   18.4657 N   0  0  0  0  0  0  0  0  0  0  0  0
    8.9892   -0.7926   25.4573 C   0  0  0  0  0  0  0  0  0  0  0  0
   10.5677   -3.4462   20.5323 C   0  0  0  0  0  0  0  0  0  0  0  0
  1  8  1  0
  1 12  4  0
  1 14  4  0
  2  3  4  0
  2 18  4  0
  3 20  4  0
  3 22  4  0
  4 11  4  0
  4 21  4  0
  5  9  4  0
  5 16  4  0
  6 15  4  0
  6 16  4  0
  7 22  4  0
  7 26  4  0
  8 10  4  0
  8 25  4  0
  9 15  4  0
  9 17  1  0
 10 21  4  0
 11 25  4  0
 12 23  4  0
 13 20  4  0
 13 26  4  0
 14 19  4  0
 17 18  4  0
 17 24  4  0
 19 23  4  0
 20 24  4  0
 23 26  1  0
M  END
$$$$

 Created by Python create_sdf_string function

 26 30  0  0  0  0  0  0  0  0999 V2000
   10.0084   -1.8019   23.4945 C   0  0  0  0  0  0  0  0  0  0  0  0
   10.0005   -4.2520   16.5631 C   0  0  0  0  0  0  0  0  0  0  0  0
   10.2759   -4.0036   17.8845 C   0  0  0  0  0  0  0  0  0  0  0  0
    8.5652    1.5478   25.3778 N   0  0  0  0  0  0  0  0  0  0  0  0
    6.8048   -7.5457   17.8752 C   0  0  0  0  0  0  0  0  0  0  0  0
    6.1721   -8.2186   15.9886 N   0  0  0  0  0  0  0  0  0  0  0  0
   11.1764   -2.6600   19.5604 C   0  0  0  0  0  0  0  0  0  0  0  0
    9.5491   -0.6380   24.1912 C   0  0  0  0  0  0  0  0  0  0  0  0
    7.5337   -6.9256   16.9519 C   0  0  0  0  0  0  0  0  0  0  0  0
    9.6782    0.5671   23.5143 C   0  0  0  0  0  0  0  0  0  0  0  0
    8.4532    0.3482   26.0821 C   0  0  0  0  0  0  0  0  0  0  0  0
   10.4239   -1.7677   22.2230 N   0  0  0  0  0  0  0  0  0  0  0  0
    9.9468   -4.5953   20.1709 C   0  0  0  0  0  0  0  0  0  0  0  0
   10.0366   -3.0590   23.9864 N   0  0  0  0  0  0  0  0  0  0  0  0
    7.1191   -7.3636   15.7739 C   0  0  0  0  0  0  0  0  0  0  0  0
    5.9612   -8.3203   17.2732 N   0  0  0  0  0  0  0  0  0  0  0  0
    8.5296   -5.9814   17.1841 C   0  0  0  0  0  0  0  0  0  0  0  0
    9.1527   -5.2118   16.2116 C   0  0  0  0  0  0  0  0  0  0  0  0
   10.3364   -3.8368   22.9255 O   0  0  0  0  0  0  0  0  0  0  0  0
    9.6947   -4.8407   18.8534 C   0  0  0  0  0  0  0  0  0  0  0  0
    9.1596    1.7042   24.1381 C   0  0  0  0  0  0  0  0  0  0  0  0
   11.0456   -2.9774   18.2694 N   0  0  0  0  0  0  0  0  0  0  0  0
   10.4788   -3.0457   21.8593 C   0  0  0  0  0  0  0  0  0  0  0  0
    8.8693   -5.8099   18.4657 N   0  0  0  0  0  0  0  0  0  0  0  0
    8.9892   -0.7926   25.4573 C   0  0  0  0  0  0  0  0  0  0  0  0
   10.5677   -3.4462   20.5323 C   0  0  0  0  0  0  0  0  0  0  0  0
  1  8  1  0
  1 12  4  0
  1 14  4  0
  2  3  4  0
  2 18  4  0
  3 20  4  0
  3 22  4  0
  4 11  4  0
  4 21  4  0
  5  9  4  0
  5 16  4  0
  6 15  4  0
  6 16  4  0
  7 22  4  0
  7 26  4  0
  8 10  4  0
  8 25  4  0
  9 15  4  0
  9 17  1  0
 10 21  4  0
 11 25  4  0
 12 23  4  0
 13 20  4  0
 13 26  4  0
 14 19  4  0
 17 18  4  0
 17 24  4  0
 19 23  4  0
 20 24  4  0
 23 26  1  0
M  END
$$$$

 Created by Python create_sdf_string function

 26 30  0  0  0  0  0  0  0  0999 V2000
   10.0084   -1.8019   23.4945 C   0  0  0  0  0  0  0  0  0  0  0  0
   10.0005   -4.2520   16.5631 C   0  0  0  0  0  0  0  0  0  0  0  0
   10.2759   -4.0036   17.8845 C   0  0  0  0  0  0  0  0  0  0  0  0
    8.5652    1.5478   25.3778 N   0  0  0  0  0  0  0  0  0  0  0  0
    6.8048   -7.5457   17.8752 C   0  0  0  0  0  0  0  0  0  0  0  0
    6.1721   -8.2186   15.9886 N   0  0  0  0  0  0  0  0  0  0  0  0
   11.1764   -2.6600   19.5604 C   0  0  0  0  0  0  0  0  0  0  0  0
    9.5491   -0.6380   24.1912 C   0  0  0  0  0  0  0  0  0  0  0  0
    7.5337   -6.9256   16.9519 C   0  0  0  0  0  0  0  0  0  0  0  0
    9.6782    0.5671   23.5143 C   0  0  0  0  0  0  0  0  0  0  0  0
    8.4532    0.3482   26.0821 C   0  0  0  0  0  0  0  0  0  0  0  0
   10.4239   -1.7677   22.2230 N   0  0  0  0  0  0  0  0  0  0  0  0
    9.9468   -4.5953   20.1709 C   0  0  0  0  0  0  0  0  0  0  0  0
   10.0366   -3.0590   23.9864 N   0  0  0  0  0  0  0  0  0  0  0  0
    7.1191   -7.3636   15.7739 C   0  0  0  0  0  0  0  0  0  0  0  0
    5.9612   -8.3203   17.2732 N   0  0  0  0  0  0  0  0  0  0  0  0
    8.5296   -5.9814   17.1841 C   0  0  0  0  0  0  0  0  0  0  0  0
    9.1527   -5.2118   16.2116 C   0  0  0  0  0  0  0  0  0  0  0  0
   10.3364   -3.8368   22.9255 O   0  0  0  0  0  0  0  0  0  0  0  0
    9.6947   -4.8407   18.8534 C   0  0  0  0  0  0  0  0  0  0  0  0
    9.1596    1.7042   24.1381 C   0  0  0  0  0  0  0  0  0  0  0  0
   11.0456   -2.9774   18.2694 N   0  0  0  0  0  0  0  0  0  0  0  0
   10.4788   -3.0457   21.8593 C   0  0  0  0  0  0  0  0  0  0  0  0
    8.8693   -5.8099   18.4657 N   0  0  0  0  0  0  0  0  0  0  0  0
    8.9892   -0.7926   25.4573 C   0  0  0  0  0  0  0  0  0  0  0  0
   10.5677   -3.4462   20.5323 C   0  0  0  0  0  0  0  0  0  0  0  0
  1  8  1  0
  1 12  4  0
  1 14  4  0
  2  3  4  0
  2 18  4  0
  3 20  4  0
  3 22  4  0
  4 11  4  0
  4 21  4  0
  5  9  4  0
  5 16  4  0
  6 15  4  0
  6 16  4  0
  7 22  4  0
  7 26  4  0
  8 10  4  0
  8 25  4  0
  9 15  4  0
  9 17  1  0
 10 21  4  0
 11 25  4  0
 12 23  4  0
 13 20  4  0
 13 26  4  0
 14 19  4  0
 17 18  4  0
 17 24  4  0
 19 23  4  0
 20 24  4  0
 23 26  1  0
M  END
$$$$

 Created by Python create_sdf_string function

 26 30  0  0  0  0  0  0  0  0999 V2000
   10.0084   -1.8019   23.4945 C   0  0  0  0  0  0  0  0  0  0  0  0
   10.0005   -4.2520   16.5631 C   0  0  0  0  0  0  0  0  0  0  0  0
   10.2759   -4.0036   17.8845 C   0  0  0  0  0  0  0  0  0  0  0  0
    8.5652    1.5478   25.3778 N   0  0  0  0  0  0  0  0  0  0  0  0
    6.8048   -7.5457   17.8752 C   0  0  0  0  0  0  0  0  0  0  0  0
    6.1721   -8.2186   15.9886 N   0  0  0  0  0  0  0  0  0  0  0  0
   11.1764   -2.6600   19.5604 C   0  0  0  0  0  0  0  0  0  0  0  0
    9.5491   -0.6380   24.1912 C   0  0  0  0  0  0  0  0  0  0  0  0
    7.5337   -6.9256   16.9519 C   0  0  0  0  0  0  0  0  0  0  0  0
    9.6782    0.5671   23.5143 C   0  0  0  0  0  0  0  0  0  0  0  0
    8.4532    0.3482   26.0821 C   0  0  0  0  0  0  0  0  0  0  0  0
   10.4239   -1.7677   22.2230 N   0  0  0  0  0  0  0  0  0  0  0  0
    9.9468   -4.5953   20.1709 C   0  0  0  0  0  0  0  0  0  0  0  0
   10.0366   -3.0590   23.9864 N   0  0  0  0  0  0  0  0  0  0  0  0
    7.1191   -7.3636   15.7739 C   0  0  0  0  0  0  0  0  0  0  0  0
    5.9612   -8.3203   17.2732 N   0  0  0  0  0  0  0  0  0  0  0  0
    8.5296   -5.9814   17.1841 C   0  0  0  0  0  0  0  0  0  0  0  0
    9.1527   -5.2118   16.2116 C   0  0  0  0  0  0  0  0  0  0  0  0
   10.3364   -3.8368   22.9255 O   0  0  0  0  0  0  0  0  0  0  0  0
    9.6947   -4.8407   18.8534 C   0  0  0  0  0  0  0  0  0  0  0  0
    9.1596    1.7042   24.1381 C   0  0  0  0  0  0  0  0  0  0  0  0
   11.0456   -2.9774   18.2694 N   0  0  0  0  0  0  0  0  0  0  0  0
   10.4788   -3.0457   21.8593 C   0  0  0  0  0  0  0  0  0  0  0  0
    8.8693   -5.8099   18.4657 N   0  0  0  0  0  0  0  0  0  0  0  0
    8.9892   -0.7926   25.4573 C   0  0  0  0  0  0  0  0  0  0  0  0
   10.5677   -3.4462   20.5323 C   0  0  0  0  0  0  0  0  0  0  0  0
  1  8  1  0
  1 12  4  0
  1 14  4  0
  2  3  4  0
  2 18  4  0
  3 20  4  0
  3 22  4  0
  4 11  4  0
  4 21  4  0
  5  9  4  0
  5 16  4  0
  6 15  4  0
  6 16  4  0
  7 22  4  0
  7 26  4  0
  8 10  4  0
  8 25  4  0
  9 15  4  0
  9 17  1  0
 10 21  4  0
 11 25  4  0
 12 23  4  0
 13 20  4  0
 13 26  4  0
 14 19  4  0
 17 18  4  0
 17 24  4  0
 19 23  4  0
 20 24  4  0
 23 26  1  0
M  END
$$$$

 Created by Python create_sdf_string function

 26 30  0  0  0  0  0  0  0  0999 V2000
   10.0084   -1.8019   23.4945 C   0  0  0  0  0  0  0  0  0  0  0  0
   10.0005   -4.2520   16.5631 C   0  0  0  0  0  0  0  0  0  0  0  0
   10.2759   -4.0036   17.8845 C   0  0  0  0  0  0  0  0  0  0  0  0
    8.5652    1.5478   25.3778 N   0  0  0  0  0  0  0  0  0  0  0  0
    6.8048   -7.5457   17.8752 C   0  0  0  0  0  0  0  0  0  0  0  0
    6.1721   -8.2186   15.9886 N   0  0  0  0  0  0  0  0  0  0  0  0
   11.1764   -2.6600   19.5604 C   0  0  0  0  0  0  0  0  0  0  0  0
    9.5491   -0.6380   24.1912 C   0  0  0  0  0  0  0  0  0  0  0  0
    7.5337   -6.9256   16.9519 C   0  0  0  0  0  0  0  0  0  0  0  0
    9.6782    0.5671   23.5143 C   0  0  0  0  0  0  0  0  0  0  0  0
    8.4532    0.3482   26.0821 C   0  0  0  0  0  0  0  0  0  0  0  0
   10.4239   -1.7677   22.2230 N   0  0  0  0  0  0  0  0  0  0  0  0
    9.9468   -4.5953   20.1709 C   0  0  0  0  0  0  0  0  0  0  0  0
   10.0366   -3.0590   23.9864 N   0  0  0  0  0  0  0  0  0  0  0  0
    7.1191   -7.3636   15.7739 C   0  0  0  0  0  0  0  0  0  0  0  0
    5.9612   -8.3203   17.2732 N   0  0  0  0  0  0  0  0  0  0  0  0
    8.5296   -5.9814   17.1841 C   0  0  0  0  0  0  0  0  0  0  0  0
    9.1527   -5.2118   16.2116 C   0  0  0  0  0  0  0  0  0  0  0  0
   10.3364   -3.8368   22.9255 O   0  0  0  0  0  0  0  0  0  0  0  0
    9.6947   -4.8407   18.8534 C   0  0  0  0  0  0  0  0  0  0  0  0
    9.1596    1.7042   24.1381 C   0  0  0  0  0  0  0  0  0  0  0  0
   11.0456   -2.9774   18.2694 N   0  0  0  0  0  0  0  0  0  0  0  0
   10.4788   -3.0457   21.8593 C   0  0  0  0  0  0  0  0  0  0  0  0
    8.8693   -5.8099   18.4657 N   0  0  0  0  0  0  0  0  0  0  0  0
    8.9892   -0.7926   25.4573 C   0  0  0  0  0  0  0  0  0  0  0  0
   10.5677   -3.4462   20.5323 C   0  0  0  0  0  0  0  0  0  0  0  0
  1  8  1  0
  1 12  4  0
  1 14  4  0
  2  3  4  0
  2 18  4  0
  3 20  4  0
  3 22  4  0
  4 11  4  0
  4 21  4  0
  5  9  4  0
  5 16  4  0
  6 15  4  0
  6 16  4  0
  7 22  4  0
  7 26  4  0
  8 10  4  0
  8 25  4  0
  9 15  4  0
  9 17  1  0
 10 21  4  0
 11 25  4  0
 12 23  4  0
 13 20  4  0
 13 26  4  0
 14 19  4  0
 17 18  4  0
 17 24  4  0
 19 23  4  0
 20 24  4  0
 23 26  1  0
M  END
$$$$

 Created by Python create_sdf_string function

 26 30  0  0  0  0  0  0  0  0999 V2000
   10.0084   -1.8019   23.4945 C   0  0  0  0  0  0  0  0  0  0  0  0
   10.0005   -4.2520   16.5631 C   0  0  0  0  0  0  0  0  0  0  0  0
   10.2759   -4.0036   17.8845 C   0  0  0  0  0  0  0  0  0  0  0  0
    8.5652    1.5478   25.3778 N   0  0  0  0  0  0  0  0  0  0  0  0
    6.8048   -7.5457   17.8752 C   0  0  0  0  0  0  0  0  0  0  0  0
    6.1721   -8.2186   15.9886 N   0  0  0  0  0  0  0  0  0  0  0  0
   11.1764   -2.6600   19.5604 C   0  0  0  0  0  0  0  0  0  0  0  0
    9.5491   -0.6380   24.1912 C   0  0  0  0  0  0  0  0  0  0  0  0
    7.5337   -6.9256   16.9519 C   0  0  0  0  0  0  0  0  0  0  0  0
    9.6782    0.5671   23.5143 C   0  0  0  0  0  0  0  0  0  0  0  0
    8.4532    0.3482   26.0821 C   0  0  0  0  0  0  0  0  0  0  0  0
   10.4239   -1.7677   22.2230 N   0  0  0  0  0  0  0  0  0  0  0  0
    9.9468   -4.5953   20.1709 C   0  0  0  0  0  0  0  0  0  0  0  0
   10.0366   -3.0590   23.9864 N   0  0  0  0  0  0  0  0  0  0  0  0
    7.1191   -7.3636   15.7739 C   0  0  0  0  0  0  0  0  0  0  0  0
    5.9612   -8.3203   17.2732 N   0  0  0  0  0  0  0  0  0  0  0  0
    8.5296   -5.9814   17.1841 C   0  0  0  0  0  0  0  0  0  0  0  0
    9.1527   -5.2118   16.2116 C   0  0  0  0  0  0  0  0  0  0  0  0
   10.3364   -3.8368   22.9255 O   0  0  0  0  0  0  0  0  0  0  0  0
    9.6947   -4.8407   18.8534 C   0  0  0  0  0  0  0  0  0  0  0  0
    9.1596    1.7042   24.1381 C   0  0  0  0  0  0  0  0  0  0  0  0
   11.0456   -2.9774   18.2694 N   0  0  0  0  0  0  0  0  0  0  0  0
   10.4788   -3.0457   21.8593 C   0  0  0  0  0  0  0  0  0  0  0  0
    8.8693   -5.8099   18.4657 N   0  0  0  0  0  0  0  0  0  0  0  0
    8.9892   -0.7926   25.4573 C   0  0  0  0  0  0  0  0  0  0  0  0
   10.5677   -3.4462   20.5323 C   0  0  0  0  0  0  0  0  0  0  0  0
  1  8  1  0
  1 12  4  0
  1 14  4  0
  2  3  4  0
  2 18  4  0
  3 20  4  0
  3 22  4  0
  4 11  4  0
  4 21  4  0
  5  9  4  0
  5 16  4  0
  6 15  4  0
  6 16  4  0
  7 22  4  0
  7 26  4  0
  8 10  4  0
  8 25  4  0
  9 15  4  0
  9 17  1  0
 10 21  4  0
 11 25  4  0
 12 23  4  0
 13 20  4  0
 13 26  4  0
 14 19  4  0
 17 18  4  0
 17 24  4  0
 19 23  4  0
 20 24  4  0
 23 26  1  0
M  END
$$$$

 Created by Python create_sdf_string function

 26 30  0  0  0  0  0  0  0  0999 V2000
   10.0084   -1.8019   23.4945 C   0  0  0  0  0  0  0  0  0  0  0  0
   10.0005   -4.2520   16.5631 C   0  0  0  0  0  0  0  0  0  0  0  0
   10.2759   -4.0036   17.8845 C   0  0  0  0  0  0  0  0  0  0  0  0
    8.5652    1.5478   25.3778 N   0  0  0  0  0  0  0  0  0  0  0  0
    6.8048   -7.5457   17.8752 C   0  0  0  0  0  0  0  0  0  0  0  0
    6.1721   -8.2186   15.9886 N   0  0  0  0  0  0  0  0  0  0  0  0
   11.1764   -2.6600   19.5604 C   0  0  0  0  0  0  0  0  0  0  0  0
    9.5491   -0.6380   24.1912 C   0  0  0  0  0  0  0  0  0  0  0  0
    7.5337   -6.9256   16.9519 C   0  0  0  0  0  0  0  0  0  0  0  0
    9.6782    0.5671   23.5143 C   0  0  0  0  0  0  0  0  0  0  0  0
    8.4532    0.3482   26.0821 C   0  0  0  0  0  0  0  0  0  0  0  0
   10.4239   -1.7677   22.2230 N   0  0  0  0  0  0  0  0  0  0  0  0
    9.9468   -4.5953   20.1709 C   0  0  0  0  0  0  0  0  0  0  0  0
   10.0366   -3.0590   23.9864 N   0  0  0  0  0  0  0  0  0  0  0  0
    7.1191   -7.3636   15.7739 C   0  0  0  0  0  0  0  0  0  0  0  0
    5.9612   -8.3203   17.2732 N   0  0  0  0  0  0  0  0  0  0  0  0
    8.5296   -5.9814   17.1841 C   0  0  0  0  0  0  0  0  0  0  0  0
    9.1527   -5.2118   16.2116 C   0  0  0  0  0  0  0  0  0  0  0  0
   10.3364   -3.8368   22.9255 O   0  0  0  0  0  0  0  0  0  0  0  0
    9.6947   -4.8407   18.8534 C   0  0  0  0  0  0  0  0  0  0  0  0
    9.1596    1.7042   24.1381 C   0  0  0  0  0  0  0  0  0  0  0  0
   11.0456   -2.9774   18.2694 N   0  0  0  0  0  0  0  0  0  0  0  0
   10.4788   -3.0457   21.8593 C   0  0  0  0  0  0  0  0  0  0  0  0
    8.8693   -5.8099   18.4657 N   0  0  0  0  0  0  0  0  0  0  0  0
    8.9892   -0.7926   25.4573 C   0  0  0  0  0  0  0  0  0  0  0  0
   10.5677   -3.4462   20.5323 C   0  0  0  0  0  0  0  0  0  0  0  0
  1  8  1  0
  1 12  4  0
  1 14  4  0
  2  3  4  0
  2 18  4  0
  3 20  4  0
  3 22  4  0
  4 11  4  0
  4 21  4  0
  5  9  4  0
  5 16  4  0
  6 15  4  0
  6 16  4  0
  7 22  4  0
  7 26  4  0
  8 10  4  0
  8 25  4  0
  9 15  4  0
  9 17  1  0
 10 21  4  0
 11 25  4  0
 12 23  4  0
 13 20  4  0
 13 26  4  0
 14 19  4  0
 17 18  4  0
 17 24  4  0
 19 23  4  0
 20 24  4  0
 23 26  1  0
M  END
$$$$

 Created by Python create_sdf_string function

 26 30  0  0  0  0  0  0  0  0999 V2000
   10.0084   -1.8019   23.4945 C   0  0  0  0  0  0  0  0  0  0  0  0
   10.0005   -4.2520   16.5631 C   0  0  0  0  0  0  0  0  0  0  0  0
   10.2759   -4.0036   17.8845 C   0  0  0  0  0  0  0  0  0  0  0  0
    8.5652    1.5478   25.3778 N   0  0  0  0  0  0  0  0  0  0  0  0
    6.8048   -7.5457   17.8752 C   0  0  0  0  0  0  0  0  0  0  0  0
    6.1721   -8.2186   15.9886 N   0  0  0  0  0  0  0  0  0  0  0  0
   11.1764   -2.6600   19.5604 C   0  0  0  0  0  0  0  0  0  0  0  0
    9.5491   -0.6380   24.1912 C   0  0  0  0  0  0  0  0  0  0  0  0
    7.5337   -6.9256   16.9519 C   0  0  0  0  0  0  0  0  0  0  0  0
    9.6782    0.5671   23.5143 C   0  0  0  0  0  0  0  0  0  0  0  0
    8.4532    0.3482   26.0821 C   0  0  0  0  0  0  0  0  0  0  0  0
   10.4239   -1.7677   22.2230 N   0  0  0  0  0  0  0  0  0  0  0  0
    9.9468   -4.5953   20.1709 C   0  0  0  0  0  0  0  0  0  0  0  0
   10.0366   -3.0590   23.9864 N   0  0  0  0  0  0  0  0  0  0  0  0
    7.1191   -7.3636   15.7739 C   0  0  0  0  0  0  0  0  0  0  0  0
    5.9612   -8.3203   17.2732 N   0  0  0  0  0  0  0  0  0  0  0  0
    8.5296   -5.9814   17.1841 C   0  0  0  0  0  0  0  0  0  0  0  0
    9.1527   -5.2118   16.2116 C   0  0  0  0  0  0  0  0  0  0  0  0
   10.3364   -3.8368   22.9255 O   0  0  0  0  0  0  0  0  0  0  0  0
    9.6947   -4.8407   18.8534 C   0  0  0  0  0  0  0  0  0  0  0  0
    9.1596    1.7042   24.1381 C   0  0  0  0  0  0  0  0  0  0  0  0
   11.0456   -2.9774   18.2694 N   0  0  0  0  0  0  0  0  0  0  0  0
   10.4788   -3.0457   21.8593 C   0  0  0  0  0  0  0  0  0  0  0  0
    8.8693   -5.8099   18.4657 N   0  0  0  0  0  0  0  0  0  0  0  0
    8.9892   -0.7926   25.4573 C   0  0  0  0  0  0  0  0  0  0  0  0
   10.5677   -3.4462   20.5323 C   0  0  0  0  0  0  0  0  0  0  0  0
  1  8  1  0
  1 12  4  0
  1 14  4  0
  2  3  4  0
  2 18  4  0
  3 20  4  0
  3 22  4  0
  4 11  4  0
  4 21  4  0
  5  9  4  0
  5 16  4  0
  6 15  4  0
  6 16  4  0
  7 22  4  0
  7 26  4  0
  8 10  4  0
  8 25  4  0
  9 15  4  0
  9 17  1  0
 10 21  4  0
 11 25  4  0
 12 23  4  0
 13 20  4  0
 13 26  4  0
 14 19  4  0
 17 18  4  0
 17 24  4  0
 19 23  4  0
 20 24  4  0
 23 26  1  0
M  END
$$$$

 Created by Python create_sdf_string function

 26 30  0  0  0  0  0  0  0  0999 V2000
   10.0084   -1.8019   23.4945 C   0  0  0  0  0  0  0  0  0  0  0  0
   10.0005   -4.2520   16.5631 C   0  0  0  0  0  0  0  0  0  0  0  0
   10.2759   -4.0036   17.8845 C   0  0  0  0  0  0  0  0  0  0  0  0
    8.5652    1.5478   25.3778 N   0  0  0  0  0  0  0  0  0  0  0  0
    6.8048   -7.5457   17.8752 C   0  0  0  0  0  0  0  0  0  0  0  0
    6.1721   -8.2186   15.9886 N   0  0  0  0  0  0  0  0  0  0  0  0
   11.1764   -2.6600   19.5604 C   0  0  0  0  0  0  0  0  0  0  0  0
    9.5491   -0.6380   24.1912 C   0  0  0  0  0  0  0  0  0  0  0  0
    7.5337   -6.9256   16.9519 C   0  0  0  0  0  0  0  0  0  0  0  0
    9.6782    0.5671   23.5143 C   0  0  0  0  0  0  0  0  0  0  0  0
    8.4532    0.3482   26.0821 C   0  0  0  0  0  0  0  0  0  0  0  0
   10.4239   -1.7677   22.2230 N   0  0  0  0  0  0  0  0  0  0  0  0
    9.9468   -4.5953   20.1709 C   0  0  0  0  0  0  0  0  0  0  0  0
   10.0366   -3.0590   23.9864 N   0  0  0  0  0  0  0  0  0  0  0  0
    7.1191   -7.3636   15.7739 C   0  0  0  0  0  0  0  0  0  0  0  0
    5.9612   -8.3203   17.2732 N   0  0  0  0  0  0  0  0  0  0  0  0
    8.5296   -5.9814   17.1841 C   0  0  0  0  0  0  0  0  0  0  0  0
    9.1527   -5.2118   16.2116 C   0  0  0  0  0  0  0  0  0  0  0  0
   10.3364   -3.8368   22.9255 O   0  0  0  0  0  0  0  0  0  0  0  0
    9.6947   -4.8407   18.8534 C   0  0  0  0  0  0  0  0  0  0  0  0
    9.1596    1.7042   24.1381 C   0  0  0  0  0  0  0  0  0  0  0  0
   11.0456   -2.9774   18.2694 N   0  0  0  0  0  0  0  0  0  0  0  0
   10.4788   -3.0457   21.8593 C   0  0  0  0  0  0  0  0  0  0  0  0
    8.8693   -5.8099   18.4657 N   0  0  0  0  0  0  0  0  0  0  0  0
    8.9892   -0.7926   25.4573 C   0  0  0  0  0  0  0  0  0  0  0  0
   10.5677   -3.4462   20.5323 C   0  0  0  0  0  0  0  0  0  0  0  0
  1  8  1  0
  1 12  4  0
  1 14  4  0
  2  3  4  0
  2 18  4  0
  3 20  4  0
  3 22  4  0
  4 11  4  0
  4 21  4  0
  5  9  4  0
  5 16  4  0
  6 15  4  0
  6 16  4  0
  7 22  4  0
  7 26  4  0
  8 10  4  0
  8 25  4  0
  9 15  4  0
  9 17  1  0
 10 21  4  0
 11 25  4  0
 12 23  4  0
 13 20  4  0
 13 26  4  0
 14 19  4  0
 17 18  4  0
 17 24  4  0
 19 23  4  0
 20 24  4  0
 23 26  1  0
M  END
$$$$

 Created by Python create_sdf_string function

 26 30  0  0  0  0  0  0  0  0999 V2000
   10.0084   -1.8019   23.4945 C   0  0  0  0  0  0  0  0  0  0  0  0
   10.0005   -4.2520   16.5631 C   0  0  0  0  0  0  0  0  0  0  0  0
   10.2759   -4.0036   17.8845 C   0  0  0  0  0  0  0  0  0  0  0  0
    8.5652    1.5478   25.3778 N   0  0  0  0  0  0  0  0  0  0  0  0
    6.8048   -7.5457   17.8752 C   0  0  0  0  0  0  0  0  0  0  0  0
    6.1721   -8.2186   15.9886 N   0  0  0  0  0  0  0  0  0  0  0  0
   11.1764   -2.6600   19.5604 C   0  0  0  0  0  0  0  0  0  0  0  0
    9.5491   -0.6380   24.1912 C   0  0  0  0  0  0  0  0  0  0  0  0
    7.5337   -6.9256   16.9519 C   0  0  0  0  0  0  0  0  0  0  0  0
    9.6782    0.5671   23.5143 C   0  0  0  0  0  0  0  0  0  0  0  0
    8.4532    0.3482   26.0821 C   0  0  0  0  0  0  0  0  0  0  0  0
   10.4239   -1.7677   22.2230 N   0  0  0  0  0  0  0  0  0  0  0  0
    9.9468   -4.5953   20.1709 C   0  0  0  0  0  0  0  0  0  0  0  0
   10.0366   -3.0590   23.9864 N   0  0  0  0  0  0  0  0  0  0  0  0
    7.1191   -7.3636   15.7739 C   0  0  0  0  0  0  0  0  0  0  0  0
    5.9612   -8.3203   17.2732 N   0  0  0  0  0  0  0  0  0  0  0  0
    8.5296   -5.9814   17.1841 C   0  0  0  0  0  0  0  0  0  0  0  0
    9.1527   -5.2118   16.2116 C   0  0  0  0  0  0  0  0  0  0  0  0
   10.3364   -3.8368   22.9255 O   0  0  0  0  0  0  0  0  0  0  0  0
    9.6947   -4.8407   18.8534 C   0  0  0  0  0  0  0  0  0  0  0  0
    9.1596    1.7042   24.1381 C   0  0  0  0  0  0  0  0  0  0  0  0
   11.0456   -2.9774   18.2694 N   0  0  0  0  0  0  0  0  0  0  0  0
   10.4788   -3.0457   21.8593 C   0  0  0  0  0  0  0  0  0  0  0  0
    8.8693   -5.8099   18.4657 N   0  0  0  0  0  0  0  0  0  0  0  0
    8.9892   -0.7926   25.4573 C   0  0  0  0  0  0  0  0  0  0  0  0
   10.5677   -3.4462   20.5323 C   0  0  0  0  0  0  0  0  0  0  0  0
  1  8  1  0
  1 12  4  0
  1 14  4  0
  2  3  4  0
  2 18  4  0
  3 20  4  0
  3 22  4  0
  4 11  4  0
  4 21  4  0
  5  9  4  0
  5 16  4  0
  6 15  4  0
  6 16  4  0
  7 22  4  0
  7 26  4  0
  8 10  4  0
  8 25  4  0
  9 15  4  0
  9 17  1  0
 10 21  4  0
 11 25  4  0
 12 23  4  0
 13 20  4  0
 13 26  4  0
 14 19  4  0
 17 18  4  0
 17 24  4  0
 19 23  4  0
 20 24  4  0
 23 26  1  0
M  END
$$$$

 Created by Python create_sdf_string function

 26 30  0  0  0  0  0  0  0  0999 V2000
   10.0084   -1.8019   23.4945 C   0  0  0  0  0  0  0  0  0  0  0  0
   10.0005   -4.2520   16.5631 C   0  0  0  0  0  0  0  0  0  0  0  0
   10.2759   -4.0036   17.8845 C   0  0  0  0  0  0  0  0  0  0  0  0
    8.5652    1.5478   25.3778 N   0  0  0  0  0  0  0  0  0  0  0  0
    6.8048   -7.5457   17.8752 C   0  0  0  0  0  0  0  0  0  0  0  0
    6.1721   -8.2186   15.9886 N   0  0  0  0  0  0  0  0  0  0  0  0
   11.1764   -2.6600   19.5604 C   0  0  0  0  0  0  0  0  0  0  0  0
    9.5491   -0.6380   24.1912 C   0  0  0  0  0  0  0  0  0  0  0  0
    7.5337   -6.9256   16.9519 C   0  0  0  0  0  0  0  0  0  0  0  0
    9.6782    0.5671   23.5143 C   0  0  0  0  0  0  0  0  0  0  0  0
    8.4532    0.3482   26.0821 C   0  0  0  0  0  0  0  0  0  0  0  0
   10.4239   -1.7677   22.2230 N   0  0  0  0  0  0  0  0  0  0  0  0
    9.9468   -4.5953   20.1709 C   0  0  0  0  0  0  0  0  0  0  0  0
   10.0366   -3.0590   23.9864 N   0  0  0  0  0  0  0  0  0  0  0  0
    7.1191   -7.3636   15.7739 C   0  0  0  0  0  0  0  0  0  0  0  0
    5.9612   -8.3203   17.2732 N   0  0  0  0  0  0  0  0  0  0  0  0
    8.5296   -5.9814   17.1841 C   0  0  0  0  0  0  0  0  0  0  0  0
    9.1527   -5.2118   16.2116 C   0  0  0  0  0  0  0  0  0  0  0  0
   10.3364   -3.8368   22.9255 O   0  0  0  0  0  0  0  0  0  0  0  0
    9.6947   -4.8407   18.8534 C   0  0  0  0  0  0  0  0  0  0  0  0
    9.1596    1.7042   24.1381 C   0  0  0  0  0  0  0  0  0  0  0  0
   11.0456   -2.9774   18.2694 N   0  0  0  0  0  0  0  0  0  0  0  0
   10.4788   -3.0457   21.8593 C   0  0  0  0  0  0  0  0  0  0  0  0
    8.8693   -5.8099   18.4657 N   0  0  0  0  0  0  0  0  0  0  0  0
    8.9892   -0.7926   25.4573 C   0  0  0  0  0  0  0  0  0  0  0  0
   10.5677   -3.4462   20.5323 C   0  0  0  0  0  0  0  0  0  0  0  0
  1  8  1  0
  1 12  4  0
  1 14  4  0
  2  3  4  0
  2 18  4  0
  3 20  4  0
  3 22  4  0
  4 11  4  0
  4 21  4  0
  5  9  4  0
  5 16  4  0
  6 15  4  0
  6 16  4  0
  7 22  4  0
  7 26  4  0
  8 10  4  0
  8 25  4  0
  9 15  4  0
  9 17  1  0
 10 21  4  0
 11 25  4  0
 12 23  4  0
 13 20  4  0
 13 26  4  0
 14 19  4  0
 17 18  4  0
 17 24  4  0
 19 23  4  0
 20 24  4  0
 23 26  1  0
M  END
$$$$

 Created by Python create_sdf_string function

 26 30  0  0  0  0  0  0  0  0999 V2000
   10.0084   -1.8019   23.4945 C   0  0  0  0  0  0  0  0  0  0  0  0
   10.0005   -4.2520   16.5631 C   0  0  0  0  0  0  0  0  0  0  0  0
   10.2759   -4.0036   17.8845 C   0  0  0  0  0  0  0  0  0  0  0  0
    8.5652    1.5478   25.3778 N   0  0  0  0  0  0  0  0  0  0  0  0
    6.8048   -7.5457   17.8752 C   0  0  0  0  0  0  0  0  0  0  0  0
    6.1721   -8.2186   15.9886 N   0  0  0  0  0  0  0  0  0  0  0  0
   11.1764   -2.6600   19.5604 C   0  0  0  0  0  0  0  0  0  0  0  0
    9.5491   -0.6380   24.1912 C   0  0  0  0  0  0  0  0  0  0  0  0
    7.5337   -6.9256   16.9519 C   0  0  0  0  0  0  0  0  0  0  0  0
    9.6782    0.5671   23.5143 C   0  0  0  0  0  0  0  0  0  0  0  0
    8.4532    0.3482   26.0821 C   0  0  0  0  0  0  0  0  0  0  0  0
   10.4239   -1.7677   22.2230 N   0  0  0  0  0  0  0  0  0  0  0  0
    9.9468   -4.5953   20.1709 C   0  0  0  0  0  0  0  0  0  0  0  0
   10.0366   -3.0590   23.9864 N   0  0  0  0  0  0  0  0  0  0  0  0
    7.1191   -7.3636   15.7739 C   0  0  0  0  0  0  0  0  0  0  0  0
    5.9612   -8.3203   17.2732 N   0  0  0  0  0  0  0  0  0  0  0  0
    8.5296   -5.9814   17.1841 C   0  0  0  0  0  0  0  0  0  0  0  0
    9.1527   -5.2118   16.2116 C   0  0  0  0  0  0  0  0  0  0  0  0
   10.3364   -3.8368   22.9255 O   0  0  0  0  0  0  0  0  0  0  0  0
    9.6947   -4.8407   18.8534 C   0  0  0  0  0  0  0  0  0  0  0  0
    9.1596    1.7042   24.1381 C   0  0  0  0  0  0  0  0  0  0  0  0
   11.0456   -2.9774   18.2694 N   0  0  0  0  0  0  0  0  0  0  0  0
   10.4788   -3.0457   21.8593 C   0  0  0  0  0  0  0  0  0  0  0  0
    8.8693   -5.8099   18.4657 N   0  0  0  0  0  0  0  0  0  0  0  0
    8.9892   -0.7926   25.4573 C   0  0  0  0  0  0  0  0  0  0  0  0
   10.5677   -3.4462   20.5323 C   0  0  0  0  0  0  0  0  0  0  0  0
  1  8  1  0
  1 12  4  0
  1 14  4  0
  2  3  4  0
  2 18  4  0
  3 20  4  0
  3 22  4  0
  4 11  4  0
  4 21  4  0
  5  9  4  0
  5 16  4  0
  6 15  4  0
  6 16  4  0
  7 22  4  0
  7 26  4  0
  8 10  4  0
  8 25  4  0
  9 15  4  0
  9 17  1  0
 10 21  4  0
 11 25  4  0
 12 23  4  0
 13 20  4  0
 13 26  4  0
 14 19  4  0
 17 18  4  0
 17 24  4  0
 19 23  4  0
 20 24  4  0
 23 26  1  0
M  END
$$$$

 Created by Python create_sdf_string function

 26 30  0  0  0  0  0  0  0  0999 V2000
   10.0084   -1.8019   23.4945 C   0  0  0  0  0  0  0  0  0  0  0  0
   10.0005   -4.2520   16.5631 C   0  0  0  0  0  0  0  0  0  0  0  0
   10.2759   -4.0036   17.8845 C   0  0  0  0  0  0  0  0  0  0  0  0
    8.5652    1.5478   25.3778 N   0  0  0  0  0  0  0  0  0  0  0  0
    6.8048   -7.5457   17.8752 C   0  0  0  0  0  0  0  0  0  0  0  0
    6.1721   -8.2186   15.9886 N   0  0  0  0  0  0  0  0  0  0  0  0
   11.1764   -2.6600   19.5604 C   0  0  0  0  0  0  0  0  0  0  0  0
    9.5491   -0.6380   24.1912 C   0  0  0  0  0  0  0  0  0  0  0  0
    7.5337   -6.9256   16.9519 C   0  0  0  0  0  0  0  0  0  0  0  0
    9.6782    0.5671   23.5143 C   0  0  0  0  0  0  0  0  0  0  0  0
    8.4532    0.3482   26.0821 C   0  0  0  0  0  0  0  0  0  0  0  0
   10.4239   -1.7677   22.2230 N   0  0  0  0  0  0  0  0  0  0  0  0
    9.9468   -4.5953   20.1709 C   0  0  0  0  0  0  0  0  0  0  0  0
   10.0366   -3.0590   23.9864 N   0  0  0  0  0  0  0  0  0  0  0  0
    7.1191   -7.3636   15.7739 C   0  0  0  0  0  0  0  0  0  0  0  0
    5.9612   -8.3203   17.2732 N   0  0  0  0  0  0  0  0  0  0  0  0
    8.5296   -5.9814   17.1841 C   0  0  0  0  0  0  0  0  0  0  0  0
    9.1527   -5.2118   16.2116 C   0  0  0  0  0  0  0  0  0  0  0  0
   10.3364   -3.8368   22.9255 O   0  0  0  0  0  0  0  0  0  0  0  0
    9.6947   -4.8407   18.8534 C   0  0  0  0  0  0  0  0  0  0  0  0
    9.1596    1.7042   24.1381 C   0  0  0  0  0  0  0  0  0  0  0  0
   11.0456   -2.9774   18.2694 N   0  0  0  0  0  0  0  0  0  0  0  0
   10.4788   -3.0457   21.8593 C   0  0  0  0  0  0  0  0  0  0  0  0
    8.8693   -5.8099   18.4657 N   0  0  0  0  0  0  0  0  0  0  0  0
    8.9892   -0.7926   25.4573 C   0  0  0  0  0  0  0  0  0  0  0  0
   10.5677   -3.4462   20.5323 C   0  0  0  0  0  0  0  0  0  0  0  0
  1  8  1  0
  1 12  4  0
  1 14  4  0
  2  3  4  0
  2 18  4  0
  3 20  4  0
  3 22  4  0
  4 11  4  0
  4 21  4  0
  5  9  4  0
  5 16  4  0
  6 15  4  0
  6 16  4  0
  7 22  4  0
  7 26  4  0
  8 10  4  0
  8 25  4  0
  9 15  4  0
  9 17  1  0
 10 21  4  0
 11 25  4  0
 12 23  4  0
 13 20  4  0
 13 26  4  0
 14 19  4  0
 17 18  4  0
 17 24  4  0
 19 23  4  0
 20 24  4  0
 23 26  1  0
M  END
$$$$

 Created by Python create_sdf_string function

 26 30  0  0  0  0  0  0  0  0999 V2000
   10.0084   -1.8019   23.4945 C   0  0  0  0  0  0  0  0  0  0  0  0
   10.0005   -4.2520   16.5631 C   0  0  0  0  0  0  0  0  0  0  0  0
   10.2759   -4.0036   17.8845 C   0  0  0  0  0  0  0  0  0  0  0  0
    8.5652    1.5478   25.3778 N   0  0  0  0  0  0  0  0  0  0  0  0
    6.8048   -7.5457   17.8752 C   0  0  0  0  0  0  0  0  0  0  0  0
    6.1721   -8.2186   15.9886 N   0  0  0  0  0  0  0  0  0  0  0  0
   11.1764   -2.6600   19.5604 C   0  0  0  0  0  0  0  0  0  0  0  0
    9.5491   -0.6380   24.1912 C   0  0  0  0  0  0  0  0  0  0  0  0
    7.5337   -6.9256   16.9519 C   0  0  0  0  0  0  0  0  0  0  0  0
    9.6782    0.5671   23.5143 C   0  0  0  0  0  0  0  0  0  0  0  0
    8.4532    0.3482   26.0821 C   0  0  0  0  0  0  0  0  0  0  0  0
   10.4239   -1.7677   22.2230 N   0  0  0  0  0  0  0  0  0  0  0  0
    9.9468   -4.5953   20.1709 C   0  0  0  0  0  0  0  0  0  0  0  0
   10.0366   -3.0590   23.9864 N   0  0  0  0  0  0  0  0  0  0  0  0
    7.1191   -7.3636   15.7739 C   0  0  0  0  0  0  0  0  0  0  0  0
    5.9612   -8.3203   17.2732 N   0  0  0  0  0  0  0  0  0  0  0  0
    8.5296   -5.9814   17.1841 C   0  0  0  0  0  0  0  0  0  0  0  0
    9.1527   -5.2118   16.2116 C   0  0  0  0  0  0  0  0  0  0  0  0
   10.3364   -3.8368   22.9255 O   0  0  0  0  0  0  0  0  0  0  0  0
    9.6947   -4.8407   18.8534 C   0  0  0  0  0  0  0  0  0  0  0  0
    9.1596    1.7042   24.1381 C   0  0  0  0  0  0  0  0  0  0  0  0
   11.0456   -2.9774   18.2694 N   0  0  0  0  0  0  0  0  0  0  0  0
   10.4788   -3.0457   21.8593 C   0  0  0  0  0  0  0  0  0  0  0  0
    8.8693   -5.8099   18.4657 N   0  0  0  0  0  0  0  0  0  0  0  0
    8.9892   -0.7926   25.4573 C   0  0  0  0  0  0  0  0  0  0  0  0
   10.5677   -3.4462   20.5323 C   0  0  0  0  0  0  0  0  0  0  0  0
  1  8  1  0
  1 12  4  0
  1 14  4  0
  2  3  4  0
  2 18  4  0
  3 20  4  0
  3 22  4  0
  4 11  4  0
  4 21  4  0
  5  9  4  0
  5 16  4  0
  6 15  4  0
  6 16  4  0
  7 22  4  0
  7 26  4  0
  8 10  4  0
  8 25  4  0
  9 15  4  0
  9 17  1  0
 10 21  4  0
 11 25  4  0
 12 23  4  0
 13 20  4  0
 13 26  4  0
 14 19  4  0
 17 18  4  0
 17 24  4  0
 19 23  4  0
 20 24  4  0
 23 26  1  0
M  END
$$$$

 Created by Python create_sdf_string function

 26 30  0  0  0  0  0  0  0  0999 V2000
   10.0084   -1.8019   23.4945 C   0  0  0  0  0  0  0  0  0  0  0  0
   10.0005   -4.2520   16.5631 C   0  0  0  0  0  0  0  0  0  0  0  0
   10.2759   -4.0036   17.8845 C   0  0  0  0  0  0  0  0  0  0  0  0
    8.5652    1.5478   25.3778 N   0  0  0  0  0  0  0  0  0  0  0  0
    6.8048   -7.5457   17.8752 C   0  0  0  0  0  0  0  0  0  0  0  0
    6.1721   -8.2186   15.9886 N   0  0  0  0  0  0  0  0  0  0  0  0
   11.1764   -2.6600   19.5604 C   0  0  0  0  0  0  0  0  0  0  0  0
    9.5491   -0.6380   24.1912 C   0  0  0  0  0  0  0  0  0  0  0  0
    7.5337   -6.9256   16.9519 C   0  0  0  0  0  0  0  0  0  0  0  0
    9.6782    0.5671   23.5143 C   0  0  0  0  0  0  0  0  0  0  0  0
    8.4532    0.3482   26.0821 C   0  0  0  0  0  0  0  0  0  0  0  0
   10.4239   -1.7677   22.2230 N   0  0  0  0  0  0  0  0  0  0  0  0
    9.9468   -4.5953   20.1709 C   0  0  0  0  0  0  0  0  0  0  0  0
   10.0366   -3.0590   23.9864 N   0  0  0  0  0  0  0  0  0  0  0  0
    7.1191   -7.3636   15.7739 C   0  0  0  0  0  0  0  0  0  0  0  0
    5.9612   -8.3203   17.2732 N   0  0  0  0  0  0  0  0  0  0  0  0
    8.5296   -5.9814   17.1841 C   0  0  0  0  0  0  0  0  0  0  0  0
    9.1527   -5.2118   16.2116 C   0  0  0  0  0  0  0  0  0  0  0  0
   10.3364   -3.8368   22.9255 O   0  0  0  0  0  0  0  0  0  0  0  0
    9.6947   -4.8407   18.8534 C   0  0  0  0  0  0  0  0  0  0  0  0
    9.1596    1.7042   24.1381 C   0  0  0  0  0  0  0  0  0  0  0  0
   11.0456   -2.9774   18.2694 N   0  0  0  0  0  0  0  0  0  0  0  0
   10.4788   -3.0457   21.8593 C   0  0  0  0  0  0  0  0  0  0  0  0
    8.8693   -5.8099   18.4657 N   0  0  0  0  0  0  0  0  0  0  0  0
    8.9892   -0.7926   25.4573 C   0  0  0  0  0  0  0  0  0  0  0  0
   10.5677   -3.4462   20.5323 C   0  0  0  0  0  0  0  0  0  0  0  0
  1  8  1  0
  1 12  4  0
  1 14  4  0
  2  3  4  0
  2 18  4  0
  3 20  4  0
  3 22  4  0
  4 11  4  0
  4 21  4  0
  5  9  4  0
  5 16  4  0
  6 15  4  0
  6 16  4  0
  7 22  4  0
  7 26  4  0
  8 10  4  0
  8 25  4  0
  9 15  4  0
  9 17  1  0
 10 21  4  0
 11 25  4  0
 12 23  4  0
 13 20  4  0
 13 26  4  0
 14 19  4  0
 17 18  4  0
 17 24  4  0
 19 23  4  0
 20 24  4  0
 23 26  1  0
M  END
$$$$

 Created by Python create_sdf_string function

 26 30  0  0  0  0  0  0  0  0999 V2000
   10.0084   -1.8019   23.4945 C   0  0  0  0  0  0  0  0  0  0  0  0
   10.0005   -4.2520   16.5631 C   0  0  0  0  0  0  0  0  0  0  0  0
   10.2759   -4.0036   17.8845 C   0  0  0  0  0  0  0  0  0  0  0  0
    8.5652    1.5478   25.3778 N   0  0  0  0  0  0  0  0  0  0  0  0
    6.8048   -7.5457   17.8752 C   0  0  0  0  0  0  0  0  0  0  0  0
    6.1721   -8.2186   15.9886 N   0  0  0  0  0  0  0  0  0  0  0  0
   11.1764   -2.6600   19.5604 C   0  0  0  0  0  0  0  0  0  0  0  0
    9.5491   -0.6380   24.1912 C   0  0  0  0  0  0  0  0  0  0  0  0
    7.5337   -6.9256   16.9519 C   0  0  0  0  0  0  0  0  0  0  0  0
    9.6782    0.5671   23.5143 C   0  0  0  0  0  0  0  0  0  0  0  0
    8.4532    0.3482   26.0821 C   0  0  0  0  0  0  0  0  0  0  0  0
   10.4239   -1.7677   22.2230 N   0  0  0  0  0  0  0  0  0  0  0  0
    9.9468   -4.5953   20.1709 C   0  0  0  0  0  0  0  0  0  0  0  0
   10.0366   -3.0590   23.9864 N   0  0  0  0  0  0  0  0  0  0  0  0
    7.1191   -7.3636   15.7739 C   0  0  0  0  0  0  0  0  0  0  0  0
    5.9612   -8.3203   17.2732 N   0  0  0  0  0  0  0  0  0  0  0  0
    8.5296   -5.9814   17.1841 C   0  0  0  0  0  0  0  0  0  0  0  0
    9.1527   -5.2118   16.2116 C   0  0  0  0  0  0  0  0  0  0  0  0
   10.3364   -3.8368   22.9255 O   0  0  0  0  0  0  0  0  0  0  0  0
    9.6947   -4.8407   18.8534 C   0  0  0  0  0  0  0  0  0  0  0  0
    9.1596    1.7042   24.1381 C   0  0  0  0  0  0  0  0  0  0  0  0
   11.0456   -2.9774   18.2694 N   0  0  0  0  0  0  0  0  0  0  0  0
   10.4788   -3.0457   21.8593 C   0  0  0  0  0  0  0  0  0  0  0  0
    8.8693   -5.8099   18.4657 N   0  0  0  0  0  0  0  0  0  0  0  0
    8.9892   -0.7926   25.4573 C   0  0  0  0  0  0  0  0  0  0  0  0
   10.5677   -3.4462   20.5323 C   0  0  0  0  0  0  0  0  0  0  0  0
  1  8  1  0
  1 12  4  0
  1 14  4  0
  2  3  4  0
  2 18  4  0
  3 20  4  0
  3 22  4  0
  4 11  4  0
  4 21  4  0
  5  9  4  0
  5 16  4  0
  6 15  4  0
  6 16  4  0
  7 22  4  0
  7 26  4  0
  8 10  4  0
  8 25  4  0
  9 15  4  0
  9 17  1  0
 10 21  4  0
 11 25  4  0
 12 23  4  0
 13 20  4  0
 13 26  4  0
 14 19  4  0
 17 18  4  0
 17 24  4  0
 19 23  4  0
 20 24  4  0
 23 26  1  0
M  END
$$$$

 Created by Python create_sdf_string function

 26 30  0  0  0  0  0  0  0  0999 V2000
   10.0084   -1.8019   23.4945 C   0  0  0  0  0  0  0  0  0  0  0  0
   10.0005   -4.2520   16.5631 C   0  0  0  0  0  0  0  0  0  0  0  0
   10.2759   -4.0036   17.8845 C   0  0  0  0  0  0  0  0  0  0  0  0
    8.5652    1.5478   25.3778 N   0  0  0  0  0  0  0  0  0  0  0  0
    6.8048   -7.5457   17.8752 C   0  0  0  0  0  0  0  0  0  0  0  0
    6.1721   -8.2186   15.9886 N   0  0  0  0  0  0  0  0  0  0  0  0
   11.1764   -2.6600   19.5604 C   0  0  0  0  0  0  0  0  0  0  0  0
    9.5491   -0.6380   24.1912 C   0  0  0  0  0  0  0  0  0  0  0  0
    7.5337   -6.9256   16.9519 C   0  0  0  0  0  0  0  0  0  0  0  0
    9.6782    0.5671   23.5143 C   0  0  0  0  0  0  0  0  0  0  0  0
    8.4532    0.3482   26.0821 C   0  0  0  0  0  0  0  0  0  0  0  0
   10.4239   -1.7677   22.2230 N   0  0  0  0  0  0  0  0  0  0  0  0
    9.9468   -4.5953   20.1709 C   0  0  0  0  0  0  0  0  0  0  0  0
   10.0366   -3.0590   23.9864 N   0  0  0  0  0  0  0  0  0  0  0  0
    7.1191   -7.3636   15.7739 C   0  0  0  0  0  0  0  0  0  0  0  0
    5.9612   -8.3203   17.2732 N   0  0  0  0  0  0  0  0  0  0  0  0
    8.5296   -5.9814   17.1841 C   0  0  0  0  0  0  0  0  0  0  0  0
    9.1527   -5.2118   16.2116 C   0  0  0  0  0  0  0  0  0  0  0  0
   10.3364   -3.8368   22.9255 O   0  0  0  0  0  0  0  0  0  0  0  0
    9.6947   -4.8407   18.8534 C   0  0  0  0  0  0  0  0  0  0  0  0
    9.1596    1.7042   24.1381 C   0  0  0  0  0  0  0  0  0  0  0  0
   11.0456   -2.9774   18.2694 N   0  0  0  0  0  0  0  0  0  0  0  0
   10.4788   -3.0457   21.8593 C   0  0  0  0  0  0  0  0  0  0  0  0
    8.8693   -5.8099   18.4657 N   0  0  0  0  0  0  0  0  0  0  0  0
    8.9892   -0.7926   25.4573 C   0  0  0  0  0  0  0  0  0  0  0  0
   10.5677   -3.4462   20.5323 C   0  0  0  0  0  0  0  0  0  0  0  0
  1  8  1  0
  1 12  4  0
  1 14  4  0
  2  3  4  0
  2 18  4  0
  3 20  4  0
  3 22  4  0
  4 11  4  0
  4 21  4  0
  5  9  4  0
  5 16  4  0
  6 15  4  0
  6 16  4  0
  7 22  4  0
  7 26  4  0
  8 10  4  0
  8 25  4  0
  9 15  4  0
  9 17  1  0
 10 21  4  0
 11 25  4  0
 12 23  4  0
 13 20  4  0
 13 26  4  0
 14 19  4  0
 17 18  4  0
 17 24  4  0
 19 23  4  0
 20 24  4  0
 23 26  1  0
M  END
$$$$

 Created by Python create_sdf_string function

 26 30  0  0  0  0  0  0  0  0999 V2000
   10.0084   -1.8019   23.4945 C   0  0  0  0  0  0  0  0  0  0  0  0
   10.0005   -4.2520   16.5631 C   0  0  0  0  0  0  0  0  0  0  0  0
   10.2759   -4.0036   17.8845 C   0  0  0  0  0  0  0  0  0  0  0  0
    8.5652    1.5478   25.3778 N   0  0  0  0  0  0  0  0  0  0  0  0
    6.8048   -7.5457   17.8752 C   0  0  0  0  0  0  0  0  0  0  0  0
    6.1721   -8.2186   15.9886 N   0  0  0  0  0  0  0  0  0  0  0  0
   11.1764   -2.6600   19.5604 C   0  0  0  0  0  0  0  0  0  0  0  0
    9.5491   -0.6380   24.1912 C   0  0  0  0  0  0  0  0  0  0  0  0
    7.5337   -6.9256   16.9519 C   0  0  0  0  0  0  0  0  0  0  0  0
    9.6782    0.5671   23.5143 C   0  0  0  0  0  0  0  0  0  0  0  0
    8.4532    0.3482   26.0821 C   0  0  0  0  0  0  0  0  0  0  0  0
   10.4239   -1.7677   22.2230 N   0  0  0  0  0  0  0  0  0  0  0  0
    9.9468   -4.5953   20.1709 C   0  0  0  0  0  0  0  0  0  0  0  0
   10.0366   -3.0590   23.9864 N   0  0  0  0  0  0  0  0  0  0  0  0
    7.1191   -7.3636   15.7739 C   0  0  0  0  0  0  0  0  0  0  0  0
    5.9612   -8.3203   17.2732 N   0  0  0  0  0  0  0  0  0  0  0  0
    8.5296   -5.9814   17.1841 C   0  0  0  0  0  0  0  0  0  0  0  0
    9.1527   -5.2118   16.2116 C   0  0  0  0  0  0  0  0  0  0  0  0
   10.3364   -3.8368   22.9255 O   0  0  0  0  0  0  0  0  0  0  0  0
    9.6947   -4.8407   18.8534 C   0  0  0  0  0  0  0  0  0  0  0  0
    9.1596    1.7042   24.1381 C   0  0  0  0  0  0  0  0  0  0  0  0
   11.0456   -2.9774   18.2694 N   0  0  0  0  0  0  0  0  0  0  0  0
   10.4788   -3.0457   21.8593 C   0  0  0  0  0  0  0  0  0  0  0  0
    8.8693   -5.8099   18.4657 N   0  0  0  0  0  0  0  0  0  0  0  0
    8.9892   -0.7926   25.4573 C   0  0  0  0  0  0  0  0  0  0  0  0
   10.5677   -3.4462   20.5323 C   0  0  0  0  0  0  0  0  0  0  0  0
  1  8  1  0
  1 12  4  0
  1 14  4  0
  2  3  4  0
  2 18  4  0
  3 20  4  0
  3 22  4  0
  4 11  4  0
  4 21  4  0
  5  9  4  0
  5 16  4  0
  6 15  4  0
  6 16  4  0
  7 22  4  0
  7 26  4  0
  8 10  4  0
  8 25  4  0
  9 15  4  0
  9 17  1  0
 10 21  4  0
 11 25  4  0
 12 23  4  0
 13 20  4  0
 13 26  4  0
 14 19  4  0
 17 18  4  0
 17 24  4  0
 19 23  4  0
 20 24  4  0
 23 26  1  0
M  END
$$$$

 Created by Python create_sdf_string function

 26 30  0  0  0  0  0  0  0  0999 V2000
   10.0084   -1.8019   23.4945 C   0  0  0  0  0  0  0  0  0  0  0  0
   10.0005   -4.2520   16.5631 C   0  0  0  0  0  0  0  0  0  0  0  0
   10.2759   -4.0036   17.8845 C   0  0  0  0  0  0  0  0  0  0  0  0
    8.5652    1.5478   25.3778 N   0  0  0  0  0  0  0  0  0  0  0  0
    6.8048   -7.5457   17.8752 C   0  0  0  0  0  0  0  0  0  0  0  0
    6.1721   -8.2186   15.9886 N   0  0  0  0  0  0  0  0  0  0  0  0
   11.1764   -2.6600   19.5604 C   0  0  0  0  0  0  0  0  0  0  0  0
    9.5491   -0.6380   24.1912 C   0  0  0  0  0  0  0  0  0  0  0  0
    7.5337   -6.9256   16.9519 C   0  0  0  0  0  0  0  0  0  0  0  0
    9.6782    0.5671   23.5143 C   0  0  0  0  0  0  0  0  0  0  0  0
    8.4532    0.3482   26.0821 C   0  0  0  0  0  0  0  0  0  0  0  0
   10.4239   -1.7677   22.2230 N   0  0  0  0  0  0  0  0  0  0  0  0
    9.9468   -4.5953   20.1709 C   0  0  0  0  0  0  0  0  0  0  0  0
   10.0366   -3.0590   23.9864 N   0  0  0  0  0  0  0  0  0  0  0  0
    7.1191   -7.3636   15.7739 C   0  0  0  0  0  0  0  0  0  0  0  0
    5.9612   -8.3203   17.2732 N   0  0  0  0  0  0  0  0  0  0  0  0
    8.5296   -5.9814   17.1841 C   0  0  0  0  0  0  0  0  0  0  0  0
    9.1527   -5.2118   16.2116 C   0  0  0  0  0  0  0  0  0  0  0  0
   10.3364   -3.8368   22.9255 O   0  0  0  0  0  0  0  0  0  0  0  0
    9.6947   -4.8407   18.8534 C   0  0  0  0  0  0  0  0  0  0  0  0
    9.1596    1.7042   24.1381 C   0  0  0  0  0  0  0  0  0  0  0  0
   11.0456   -2.9774   18.2694 N   0  0  0  0  0  0  0  0  0  0  0  0
   10.4788   -3.0457   21.8593 C   0  0  0  0  0  0  0  0  0  0  0  0
    8.8693   -5.8099   18.4657 N   0  0  0  0  0  0  0  0  0  0  0  0
    8.9892   -0.7926   25.4573 C   0  0  0  0  0  0  0  0  0  0  0  0
   10.5677   -3.4462   20.5323 C   0  0  0  0  0  0  0  0  0  0  0  0
  1  8  1  0
  1 12  4  0
  1 14  4  0
  2  3  4  0
  2 18  4  0
  3 20  4  0
  3 22  4  0
  4 11  4  0
  4 21  4  0
  5  9  4  0
  5 16  4  0
  6 15  4  0
  6 16  4  0
  7 22  4  0
  7 26  4  0
  8 10  4  0
  8 25  4  0
  9 15  4  0
  9 17  1  0
 10 21  4  0
 11 25  4  0
 12 23  4  0
 13 20  4  0
 13 26  4  0
 14 19  4  0
 17 18  4  0
 17 24  4  0
 19 23  4  0
 20 24  4  0
 23 26  1  0
M  END
$$$$

 Created by Python create_sdf_string function

 26 30  0  0  0  0  0  0  0  0999 V2000
   10.0084   -1.8019   23.4945 C   0  0  0  0  0  0  0  0  0  0  0  0
   10.0005   -4.2520   16.5631 C   0  0  0  0  0  0  0  0  0  0  0  0
   10.2759   -4.0036   17.8845 C   0  0  0  0  0  0  0  0  0  0  0  0
    8.5652    1.5478   25.3778 N   0  0  0  0  0  0  0  0  0  0  0  0
    6.8048   -7.5457   17.8752 C   0  0  0  0  0  0  0  0  0  0  0  0
    6.1721   -8.2186   15.9886 N   0  0  0  0  0  0  0  0  0  0  0  0
   11.1764   -2.6600   19.5604 C   0  0  0  0  0  0  0  0  0  0  0  0
    9.5491   -0.6380   24.1912 C   0  0  0  0  0  0  0  0  0  0  0  0
    7.5337   -6.9256   16.9519 C   0  0  0  0  0  0  0  0  0  0  0  0
    9.6782    0.5671   23.5143 C   0  0  0  0  0  0  0  0  0  0  0  0
    8.4532    0.3482   26.0821 C   0  0  0  0  0  0  0  0  0  0  0  0
   10.4239   -1.7677   22.2230 N   0  0  0  0  0  0  0  0  0  0  0  0
    9.9468   -4.5953   20.1709 C   0  0  0  0  0  0  0  0  0  0  0  0
   10.0366   -3.0590   23.9864 N   0  0  0  0  0  0  0  0  0  0  0  0
    7.1191   -7.3636   15.7739 C   0  0  0  0  0  0  0  0  0  0  0  0
    5.9612   -8.3203   17.2732 N   0  0  0  0  0  0  0  0  0  0  0  0
    8.5296   -5.9814   17.1841 C   0  0  0  0  0  0  0  0  0  0  0  0
    9.1527   -5.2118   16.2116 C   0  0  0  0  0  0  0  0  0  0  0  0
   10.3364   -3.8368   22.9255 O   0  0  0  0  0  0  0  0  0  0  0  0
    9.6947   -4.8407   18.8534 C   0  0  0  0  0  0  0  0  0  0  0  0
    9.1596    1.7042   24.1381 C   0  0  0  0  0  0  0  0  0  0  0  0
   11.0456   -2.9774   18.2694 N   0  0  0  0  0  0  0  0  0  0  0  0
   10.4788   -3.0457   21.8593 C   0  0  0  0  0  0  0  0  0  0  0  0
    8.8693   -5.8099   18.4657 N   0  0  0  0  0  0  0  0  0  0  0  0
    8.9892   -0.7926   25.4573 C   0  0  0  0  0  0  0  0  0  0  0  0
   10.5677   -3.4462   20.5323 C   0  0  0  0  0  0  0  0  0  0  0  0
  1  8  1  0
  1 12  4  0
  1 14  4  0
  2  3  4  0
  2 18  4  0
  3 20  4  0
  3 22  4  0
  4 11  4  0
  4 21  4  0
  5  9  4  0
  5 16  4  0
  6 15  4  0
  6 16  4  0
  7 22  4  0
  7 26  4  0
  8 10  4  0
  8 25  4  0
  9 15  4  0
  9 17  1  0
 10 21  4  0
 11 25  4  0
 12 23  4  0
 13 20  4  0
 13 26  4  0
 14 19  4  0
 17 18  4  0
 17 24  4  0
 19 23  4  0
 20 24  4  0
 23 26  1  0
M  END
$$$$

 Created by Python create_sdf_string function

 26 30  0  0  0  0  0  0  0  0999 V2000
   10.0084   -1.8019   23.4945 C   0  0  0  0  0  0  0  0  0  0  0  0
   10.0005   -4.2520   16.5631 C   0  0  0  0  0  0  0  0  0  0  0  0
   10.2759   -4.0036   17.8845 C   0  0  0  0  0  0  0  0  0  0  0  0
    8.5652    1.5478   25.3778 N   0  0  0  0  0  0  0  0  0  0  0  0
    6.8048   -7.5457   17.8752 C   0  0  0  0  0  0  0  0  0  0  0  0
    6.1721   -8.2186   15.9886 N   0  0  0  0  0  0  0  0  0  0  0  0
   11.1764   -2.6600   19.5604 C   0  0  0  0  0  0  0  0  0  0  0  0
    9.5491   -0.6380   24.1912 C   0  0  0  0  0  0  0  0  0  0  0  0
    7.5337   -6.9256   16.9519 C   0  0  0  0  0  0  0  0  0  0  0  0
    9.6782    0.5671   23.5143 C   0  0  0  0  0  0  0  0  0  0  0  0
    8.4532    0.3482   26.0821 C   0  0  0  0  0  0  0  0  0  0  0  0
   10.4239   -1.7677   22.2230 N   0  0  0  0  0  0  0  0  0  0  0  0
    9.9468   -4.5953   20.1709 C   0  0  0  0  0  0  0  0  0  0  0  0
   10.0366   -3.0590   23.9864 N   0  0  0  0  0  0  0  0  0  0  0  0
    7.1191   -7.3636   15.7739 C   0  0  0  0  0  0  0  0  0  0  0  0
    5.9612   -8.3203   17.2732 N   0  0  0  0  0  0  0  0  0  0  0  0
    8.5296   -5.9814   17.1841 C   0  0  0  0  0  0  0  0  0  0  0  0
    9.1527   -5.2118   16.2116 C   0  0  0  0  0  0  0  0  0  0  0  0
   10.3364   -3.8368   22.9255 O   0  0  0  0  0  0  0  0  0  0  0  0
    9.6947   -4.8407   18.8534 C   0  0  0  0  0  0  0  0  0  0  0  0
    9.1596    1.7042   24.1381 C   0  0  0  0  0  0  0  0  0  0  0  0
   11.0456   -2.9774   18.2694 N   0  0  0  0  0  0  0  0  0  0  0  0
   10.4788   -3.0457   21.8593 C   0  0  0  0  0  0  0  0  0  0  0  0
    8.8693   -5.8099   18.4657 N   0  0  0  0  0  0  0  0  0  0  0  0
    8.9892   -0.7926   25.4573 C   0  0  0  0  0  0  0  0  0  0  0  0
   10.5677   -3.4462   20.5323 C   0  0  0  0  0  0  0  0  0  0  0  0
  1  8  1  0
  1 12  4  0
  1 14  4  0
  2  3  4  0
  2 18  4  0
  3 20  4  0
  3 22  4  0
  4 11  4  0
  4 21  4  0
  5  9  4  0
  5 16  4  0
  6 15  4  0
  6 16  4  0
  7 22  4  0
  7 26  4  0
  8 10  4  0
  8 25  4  0
  9 15  4  0
  9 17  1  0
 10 21  4  0
 11 25  4  0
 12 23  4  0
 13 20  4  0
 13 26  4  0
 14 19  4  0
 17 18  4  0
 17 24  4  0
 19 23  4  0
 20 24  4  0
 23 26  1  0
M  END
$$$$

 Created by Python create_sdf_string function

 26 30  0  0  0  0  0  0  0  0999 V2000
   10.0084   -1.8019   23.4945 C   0  0  0  0  0  0  0  0  0  0  0  0
   10.0005   -4.2520   16.5631 C   0  0  0  0  0  0  0  0  0  0  0  0
   10.2759   -4.0036   17.8845 C   0  0  0  0  0  0  0  0  0  0  0  0
    8.5652    1.5478   25.3778 N   0  0  0  0  0  0  0  0  0  0  0  0
    6.8048   -7.5457   17.8752 C   0  0  0  0  0  0  0  0  0  0  0  0
    6.1721   -8.2186   15.9886 N   0  0  0  0  0  0  0  0  0  0  0  0
   11.1764   -2.6600   19.5604 C   0  0  0  0  0  0  0  0  0  0  0  0
    9.5491   -0.6380   24.1912 C   0  0  0  0  0  0  0  0  0  0  0  0
    7.5337   -6.9256   16.9519 C   0  0  0  0  0  0  0  0  0  0  0  0
    9.6782    0.5671   23.5143 C   0  0  0  0  0  0  0  0  0  0  0  0
    8.4532    0.3482   26.0821 C   0  0  0  0  0  0  0  0  0  0  0  0
   10.4239   -1.7677   22.2230 N   0  0  0  0  0  0  0  0  0  0  0  0
    9.9468   -4.5953   20.1709 C   0  0  0  0  0  0  0  0  0  0  0  0
   10.0366   -3.0590   23.9864 N   0  0  0  0  0  0  0  0  0  0  0  0
    7.1191   -7.3636   15.7739 C   0  0  0  0  0  0  0  0  0  0  0  0
    5.9612   -8.3203   17.2732 N   0  0  0  0  0  0  0  0  0  0  0  0
    8.5296   -5.9814   17.1841 C   0  0  0  0  0  0  0  0  0  0  0  0
    9.1527   -5.2118   16.2116 C   0  0  0  0  0  0  0  0  0  0  0  0
   10.3364   -3.8368   22.9255 O   0  0  0  0  0  0  0  0  0  0  0  0
    9.6947   -4.8407   18.8534 C   0  0  0  0  0  0  0  0  0  0  0  0
    9.1596    1.7042   24.1381 C   0  0  0  0  0  0  0  0  0  0  0  0
   11.0456   -2.9774   18.2694 N   0  0  0  0  0  0  0  0  0  0  0  0
   10.4788   -3.0457   21.8593 C   0  0  0  0  0  0  0  0  0  0  0  0
    8.8693   -5.8099   18.4657 N   0  0  0  0  0  0  0  0  0  0  0  0
    8.9892   -0.7926   25.4573 C   0  0  0  0  0  0  0  0  0  0  0  0
   10.5677   -3.4462   20.5323 C   0  0  0  0  0  0  0  0  0  0  0  0
  1  8  1  0
  1 12  4  0
  1 14  4  0
  2  3  4  0
  2 18  4  0
  3 20  4  0
  3 22  4  0
  4 11  4  0
  4 21  4  0
  5  9  4  0
  5 16  4  0
  6 15  4  0
  6 16  4  0
  7 22  4  0
  7 26  4  0
  8 10  4  0
  8 25  4  0
  9 15  4  0
  9 17  1  0
 10 21  4  0
 11 25  4  0
 12 23  4  0
 13 20  4  0
 13 26  4  0
 14 19  4  0
 17 18  4  0
 17 24  4  0
 19 23  4  0
 20 24  4  0
 23 26  1  0
M  END
$$$$

 Created by Python create_sdf_string function

 26 30  0  0  0  0  0  0  0  0999 V2000
   10.0084   -1.8019   23.4945 C   0  0  0  0  0  0  0  0  0  0  0  0
   10.0005   -4.2520   16.5631 C   0  0  0  0  0  0  0  0  0  0  0  0
   10.2759   -4.0036   17.8845 C   0  0  0  0  0  0  0  0  0  0  0  0
    8.5652    1.5478   25.3778 N   0  0  0  0  0  0  0  0  0  0  0  0
    6.8048   -7.5457   17.8752 C   0  0  0  0  0  0  0  0  0  0  0  0
    6.1721   -8.2186   15.9886 N   0  0  0  0  0  0  0  0  0  0  0  0
   11.1764   -2.6600   19.5604 C   0  0  0  0  0  0  0  0  0  0  0  0
    9.5491   -0.6380   24.1912 C   0  0  0  0  0  0  0  0  0  0  0  0
    7.5337   -6.9256   16.9519 C   0  0  0  0  0  0  0  0  0  0  0  0
    9.6782    0.5671   23.5143 C   0  0  0  0  0  0  0  0  0  0  0  0
    8.4532    0.3482   26.0821 C   0  0  0  0  0  0  0  0  0  0  0  0
   10.4239   -1.7677   22.2230 N   0  0  0  0  0  0  0  0  0  0  0  0
    9.9468   -4.5953   20.1709 C   0  0  0  0  0  0  0  0  0  0  0  0
   10.0366   -3.0590   23.9864 N   0  0  0  0  0  0  0  0  0  0  0  0
    7.1191   -7.3636   15.7739 C   0  0  0  0  0  0  0  0  0  0  0  0
    5.9612   -8.3203   17.2732 N   0  0  0  0  0  0  0  0  0  0  0  0
    8.5296   -5.9814   17.1841 C   0  0  0  0  0  0  0  0  0  0  0  0
    9.1527   -5.2118   16.2116 C   0  0  0  0  0  0  0  0  0  0  0  0
   10.3364   -3.8368   22.9255 O   0  0  0  0  0  0  0  0  0  0  0  0
    9.6947   -4.8407   18.8534 C   0  0  0  0  0  0  0  0  0  0  0  0
    9.1596    1.7042   24.1381 C   0  0  0  0  0  0  0  0  0  0  0  0
   11.0456   -2.9774   18.2694 N   0  0  0  0  0  0  0  0  0  0  0  0
   10.4788   -3.0457   21.8593 C   0  0  0  0  0  0  0  0  0  0  0  0
    8.8693   -5.8099   18.4657 N   0  0  0  0  0  0  0  0  0  0  0  0
    8.9892   -0.7926   25.4573 C   0  0  0  0  0  0  0  0  0  0  0  0
   10.5677   -3.4462   20.5323 C   0  0  0  0  0  0  0  0  0  0  0  0
  1  8  1  0
  1 12  4  0
  1 14  4  0
  2  3  4  0
  2 18  4  0
  3 20  4  0
  3 22  4  0
  4 11  4  0
  4 21  4  0
  5  9  4  0
  5 16  4  0
  6 15  4  0
  6 16  4  0
  7 22  4  0
  7 26  4  0
  8 10  4  0
  8 25  4  0
  9 15  4  0
  9 17  1  0
 10 21  4  0
 11 25  4  0
 12 23  4  0
 13 20  4  0
 13 26  4  0
 14 19  4  0
 17 18  4  0
 17 24  4  0
 19 23  4  0
 20 24  4  0
 23 26  1  0
M  END
$$$$

 Created by Python create_sdf_string function

 26 30  0  0  0  0  0  0  0  0999 V2000
   10.0084   -1.8019   23.4945 C   0  0  0  0  0  0  0  0  0  0  0  0
   10.0005   -4.2520   16.5631 C   0  0  0  0  0  0  0  0  0  0  0  0
   10.2759   -4.0036   17.8845 C   0  0  0  0  0  0  0  0  0  0  0  0
    8.5652    1.5478   25.3778 N   0  0  0  0  0  0  0  0  0  0  0  0
    6.8048   -7.5457   17.8752 C   0  0  0  0  0  0  0  0  0  0  0  0
    6.1721   -8.2186   15.9886 N   0  0  0  0  0  0  0  0  0  0  0  0
   11.1764   -2.6600   19.5604 C   0  0  0  0  0  0  0  0  0  0  0  0
    9.5491   -0.6380   24.1912 C   0  0  0  0  0  0  0  0  0  0  0  0
    7.5337   -6.9256   16.9519 C   0  0  0  0  0  0  0  0  0  0  0  0
    9.6782    0.5671   23.5143 C   0  0  0  0  0  0  0  0  0  0  0  0
    8.4532    0.3482   26.0821 C   0  0  0  0  0  0  0  0  0  0  0  0
   10.4239   -1.7677   22.2230 N   0  0  0  0  0  0  0  0  0  0  0  0
    9.9468   -4.5953   20.1709 C   0  0  0  0  0  0  0  0  0  0  0  0
   10.0366   -3.0590   23.9864 N   0  0  0  0  0  0  0  0  0  0  0  0
    7.1191   -7.3636   15.7739 C   0  0  0  0  0  0  0  0  0  0  0  0
    5.9612   -8.3203   17.2732 N   0  0  0  0  0  0  0  0  0  0  0  0
    8.5296   -5.9814   17.1841 C   0  0  0  0  0  0  0  0  0  0  0  0
    9.1527   -5.2118   16.2116 C   0  0  0  0  0  0  0  0  0  0  0  0
   10.3364   -3.8368   22.9255 O   0  0  0  0  0  0  0  0  0  0  0  0
    9.6947   -4.8407   18.8534 C   0  0  0  0  0  0  0  0  0  0  0  0
    9.1596    1.7042   24.1381 C   0  0  0  0  0  0  0  0  0  0  0  0
   11.0456   -2.9774   18.2694 N   0  0  0  0  0  0  0  0  0  0  0  0
   10.4788   -3.0457   21.8593 C   0  0  0  0  0  0  0  0  0  0  0  0
    8.8693   -5.8099   18.4657 N   0  0  0  0  0  0  0  0  0  0  0  0
    8.9892   -0.7926   25.4573 C   0  0  0  0  0  0  0  0  0  0  0  0
   10.5677   -3.4462   20.5323 C   0  0  0  0  0  0  0  0  0  0  0  0
  1  8  1  0
  1 12  4  0
  1 14  4  0
  2  3  4  0
  2 18  4  0
  3 20  4  0
  3 22  4  0
  4 11  4  0
  4 21  4  0
  5  9  4  0
  5 16  4  0
  6 15  4  0
  6 16  4  0
  7 22  4  0
  7 26  4  0
  8 10  4  0
  8 25  4  0
  9 15  4  0
  9 17  1  0
 10 21  4  0
 11 25  4  0
 12 23  4  0
 13 20  4  0
 13 26  4  0
 14 19  4  0
 17 18  4  0
 17 24  4  0
 19 23  4  0
 20 24  4  0
 23 26  1  0
M  END
$$$$

 Created by Python create_sdf_string function

 26 30  0  0  0  0  0  0  0  0999 V2000
   10.0084   -1.8019   23.4945 C   0  0  0  0  0  0  0  0  0  0  0  0
   10.0005   -4.2520   16.5631 C   0  0  0  0  0  0  0  0  0  0  0  0
   10.2759   -4.0036   17.8845 C   0  0  0  0  0  0  0  0  0  0  0  0
    8.5652    1.5478   25.3778 N   0  0  0  0  0  0  0  0  0  0  0  0
    6.8048   -7.5457   17.8752 C   0  0  0  0  0  0  0  0  0  0  0  0
    6.1721   -8.2186   15.9886 N   0  0  0  0  0  0  0  0  0  0  0  0
   11.1764   -2.6600   19.5604 C   0  0  0  0  0  0  0  0  0  0  0  0
    9.5491   -0.6380   24.1912 C   0  0  0  0  0  0  0  0  0  0  0  0
    7.5337   -6.9256   16.9519 C   0  0  0  0  0  0  0  0  0  0  0  0
    9.6782    0.5671   23.5143 C   0  0  0  0  0  0  0  0  0  0  0  0
    8.4532    0.3482   26.0821 C   0  0  0  0  0  0  0  0  0  0  0  0
   10.4239   -1.7677   22.2230 N   0  0  0  0  0  0  0  0  0  0  0  0
    9.9468   -4.5953   20.1709 C   0  0  0  0  0  0  0  0  0  0  0  0
   10.0366   -3.0590   23.9864 N   0  0  0  0  0  0  0  0  0  0  0  0
    7.1191   -7.3636   15.7739 C   0  0  0  0  0  0  0  0  0  0  0  0
    5.9612   -8.3203   17.2732 N   0  0  0  0  0  0  0  0  0  0  0  0
    8.5296   -5.9814   17.1841 C   0  0  0  0  0  0  0  0  0  0  0  0
    9.1527   -5.2118   16.2116 C   0  0  0  0  0  0  0  0  0  0  0  0
   10.3364   -3.8368   22.9255 O   0  0  0  0  0  0  0  0  0  0  0  0
    9.6947   -4.8407   18.8534 C   0  0  0  0  0  0  0  0  0  0  0  0
    9.1596    1.7042   24.1381 C   0  0  0  0  0  0  0  0  0  0  0  0
   11.0456   -2.9774   18.2694 N   0  0  0  0  0  0  0  0  0  0  0  0
   10.4788   -3.0457   21.8593 C   0  0  0  0  0  0  0  0  0  0  0  0
    8.8693   -5.8099   18.4657 N   0  0  0  0  0  0  0  0  0  0  0  0
    8.9892   -0.7926   25.4573 C   0  0  0  0  0  0  0  0  0  0  0  0
   10.5677   -3.4462   20.5323 C   0  0  0  0  0  0  0  0  0  0  0  0
  1  8  1  0
  1 12  4  0
  1 14  4  0
  2  3  4  0
  2 18  4  0
  3 20  4  0
  3 22  4  0
  4 11  4  0
  4 21  4  0
  5  9  4  0
  5 16  4  0
  6 15  4  0
  6 16  4  0
  7 22  4  0
  7 26  4  0
  8 10  4  0
  8 25  4  0
  9 15  4  0
  9 17  1  0
 10 21  4  0
 11 25  4  0
 12 23  4  0
 13 20  4  0
 13 26  4  0
 14 19  4  0
 17 18  4  0
 17 24  4  0
 19 23  4  0
 20 24  4  0
 23 26  1  0
M  END
$$$$

 Created by Python create_sdf_string function

 26 30  0  0  0  0  0  0  0  0999 V2000
   10.0084   -1.8019   23.4945 C   0  0  0  0  0  0  0  0  0  0  0  0
   10.0005   -4.2520   16.5631 C   0  0  0  0  0  0  0  0  0  0  0  0
   10.2759   -4.0036   17.8845 C   0  0  0  0  0  0  0  0  0  0  0  0
    8.5652    1.5478   25.3778 N   0  0  0  0  0  0  0  0  0  0  0  0
    6.8048   -7.5457   17.8752 C   0  0  0  0  0  0  0  0  0  0  0  0
    6.1721   -8.2186   15.9886 N   0  0  0  0  0  0  0  0  0  0  0  0
   11.1764   -2.6600   19.5604 C   0  0  0  0  0  0  0  0  0  0  0  0
    9.5491   -0.6380   24.1912 C   0  0  0  0  0  0  0  0  0  0  0  0
    7.5337   -6.9256   16.9519 C   0  0  0  0  0  0  0  0  0  0  0  0
    9.6782    0.5671   23.5143 C   0  0  0  0  0  0  0  0  0  0  0  0
    8.4532    0.3482   26.0821 C   0  0  0  0  0  0  0  0  0  0  0  0
   10.4239   -1.7677   22.2230 N   0  0  0  0  0  0  0  0  0  0  0  0
    9.9468   -4.5953   20.1709 C   0  0  0  0  0  0  0  0  0  0  0  0
   10.0366   -3.0590   23.9864 N   0  0  0  0  0  0  0  0  0  0  0  0
    7.1191   -7.3636   15.7739 C   0  0  0  0  0  0  0  0  0  0  0  0
    5.9612   -8.3203   17.2732 N   0  0  0  0  0  0  0  0  0  0  0  0
    8.5296   -5.9814   17.1841 C   0  0  0  0  0  0  0  0  0  0  0  0
    9.1527   -5.2118   16.2116 C   0  0  0  0  0  0  0  0  0  0  0  0
   10.3364   -3.8368   22.9255 O   0  0  0  0  0  0  0  0  0  0  0  0
    9.6947   -4.8407   18.8534 C   0  0  0  0  0  0  0  0  0  0  0  0
    9.1596    1.7042   24.1381 C   0  0  0  0  0  0  0  0  0  0  0  0
   11.0456   -2.9774   18.2694 N   0  0  0  0  0  0  0  0  0  0  0  0
   10.4788   -3.0457   21.8593 C   0  0  0  0  0  0  0  0  0  0  0  0
    8.8693   -5.8099   18.4657 N   0  0  0  0  0  0  0  0  0  0  0  0
    8.9892   -0.7926   25.4573 C   0  0  0  0  0  0  0  0  0  0  0  0
   10.5677   -3.4462   20.5323 C   0  0  0  0  0  0  0  0  0  0  0  0
  1  8  1  0
  1 12  4  0
  1 14  4  0
  2  3  4  0
  2 18  4  0
  3 20  4  0
  3 22  4  0
  4 11  4  0
  4 21  4  0
  5  9  4  0
  5 16  4  0
  6 15  4  0
  6 16  4  0
  7 22  4  0
  7 26  4  0
  8 10  4  0
  8 25  4  0
  9 15  4  0
  9 17  1  0
 10 21  4  0
 11 25  4  0
 12 23  4  0
 13 20  4  0
 13 26  4  0
 14 19  4  0
 17 18  4  0
 17 24  4  0
 19 23  4  0
 20 24  4  0
 23 26  1  0
M  END
$$$$

 Created by Python create_sdf_string function

 26 30  0  0  0  0  0  0  0  0999 V2000
   10.0084   -1.8019   23.4945 C   0  0  0  0  0  0  0  0  0  0  0  0
   10.0005   -4.2520   16.5631 C   0  0  0  0  0  0  0  0  0  0  0  0
   10.2759   -4.0036   17.8845 C   0  0  0  0  0  0  0  0  0  0  0  0
    8.5652    1.5478   25.3778 N   0  0  0  0  0  0  0  0  0  0  0  0
    6.8048   -7.5457   17.8752 C   0  0  0  0  0  0  0  0  0  0  0  0
    6.1721   -8.2186   15.9886 N   0  0  0  0  0  0  0  0  0  0  0  0
   11.1764   -2.6600   19.5604 C   0  0  0  0  0  0  0  0  0  0  0  0
    9.5491   -0.6380   24.1912 C   0  0  0  0  0  0  0  0  0  0  0  0
    7.5337   -6.9256   16.9519 C   0  0  0  0  0  0  0  0  0  0  0  0
    9.6782    0.5671   23.5143 C   0  0  0  0  0  0  0  0  0  0  0  0
    8.4532    0.3482   26.0821 C   0  0  0  0  0  0  0  0  0  0  0  0
   10.4239   -1.7677   22.2230 N   0  0  0  0  0  0  0  0  0  0  0  0
    9.9468   -4.5953   20.1709 C   0  0  0  0  0  0  0  0  0  0  0  0
   10.0366   -3.0590   23.9864 N   0  0  0  0  0  0  0  0  0  0  0  0
    7.1191   -7.3636   15.7739 C   0  0  0  0  0  0  0  0  0  0  0  0
    5.9612   -8.3203   17.2732 N   0  0  0  0  0  0  0  0  0  0  0  0
    8.5296   -5.9814   17.1841 C   0  0  0  0  0  0  0  0  0  0  0  0
    9.1527   -5.2118   16.2116 C   0  0  0  0  0  0  0  0  0  0  0  0
   10.3364   -3.8368   22.9255 O   0  0  0  0  0  0  0  0  0  0  0  0
    9.6947   -4.8407   18.8534 C   0  0  0  0  0  0  0  0  0  0  0  0
    9.1596    1.7042   24.1381 C   0  0  0  0  0  0  0  0  0  0  0  0
   11.0456   -2.9774   18.2694 N   0  0  0  0  0  0  0  0  0  0  0  0
   10.4788   -3.0457   21.8593 C   0  0  0  0  0  0  0  0  0  0  0  0
    8.8693   -5.8099   18.4657 N   0  0  0  0  0  0  0  0  0  0  0  0
    8.9892   -0.7926   25.4573 C   0  0  0  0  0  0  0  0  0  0  0  0
   10.5677   -3.4462   20.5323 C   0  0  0  0  0  0  0  0  0  0  0  0
  1  8  1  0
  1 12  4  0
  1 14  4  0
  2  3  4  0
  2 18  4  0
  3 20  4  0
  3 22  4  0
  4 11  4  0
  4 21  4  0
  5  9  4  0
  5 16  4  0
  6 15  4  0
  6 16  4  0
  7 22  4  0
  7 26  4  0
  8 10  4  0
  8 25  4  0
  9 15  4  0
  9 17  1  0
 10 21  4  0
 11 25  4  0
 12 23  4  0
 13 20  4  0
 13 26  4  0
 14 19  4  0
 17 18  4  0
 17 24  4  0
 19 23  4  0
 20 24  4  0
 23 26  1  0
M  END
$$$$

 Created by Python create_sdf_string function

 26 30  0  0  0  0  0  0  0  0999 V2000
   10.0084   -1.8019   23.4945 C   0  0  0  0  0  0  0  0  0  0  0  0
   10.0005   -4.2520   16.5631 C   0  0  0  0  0  0  0  0  0  0  0  0
   10.2759   -4.0036   17.8845 C   0  0  0  0  0  0  0  0  0  0  0  0
    8.5652    1.5478   25.3778 N   0  0  0  0  0  0  0  0  0  0  0  0
    6.8048   -7.5457   17.8752 C   0  0  0  0  0  0  0  0  0  0  0  0
    6.1721   -8.2186   15.9886 N   0  0  0  0  0  0  0  0  0  0  0  0
   11.1764   -2.6600   19.5604 C   0  0  0  0  0  0  0  0  0  0  0  0
    9.5491   -0.6380   24.1912 C   0  0  0  0  0  0  0  0  0  0  0  0
    7.5337   -6.9256   16.9519 C   0  0  0  0  0  0  0  0  0  0  0  0
    9.6782    0.5671   23.5143 C   0  0  0  0  0  0  0  0  0  0  0  0
    8.4532    0.3482   26.0821 C   0  0  0  0  0  0  0  0  0  0  0  0
   10.4239   -1.7677   22.2230 N   0  0  0  0  0  0  0  0  0  0  0  0
    9.9468   -4.5953   20.1709 C   0  0  0  0  0  0  0  0  0  0  0  0
   10.0366   -3.0590   23.9864 N   0  0  0  0  0  0  0  0  0  0  0  0
    7.1191   -7.3636   15.7739 C   0  0  0  0  0  0  0  0  0  0  0  0
    5.9612   -8.3203   17.2732 N   0  0  0  0  0  0  0  0  0  0  0  0
    8.5296   -5.9814   17.1841 C   0  0  0  0  0  0  0  0  0  0  0  0
    9.1527   -5.2118   16.2116 C   0  0  0  0  0  0  0  0  0  0  0  0
   10.3364   -3.8368   22.9255 O   0  0  0  0  0  0  0  0  0  0  0  0
    9.6947   -4.8407   18.8534 C   0  0  0  0  0  0  0  0  0  0  0  0
    9.1596    1.7042   24.1381 C   0  0  0  0  0  0  0  0  0  0  0  0
   11.0456   -2.9774   18.2694 N   0  0  0  0  0  0  0  0  0  0  0  0
   10.4788   -3.0457   21.8593 C   0  0  0  0  0  0  0  0  0  0  0  0
    8.8693   -5.8099   18.4657 N   0  0  0  0  0  0  0  0  0  0  0  0
    8.9892   -0.7926   25.4573 C   0  0  0  0  0  0  0  0  0  0  0  0
   10.5677   -3.4462   20.5323 C   0  0  0  0  0  0  0  0  0  0  0  0
  1  8  1  0
  1 12  4  0
  1 14  4  0
  2  3  4  0
  2 18  4  0
  3 20  4  0
  3 22  4  0
  4 11  4  0
  4 21  4  0
  5  9  4  0
  5 16  4  0
  6 15  4  0
  6 16  4  0
  7 22  4  0
  7 26  4  0
  8 10  4  0
  8 25  4  0
  9 15  4  0
  9 17  1  0
 10 21  4  0
 11 25  4  0
 12 23  4  0
 13 20  4  0
 13 26  4  0
 14 19  4  0
 17 18  4  0
 17 24  4  0
 19 23  4  0
 20 24  4  0
 23 26  1  0
M  END
$$$$

 Created by Python create_sdf_string function

 26 30  0  0  0  0  0  0  0  0999 V2000
   10.0084   -1.8019   23.4945 C   0  0  0  0  0  0  0  0  0  0  0  0
   10.0005   -4.2520   16.5631 C   0  0  0  0  0  0  0  0  0  0  0  0
   10.2759   -4.0036   17.8845 C   0  0  0  0  0  0  0  0  0  0  0  0
    8.5652    1.5478   25.3778 N   0  0  0  0  0  0  0  0  0  0  0  0
    6.8048   -7.5457   17.8752 C   0  0  0  0  0  0  0  0  0  0  0  0
    6.1721   -8.2186   15.9886 N   0  0  0  0  0  0  0  0  0  0  0  0
   11.1764   -2.6600   19.5604 C   0  0  0  0  0  0  0  0  0  0  0  0
    9.5491   -0.6380   24.1912 C   0  0  0  0  0  0  0  0  0  0  0  0
    7.5337   -6.9256   16.9519 C   0  0  0  0  0  0  0  0  0  0  0  0
    9.6782    0.5671   23.5143 C   0  0  0  0  0  0  0  0  0  0  0  0
    8.4532    0.3482   26.0821 C   0  0  0  0  0  0  0  0  0  0  0  0
   10.4239   -1.7677   22.2230 N   0  0  0  0  0  0  0  0  0  0  0  0
    9.9468   -4.5953   20.1709 C   0  0  0  0  0  0  0  0  0  0  0  0
   10.0366   -3.0590   23.9864 N   0  0  0  0  0  0  0  0  0  0  0  0
    7.1191   -7.3636   15.7739 C   0  0  0  0  0  0  0  0  0  0  0  0
    5.9612   -8.3203   17.2732 N   0  0  0  0  0  0  0  0  0  0  0  0
    8.5296   -5.9814   17.1841 C   0  0  0  0  0  0  0  0  0  0  0  0
    9.1527   -5.2118   16.2116 C   0  0  0  0  0  0  0  0  0  0  0  0
   10.3364   -3.8368   22.9255 O   0  0  0  0  0  0  0  0  0  0  0  0
    9.6947   -4.8407   18.8534 C   0  0  0  0  0  0  0  0  0  0  0  0
    9.1596    1.7042   24.1381 C   0  0  0  0  0  0  0  0  0  0  0  0
   11.0456   -2.9774   18.2694 N   0  0  0  0  0  0  0  0  0  0  0  0
   10.4788   -3.0457   21.8593 C   0  0  0  0  0  0  0  0  0  0  0  0
    8.8693   -5.8099   18.4657 N   0  0  0  0  0  0  0  0  0  0  0  0
    8.9892   -0.7926   25.4573 C   0  0  0  0  0  0  0  0  0  0  0  0
   10.5677   -3.4462   20.5323 C   0  0  0  0  0  0  0  0  0  0  0  0
  1  8  1  0
  1 12  4  0
  1 14  4  0
  2  3  4  0
  2 18  4  0
  3 20  4  0
  3 22  4  0
  4 11  4  0
  4 21  4  0
  5  9  4  0
  5 16  4  0
  6 15  4  0
  6 16  4  0
  7 22  4  0
  7 26  4  0
  8 10  4  0
  8 25  4  0
  9 15  4  0
  9 17  1  0
 10 21  4  0
 11 25  4  0
 12 23  4  0
 13 20  4  0
 13 26  4  0
 14 19  4  0
 17 18  4  0
 17 24  4  0
 19 23  4  0
 20 24  4  0
 23 26  1  0
M  END
$$$$

 Created by Python create_sdf_string function

 26 30  0  0  0  0  0  0  0  0999 V2000
   10.0084   -1.8019   23.4945 C   0  0  0  0  0  0  0  0  0  0  0  0
   10.0005   -4.2520   16.5631 C   0  0  0  0  0  0  0  0  0  0  0  0
   10.2759   -4.0036   17.8845 C   0  0  0  0  0  0  0  0  0  0  0  0
    8.5652    1.5478   25.3778 N   0  0  0  0  0  0  0  0  0  0  0  0
    6.8048   -7.5457   17.8752 C   0  0  0  0  0  0  0  0  0  0  0  0
    6.1721   -8.2186   15.9886 N   0  0  0  0  0  0  0  0  0  0  0  0
   11.1764   -2.6600   19.5604 C   0  0  0  0  0  0  0  0  0  0  0  0
    9.5491   -0.6380   24.1912 C   0  0  0  0  0  0  0  0  0  0  0  0
    7.5337   -6.9256   16.9519 C   0  0  0  0  0  0  0  0  0  0  0  0
    9.6782    0.5671   23.5143 C   0  0  0  0  0  0  0  0  0  0  0  0
    8.4532    0.3482   26.0821 C   0  0  0  0  0  0  0  0  0  0  0  0
   10.4239   -1.7677   22.2230 N   0  0  0  0  0  0  0  0  0  0  0  0
    9.9468   -4.5953   20.1709 C   0  0  0  0  0  0  0  0  0  0  0  0
   10.0366   -3.0590   23.9864 N   0  0  0  0  0  0  0  0  0  0  0  0
    7.1191   -7.3636   15.7739 C   0  0  0  0  0  0  0  0  0  0  0  0
    5.9612   -8.3203   17.2732 N   0  0  0  0  0  0  0  0  0  0  0  0
    8.5296   -5.9814   17.1841 C   0  0  0  0  0  0  0  0  0  0  0  0
    9.1527   -5.2118   16.2116 C   0  0  0  0  0  0  0  0  0  0  0  0
   10.3364   -3.8368   22.9255 O   0  0  0  0  0  0  0  0  0  0  0  0
    9.6947   -4.8407   18.8534 C   0  0  0  0  0  0  0  0  0  0  0  0
    9.1596    1.7042   24.1381 C   0  0  0  0  0  0  0  0  0  0  0  0
   11.0456   -2.9774   18.2694 N   0  0  0  0  0  0  0  0  0  0  0  0
   10.4788   -3.0457   21.8593 C   0  0  0  0  0  0  0  0  0  0  0  0
    8.8693   -5.8099   18.4657 N   0  0  0  0  0  0  0  0  0  0  0  0
    8.9892   -0.7926   25.4573 C   0  0  0  0  0  0  0  0  0  0  0  0
   10.5677   -3.4462   20.5323 C   0  0  0  0  0  0  0  0  0  0  0  0
  1  8  1  0
  1 12  4  0
  1 14  4  0
  2  3  4  0
  2 18  4  0
  3 20  4  0
  3 22  4  0
  4 11  4  0
  4 21  4  0
  5  9  4  0
  5 16  4  0
  6 15  4  0
  6 16  4  0
  7 22  4  0
  7 26  4  0
  8 10  4  0
  8 25  4  0
  9 15  4  0
  9 17  1  0
 10 21  4  0
 11 25  4  0
 12 23  4  0
 13 20  4  0
 13 26  4  0
 14 19  4  0
 17 18  4  0
 17 24  4  0
 19 23  4  0
 20 24  4  0
 23 26  1  0
M  END
$$$$

 Created by Python create_sdf_string function

 26 30  0  0  0  0  0  0  0  0999 V2000
   10.0084   -1.8019   23.4945 C   0  0  0  0  0  0  0  0  0  0  0  0
   10.0005   -4.2520   16.5631 C   0  0  0  0  0  0  0  0  0  0  0  0
   10.2759   -4.0036   17.8845 C   0  0  0  0  0  0  0  0  0  0  0  0
    8.5652    1.5478   25.3778 N   0  0  0  0  0  0  0  0  0  0  0  0
    6.8048   -7.5457   17.8752 C   0  0  0  0  0  0  0  0  0  0  0  0
    6.1721   -8.2186   15.9886 N   0  0  0  0  0  0  0  0  0  0  0  0
   11.1764   -2.6600   19.5604 C   0  0  0  0  0  0  0  0  0  0  0  0
    9.5491   -0.6380   24.1912 C   0  0  0  0  0  0  0  0  0  0  0  0
    7.5337   -6.9256   16.9519 C   0  0  0  0  0  0  0  0  0  0  0  0
    9.6782    0.5671   23.5143 C   0  0  0  0  0  0  0  0  0  0  0  0
    8.4532    0.3482   26.0821 C   0  0  0  0  0  0  0  0  0  0  0  0
   10.4239   -1.7677   22.2230 N   0  0  0  0  0  0  0  0  0  0  0  0
    9.9468   -4.5953   20.1709 C   0  0  0  0  0  0  0  0  0  0  0  0
   10.0366   -3.0590   23.9864 N   0  0  0  0  0  0  0  0  0  0  0  0
    7.1191   -7.3636   15.7739 C   0  0  0  0  0  0  0  0  0  0  0  0
    5.9612   -8.3203   17.2732 N   0  0  0  0  0  0  0  0  0  0  0  0
    8.5296   -5.9814   17.1841 C   0  0  0  0  0  0  0  0  0  0  0  0
    9.1527   -5.2118   16.2116 C   0  0  0  0  0  0  0  0  0  0  0  0
   10.3364   -3.8368   22.9255 O   0  0  0  0  0  0  0  0  0  0  0  0
    9.6947   -4.8407   18.8534 C   0  0  0  0  0  0  0  0  0  0  0  0
    9.1596    1.7042   24.1381 C   0  0  0  0  0  0  0  0  0  0  0  0
   11.0456   -2.9774   18.2694 N   0  0  0  0  0  0  0  0  0  0  0  0
   10.4788   -3.0457   21.8593 C   0  0  0  0  0  0  0  0  0  0  0  0
    8.8693   -5.8099   18.4657 N   0  0  0  0  0  0  0  0  0  0  0  0
    8.9892   -0.7926   25.4573 C   0  0  0  0  0  0  0  0  0  0  0  0
   10.5677   -3.4462   20.5323 C   0  0  0  0  0  0  0  0  0  0  0  0
  1  8  1  0
  1 12  4  0
  1 14  4  0
  2  3  4  0
  2 18  4  0
  3 20  4  0
  3 22  4  0
  4 11  4  0
  4 21  4  0
  5  9  4  0
  5 16  4  0
  6 15  4  0
  6 16  4  0
  7 22  4  0
  7 26  4  0
  8 10  4  0
  8 25  4  0
  9 15  4  0
  9 17  1  0
 10 21  4  0
 11 25  4  0
 12 23  4  0
 13 20  4  0
 13 26  4  0
 14 19  4  0
 17 18  4  0
 17 24  4  0
 19 23  4  0
 20 24  4  0
 23 26  1  0
M  END
$$$$

 Created by Python create_sdf_string function

 26 30  0  0  0  0  0  0  0  0999 V2000
   10.0084   -1.8019   23.4945 C   0  0  0  0  0  0  0  0  0  0  0  0
   10.0005   -4.2520   16.5631 C   0  0  0  0  0  0  0  0  0  0  0  0
   10.2759   -4.0036   17.8845 C   0  0  0  0  0  0  0  0  0  0  0  0
    8.5652    1.5478   25.3778 N   0  0  0  0  0  0  0  0  0  0  0  0
    6.8048   -7.5457   17.8752 C   0  0  0  0  0  0  0  0  0  0  0  0
    6.1721   -8.2186   15.9886 N   0  0  0  0  0  0  0  0  0  0  0  0
   11.1764   -2.6600   19.5604 C   0  0  0  0  0  0  0  0  0  0  0  0
    9.5491   -0.6380   24.1912 C   0  0  0  0  0  0  0  0  0  0  0  0
    7.5337   -6.9256   16.9519 C   0  0  0  0  0  0  0  0  0  0  0  0
    9.6782    0.5671   23.5143 C   0  0  0  0  0  0  0  0  0  0  0  0
    8.4532    0.3482   26.0821 C   0  0  0  0  0  0  0  0  0  0  0  0
   10.4239   -1.7677   22.2230 N   0  0  0  0  0  0  0  0  0  0  0  0
    9.9468   -4.5953   20.1709 C   0  0  0  0  0  0  0  0  0  0  0  0
   10.0366   -3.0590   23.9864 N   0  0  0  0  0  0  0  0  0  0  0  0
    7.1191   -7.3636   15.7739 C   0  0  0  0  0  0  0  0  0  0  0  0
    5.9612   -8.3203   17.2732 N   0  0  0  0  0  0  0  0  0  0  0  0
    8.5296   -5.9814   17.1841 C   0  0  0  0  0  0  0  0  0  0  0  0
    9.1527   -5.2118   16.2116 C   0  0  0  0  0  0  0  0  0  0  0  0
   10.3364   -3.8368   22.9255 O   0  0  0  0  0  0  0  0  0  0  0  0
    9.6947   -4.8407   18.8534 C   0  0  0  0  0  0  0  0  0  0  0  0
    9.1596    1.7042   24.1381 C   0  0  0  0  0  0  0  0  0  0  0  0
   11.0456   -2.9774   18.2694 N   0  0  0  0  0  0  0  0  0  0  0  0
   10.4788   -3.0457   21.8593 C   0  0  0  0  0  0  0  0  0  0  0  0
    8.8693   -5.8099   18.4657 N   0  0  0  0  0  0  0  0  0  0  0  0
    8.9892   -0.7926   25.4573 C   0  0  0  0  0  0  0  0  0  0  0  0
   10.5677   -3.4462   20.5323 C   0  0  0  0  0  0  0  0  0  0  0  0
  1  8  1  0
  1 12  4  0
  1 14  4  0
  2  3  4  0
  2 18  4  0
  3 20  4  0
  3 22  4  0
  4 11  4  0
  4 21  4  0
  5  9  4  0
  5 16  4  0
  6 15  4  0
  6 16  4  0
  7 22  4  0
  7 26  4  0
  8 10  4  0
  8 25  4  0
  9 15  4  0
  9 17  1  0
 10 21  4  0
 11 25  4  0
 12 23  4  0
 13 20  4  0
 13 26  4  0
 14 19  4  0
 17 18  4  0
 17 24  4  0
 19 23  4  0
 20 24  4  0
 23 26  1  0
M  END
$$$$

 Created by Python create_sdf_string function

 26 30  0  0  0  0  0  0  0  0999 V2000
   10.0084   -1.8019   23.4945 C   0  0  0  0  0  0  0  0  0  0  0  0
   10.0005   -4.2520   16.5631 C   0  0  0  0  0  0  0  0  0  0  0  0
   10.2759   -4.0036   17.8845 C   0  0  0  0  0  0  0  0  0  0  0  0
    8.5652    1.5478   25.3778 N   0  0  0  0  0  0  0  0  0  0  0  0
    6.8048   -7.5457   17.8752 C   0  0  0  0  0  0  0  0  0  0  0  0
    6.1721   -8.2186   15.9886 N   0  0  0  0  0  0  0  0  0  0  0  0
   11.1764   -2.6600   19.5604 C   0  0  0  0  0  0  0  0  0  0  0  0
    9.5491   -0.6380   24.1912 C   0  0  0  0  0  0  0  0  0  0  0  0
    7.5337   -6.9256   16.9519 C   0  0  0  0  0  0  0  0  0  0  0  0
    9.6782    0.5671   23.5143 C   0  0  0  0  0  0  0  0  0  0  0  0
    8.4532    0.3482   26.0821 C   0  0  0  0  0  0  0  0  0  0  0  0
   10.4239   -1.7677   22.2230 N   0  0  0  0  0  0  0  0  0  0  0  0
    9.9468   -4.5953   20.1709 C   0  0  0  0  0  0  0  0  0  0  0  0
   10.0366   -3.0590   23.9864 N   0  0  0  0  0  0  0  0  0  0  0  0
    7.1191   -7.3636   15.7739 C   0  0  0  0  0  0  0  0  0  0  0  0
    5.9612   -8.3203   17.2732 N   0  0  0  0  0  0  0  0  0  0  0  0
    8.5296   -5.9814   17.1841 C   0  0  0  0  0  0  0  0  0  0  0  0
    9.1527   -5.2118   16.2116 C   0  0  0  0  0  0  0  0  0  0  0  0
   10.3364   -3.8368   22.9255 O   0  0  0  0  0  0  0  0  0  0  0  0
    9.6947   -4.8407   18.8534 C   0  0  0  0  0  0  0  0  0  0  0  0
    9.1596    1.7042   24.1381 C   0  0  0  0  0  0  0  0  0  0  0  0
   11.0456   -2.9774   18.2694 N   0  0  0  0  0  0  0  0  0  0  0  0
   10.4788   -3.0457   21.8593 C   0  0  0  0  0  0  0  0  0  0  0  0
    8.8693   -5.8099   18.4657 N   0  0  0  0  0  0  0  0  0  0  0  0
    8.9892   -0.7926   25.4573 C   0  0  0  0  0  0  0  0  0  0  0  0
   10.5677   -3.4462   20.5323 C   0  0  0  0  0  0  0  0  0  0  0  0
  1  8  1  0
  1 12  4  0
  1 14  4  0
  2  3  4  0
  2 18  4  0
  3 20  4  0
  3 22  4  0
  4 11  4  0
  4 21  4  0
  5  9  4  0
  5 16  4  0
  6 15  4  0
  6 16  4  0
  7 22  4  0
  7 26  4  0
  8 10  4  0
  8 25  4  0
  9 15  4  0
  9 17  1  0
 10 21  4  0
 11 25  4  0
 12 23  4  0
 13 20  4  0
 13 26  4  0
 14 19  4  0
 17 18  4  0
 17 24  4  0
 19 23  4  0
 20 24  4  0
 23 26  1  0
M  END
$$$$

 Created by Python create_sdf_string function

 26 30  0  0  0  0  0  0  0  0999 V2000
   10.0084   -1.8019   23.4945 C   0  0  0  0  0  0  0  0  0  0  0  0
   10.0005   -4.2520   16.5631 C   0  0  0  0  0  0  0  0  0  0  0  0
   10.2759   -4.0036   17.8845 C   0  0  0  0  0  0  0  0  0  0  0  0
    8.5652    1.5478   25.3778 N   0  0  0  0  0  0  0  0  0  0  0  0
    6.8048   -7.5457   17.8752 C   0  0  0  0  0  0  0  0  0  0  0  0
    6.1721   -8.2186   15.9886 N   0  0  0  0  0  0  0  0  0  0  0  0
   11.1764   -2.6600   19.5604 C   0  0  0  0  0  0  0  0  0  0  0  0
    9.5491   -0.6380   24.1912 C   0  0  0  0  0  0  0  0  0  0  0  0
    7.5337   -6.9256   16.9519 C   0  0  0  0  0  0  0  0  0  0  0  0
    9.6782    0.5671   23.5143 C   0  0  0  0  0  0  0  0  0  0  0  0
    8.4532    0.3482   26.0821 C   0  0  0  0  0  0  0  0  0  0  0  0
   10.4239   -1.7677   22.2230 N   0  0  0  0  0  0  0  0  0  0  0  0
    9.9468   -4.5953   20.1709 C   0  0  0  0  0  0  0  0  0  0  0  0
   10.0366   -3.0590   23.9864 N   0  0  0  0  0  0  0  0  0  0  0  0
    7.1191   -7.3636   15.7739 C   0  0  0  0  0  0  0  0  0  0  0  0
    5.9612   -8.3203   17.2732 N   0  0  0  0  0  0  0  0  0  0  0  0
    8.5296   -5.9814   17.1841 C   0  0  0  0  0  0  0  0  0  0  0  0
    9.1527   -5.2118   16.2116 C   0  0  0  0  0  0  0  0  0  0  0  0
   10.3364   -3.8368   22.9255 O   0  0  0  0  0  0  0  0  0  0  0  0
    9.6947   -4.8407   18.8534 C   0  0  0  0  0  0  0  0  0  0  0  0
    9.1596    1.7042   24.1381 C   0  0  0  0  0  0  0  0  0  0  0  0
   11.0456   -2.9774   18.2694 N   0  0  0  0  0  0  0  0  0  0  0  0
   10.4788   -3.0457   21.8593 C   0  0  0  0  0  0  0  0  0  0  0  0
    8.8693   -5.8099   18.4657 N   0  0  0  0  0  0  0  0  0  0  0  0
    8.9892   -0.7926   25.4573 C   0  0  0  0  0  0  0  0  0  0  0  0
   10.5677   -3.4462   20.5323 C   0  0  0  0  0  0  0  0  0  0  0  0
  1  8  1  0
  1 12  4  0
  1 14  4  0
  2  3  4  0
  2 18  4  0
  3 20  4  0
  3 22  4  0
  4 11  4  0
  4 21  4  0
  5  9  4  0
  5 16  4  0
  6 15  4  0
  6 16  4  0
  7 22  4  0
  7 26  4  0
  8 10  4  0
  8 25  4  0
  9 15  4  0
  9 17  1  0
 10 21  4  0
 11 25  4  0
 12 23  4  0
 13 20  4  0
 13 26  4  0
 14 19  4  0
 17 18  4  0
 17 24  4  0
 19 23  4  0
 20 24  4  0
 23 26  1  0
M  END
$$$$

 Created by Python create_sdf_string function

 26 30  0  0  0  0  0  0  0  0999 V2000
   10.0084   -1.8019   23.4945 C   0  0  0  0  0  0  0  0  0  0  0  0
   10.0005   -4.2520   16.5631 C   0  0  0  0  0  0  0  0  0  0  0  0
   10.2759   -4.0036   17.8845 C   0  0  0  0  0  0  0  0  0  0  0  0
    8.5652    1.5478   25.3778 N   0  0  0  0  0  0  0  0  0  0  0  0
    6.8048   -7.5457   17.8752 C   0  0  0  0  0  0  0  0  0  0  0  0
    6.1721   -8.2186   15.9886 N   0  0  0  0  0  0  0  0  0  0  0  0
   11.1764   -2.6600   19.5604 C   0  0  0  0  0  0  0  0  0  0  0  0
    9.5491   -0.6380   24.1912 C   0  0  0  0  0  0  0  0  0  0  0  0
    7.5337   -6.9256   16.9519 C   0  0  0  0  0  0  0  0  0  0  0  0
    9.6782    0.5671   23.5143 C   0  0  0  0  0  0  0  0  0  0  0  0
    8.4532    0.3482   26.0821 C   0  0  0  0  0  0  0  0  0  0  0  0
   10.4239   -1.7677   22.2230 N   0  0  0  0  0  0  0  0  0  0  0  0
    9.9468   -4.5953   20.1709 C   0  0  0  0  0  0  0  0  0  0  0  0
   10.0366   -3.0590   23.9864 N   0  0  0  0  0  0  0  0  0  0  0  0
    7.1191   -7.3636   15.7739 C   0  0  0  0  0  0  0  0  0  0  0  0
    5.9612   -8.3203   17.2732 N   0  0  0  0  0  0  0  0  0  0  0  0
    8.5296   -5.9814   17.1841 C   0  0  0  0  0  0  0  0  0  0  0  0
    9.1527   -5.2118   16.2116 C   0  0  0  0  0  0  0  0  0  0  0  0
   10.3364   -3.8368   22.9255 O   0  0  0  0  0  0  0  0  0  0  0  0
    9.6947   -4.8407   18.8534 C   0  0  0  0  0  0  0  0  0  0  0  0
    9.1596    1.7042   24.1381 C   0  0  0  0  0  0  0  0  0  0  0  0
   11.0456   -2.9774   18.2694 N   0  0  0  0  0  0  0  0  0  0  0  0
   10.4788   -3.0457   21.8593 C   0  0  0  0  0  0  0  0  0  0  0  0
    8.8693   -5.8099   18.4657 N   0  0  0  0  0  0  0  0  0  0  0  0
    8.9892   -0.7926   25.4573 C   0  0  0  0  0  0  0  0  0  0  0  0
   10.5677   -3.4462   20.5323 C   0  0  0  0  0  0  0  0  0  0  0  0
  1  8  1  0
  1 12  4  0
  1 14  4  0
  2  3  4  0
  2 18  4  0
  3 20  4  0
  3 22  4  0
  4 11  4  0
  4 21  4  0
  5  9  4  0
  5 16  4  0
  6 15  4  0
  6 16  4  0
  7 22  4  0
  7 26  4  0
  8 10  4  0
  8 25  4  0
  9 15  4  0
  9 17  1  0
 10 21  4  0
 11 25  4  0
 12 23  4  0
 13 20  4  0
 13 26  4  0
 14 19  4  0
 17 18  4  0
 17 24  4  0
 19 23  4  0
 20 24  4  0
 23 26  1  0
M  END
$$$$

 Created by Python create_sdf_string function

 26 30  0  0  0  0  0  0  0  0999 V2000
   10.0084   -1.8019   23.4945 C   0  0  0  0  0  0  0  0  0  0  0  0
   10.0005   -4.2520   16.5631 C   0  0  0  0  0  0  0  0  0  0  0  0
   10.2759   -4.0036   17.8845 C   0  0  0  0  0  0  0  0  0  0  0  0
    8.5652    1.5478   25.3778 N   0  0  0  0  0  0  0  0  0  0  0  0
    6.8048   -7.5457   17.8752 C   0  0  0  0  0  0  0  0  0  0  0  0
    6.1721   -8.2186   15.9886 N   0  0  0  0  0  0  0  0  0  0  0  0
   11.1764   -2.6600   19.5604 C   0  0  0  0  0  0  0  0  0  0  0  0
    9.5491   -0.6380   24.1912 C   0  0  0  0  0  0  0  0  0  0  0  0
    7.5337   -6.9256   16.9519 C   0  0  0  0  0  0  0  0  0  0  0  0
    9.6782    0.5671   23.5143 C   0  0  0  0  0  0  0  0  0  0  0  0
    8.4532    0.3482   26.0821 C   0  0  0  0  0  0  0  0  0  0  0  0
   10.4239   -1.7677   22.2230 N   0  0  0  0  0  0  0  0  0  0  0  0
    9.9468   -4.5953   20.1709 C   0  0  0  0  0  0  0  0  0  0  0  0
   10.0366   -3.0590   23.9864 N   0  0  0  0  0  0  0  0  0  0  0  0
    7.1191   -7.3636   15.7739 C   0  0  0  0  0  0  0  0  0  0  0  0
    5.9612   -8.3203   17.2732 N   0  0  0  0  0  0  0  0  0  0  0  0
    8.5296   -5.9814   17.1841 C   0  0  0  0  0  0  0  0  0  0  0  0
    9.1527   -5.2118   16.2116 C   0  0  0  0  0  0  0  0  0  0  0  0
   10.3364   -3.8368   22.9255 O   0  0  0  0  0  0  0  0  0  0  0  0
    9.6947   -4.8407   18.8534 C   0  0  0  0  0  0  0  0  0  0  0  0
    9.1596    1.7042   24.1381 C   0  0  0  0  0  0  0  0  0  0  0  0
   11.0456   -2.9774   18.2694 N   0  0  0  0  0  0  0  0  0  0  0  0
   10.4788   -3.0457   21.8593 C   0  0  0  0  0  0  0  0  0  0  0  0
    8.8693   -5.8099   18.4657 N   0  0  0  0  0  0  0  0  0  0  0  0
    8.9892   -0.7926   25.4573 C   0  0  0  0  0  0  0  0  0  0  0  0
   10.5677   -3.4462   20.5323 C   0  0  0  0  0  0  0  0  0  0  0  0
  1  8  1  0
  1 12  4  0
  1 14  4  0
  2  3  4  0
  2 18  4  0
  3 20  4  0
  3 22  4  0
  4 11  4  0
  4 21  4  0
  5  9  4  0
  5 16  4  0
  6 15  4  0
  6 16  4  0
  7 22  4  0
  7 26  4  0
  8 10  4  0
  8 25  4  0
  9 15  4  0
  9 17  1  0
 10 21  4  0
 11 25  4  0
 12 23  4  0
 13 20  4  0
 13 26  4  0
 14 19  4  0
 17 18  4  0
 17 24  4  0
 19 23  4  0
 20 24  4  0
 23 26  1  0
M  END
$$$$

 Created by Python create_sdf_string function

 26 30  0  0  0  0  0  0  0  0999 V2000
   10.0084   -1.8019   23.4945 C   0  0  0  0  0  0  0  0  0  0  0  0
   10.0005   -4.2520   16.5631 C   0  0  0  0  0  0  0  0  0  0  0  0
   10.2759   -4.0036   17.8845 C   0  0  0  0  0  0  0  0  0  0  0  0
    8.5652    1.5478   25.3778 N   0  0  0  0  0  0  0  0  0  0  0  0
    6.8048   -7.5457   17.8752 C   0  0  0  0  0  0  0  0  0  0  0  0
    6.1721   -8.2186   15.9886 N   0  0  0  0  0  0  0  0  0  0  0  0
   11.1764   -2.6600   19.5604 C   0  0  0  0  0  0  0  0  0  0  0  0
    9.5491   -0.6380   24.1912 C   0  0  0  0  0  0  0  0  0  0  0  0
    7.5337   -6.9256   16.9519 C   0  0  0  0  0  0  0  0  0  0  0  0
    9.6782    0.5671   23.5143 C   0  0  0  0  0  0  0  0  0  0  0  0
    8.4532    0.3482   26.0821 C   0  0  0  0  0  0  0  0  0  0  0  0
   10.4239   -1.7677   22.2230 N   0  0  0  0  0  0  0  0  0  0  0  0
    9.9468   -4.5953   20.1709 C   0  0  0  0  0  0  0  0  0  0  0  0
   10.0366   -3.0590   23.9864 N   0  0  0  0  0  0  0  0  0  0  0  0
    7.1191   -7.3636   15.7739 C   0  0  0  0  0  0  0  0  0  0  0  0
    5.9612   -8.3203   17.2732 N   0  0  0  0  0  0  0  0  0  0  0  0
    8.5296   -5.9814   17.1841 C   0  0  0  0  0  0  0  0  0  0  0  0
    9.1527   -5.2118   16.2116 C   0  0  0  0  0  0  0  0  0  0  0  0
   10.3364   -3.8368   22.9255 O   0  0  0  0  0  0  0  0  0  0  0  0
    9.6947   -4.8407   18.8534 C   0  0  0  0  0  0  0  0  0  0  0  0
    9.1596    1.7042   24.1381 C   0  0  0  0  0  0  0  0  0  0  0  0
   11.0456   -2.9774   18.2694 N   0  0  0  0  0  0  0  0  0  0  0  0
   10.4788   -3.0457   21.8593 C   0  0  0  0  0  0  0  0  0  0  0  0
    8.8693   -5.8099   18.4657 N   0  0  0  0  0  0  0  0  0  0  0  0
    8.9892   -0.7926   25.4573 C   0  0  0  0  0  0  0  0  0  0  0  0
   10.5677   -3.4462   20.5323 C   0  0  0  0  0  0  0  0  0  0  0  0
  1  8  1  0
  1 12  4  0
  1 14  4  0
  2  3  4  0
  2 18  4  0
  3 20  4  0
  3 22  4  0
  4 11  4  0
  4 21  4  0
  5  9  4  0
  5 16  4  0
  6 15  4  0
  6 16  4  0
  7 22  4  0
  7 26  4  0
  8 10  4  0
  8 25  4  0
  9 15  4  0
  9 17  1  0
 10 21  4  0
 11 25  4  0
 12 23  4  0
 13 20  4  0
 13 26  4  0
 14 19  4  0
 17 18  4  0
 17 24  4  0
 19 23  4  0
 20 24  4  0
 23 26  1  0
M  END
$$$$

 Created by Python create_sdf_string function

 26 30  0  0  0  0  0  0  0  0999 V2000
   10.0084   -1.8019   23.4945 C   0  0  0  0  0  0  0  0  0  0  0  0
   10.0005   -4.2520   16.5631 C   0  0  0  0  0  0  0  0  0  0  0  0
   10.2759   -4.0036   17.8845 C   0  0  0  0  0  0  0  0  0  0  0  0
    8.5652    1.5478   25.3778 N   0  0  0  0  0  0  0  0  0  0  0  0
    6.8048   -7.5457   17.8752 C   0  0  0  0  0  0  0  0  0  0  0  0
    6.1721   -8.2186   15.9886 N   0  0  0  0  0  0  0  0  0  0  0  0
   11.1764   -2.6600   19.5604 C   0  0  0  0  0  0  0  0  0  0  0  0
    9.5491   -0.6380   24.1912 C   0  0  0  0  0  0  0  0  0  0  0  0
    7.5337   -6.9256   16.9519 C   0  0  0  0  0  0  0  0  0  0  0  0
    9.6782    0.5671   23.5143 C   0  0  0  0  0  0  0  0  0  0  0  0
    8.4532    0.3482   26.0821 C   0  0  0  0  0  0  0  0  0  0  0  0
   10.4239   -1.7677   22.2230 N   0  0  0  0  0  0  0  0  0  0  0  0
    9.9468   -4.5953   20.1709 C   0  0  0  0  0  0  0  0  0  0  0  0
   10.0366   -3.0590   23.9864 N   0  0  0  0  0  0  0  0  0  0  0  0
    7.1191   -7.3636   15.7739 C   0  0  0  0  0  0  0  0  0  0  0  0
    5.9612   -8.3203   17.2732 N   0  0  0  0  0  0  0  0  0  0  0  0
    8.5296   -5.9814   17.1841 C   0  0  0  0  0  0  0  0  0  0  0  0
    9.1527   -5.2118   16.2116 C   0  0  0  0  0  0  0  0  0  0  0  0
   10.3364   -3.8368   22.9255 O   0  0  0  0  0  0  0  0  0  0  0  0
    9.6947   -4.8407   18.8534 C   0  0  0  0  0  0  0  0  0  0  0  0
    9.1596    1.7042   24.1381 C   0  0  0  0  0  0  0  0  0  0  0  0
   11.0456   -2.9774   18.2694 N   0  0  0  0  0  0  0  0  0  0  0  0
   10.4788   -3.0457   21.8593 C   0  0  0  0  0  0  0  0  0  0  0  0
    8.8693   -5.8099   18.4657 N   0  0  0  0  0  0  0  0  0  0  0  0
    8.9892   -0.7926   25.4573 C   0  0  0  0  0  0  0  0  0  0  0  0
   10.5677   -3.4462   20.5323 C   0  0  0  0  0  0  0  0  0  0  0  0
  1  8  1  0
  1 12  4  0
  1 14  4  0
  2  3  4  0
  2 18  4  0
  3 20  4  0
  3 22  4  0
  4 11  4  0
  4 21  4  0
  5  9  4  0
  5 16  4  0
  6 15  4  0
  6 16  4  0
  7 22  4  0
  7 26  4  0
  8 10  4  0
  8 25  4  0
  9 15  4  0
  9 17  1  0
 10 21  4  0
 11 25  4  0
 12 23  4  0
 13 20  4  0
 13 26  4  0
 14 19  4  0
 17 18  4  0
 17 24  4  0
 19 23  4  0
 20 24  4  0
 23 26  1  0
M  END
$$$$

 Created by Python create_sdf_string function

 26 30  0  0  0  0  0  0  0  0999 V2000
   10.0084   -1.8019   23.4945 C   0  0  0  0  0  0  0  0  0  0  0  0
   10.0005   -4.2520   16.5631 C   0  0  0  0  0  0  0  0  0  0  0  0
   10.2759   -4.0036   17.8845 C   0  0  0  0  0  0  0  0  0  0  0  0
    8.5652    1.5478   25.3778 N   0  0  0  0  0  0  0  0  0  0  0  0
    6.8048   -7.5457   17.8752 C   0  0  0  0  0  0  0  0  0  0  0  0
    6.1721   -8.2186   15.9886 N   0  0  0  0  0  0  0  0  0  0  0  0
   11.1764   -2.6600   19.5604 C   0  0  0  0  0  0  0  0  0  0  0  0
    9.5491   -0.6380   24.1912 C   0  0  0  0  0  0  0  0  0  0  0  0
    7.5337   -6.9256   16.9519 C   0  0  0  0  0  0  0  0  0  0  0  0
    9.6782    0.5671   23.5143 C   0  0  0  0  0  0  0  0  0  0  0  0
    8.4532    0.3482   26.0821 C   0  0  0  0  0  0  0  0  0  0  0  0
   10.4239   -1.7677   22.2230 N   0  0  0  0  0  0  0  0  0  0  0  0
    9.9468   -4.5953   20.1709 C   0  0  0  0  0  0  0  0  0  0  0  0
   10.0366   -3.0590   23.9864 N   0  0  0  0  0  0  0  0  0  0  0  0
    7.1191   -7.3636   15.7739 C   0  0  0  0  0  0  0  0  0  0  0  0
    5.9612   -8.3203   17.2732 N   0  0  0  0  0  0  0  0  0  0  0  0
    8.5296   -5.9814   17.1841 C   0  0  0  0  0  0  0  0  0  0  0  0
    9.1527   -5.2118   16.2116 C   0  0  0  0  0  0  0  0  0  0  0  0
   10.3364   -3.8368   22.9255 O   0  0  0  0  0  0  0  0  0  0  0  0
    9.6947   -4.8407   18.8534 C   0  0  0  0  0  0  0  0  0  0  0  0
    9.1596    1.7042   24.1381 C   0  0  0  0  0  0  0  0  0  0  0  0
   11.0456   -2.9774   18.2694 N   0  0  0  0  0  0  0  0  0  0  0  0
   10.4788   -3.0457   21.8593 C   0  0  0  0  0  0  0  0  0  0  0  0
    8.8693   -5.8099   18.4657 N   0  0  0  0  0  0  0  0  0  0  0  0
    8.9892   -0.7926   25.4573 C   0  0  0  0  0  0  0  0  0  0  0  0
   10.5677   -3.4462   20.5323 C   0  0  0  0  0  0  0  0  0  0  0  0
  1  8  1  0
  1 12  4  0
  1 14  4  0
  2  3  4  0
  2 18  4  0
  3 20  4  0
  3 22  4  0
  4 11  4  0
  4 21  4  0
  5  9  4  0
  5 16  4  0
  6 15  4  0
  6 16  4  0
  7 22  4  0
  7 26  4  0
  8 10  4  0
  8 25  4  0
  9 15  4  0
  9 17  1  0
 10 21  4  0
 11 25  4  0
 12 23  4  0
 13 20  4  0
 13 26  4  0
 14 19  4  0
 17 18  4  0
 17 24  4  0
 19 23  4  0
 20 24  4  0
 23 26  1  0
M  END
$$$$

 Created by Python create_sdf_string function

 26 30  0  0  0  0  0  0  0  0999 V2000
   10.0084   -1.8019   23.4945 C   0  0  0  0  0  0  0  0  0  0  0  0
   10.0005   -4.2520   16.5631 C   0  0  0  0  0  0  0  0  0  0  0  0
   10.2759   -4.0036   17.8845 C   0  0  0  0  0  0  0  0  0  0  0  0
    8.5652    1.5478   25.3778 N   0  0  0  0  0  0  0  0  0  0  0  0
    6.8048   -7.5457   17.8752 C   0  0  0  0  0  0  0  0  0  0  0  0
    6.1721   -8.2186   15.9886 N   0  0  0  0  0  0  0  0  0  0  0  0
   11.1764   -2.6600   19.5604 C   0  0  0  0  0  0  0  0  0  0  0  0
    9.5491   -0.6380   24.1912 C   0  0  0  0  0  0  0  0  0  0  0  0
    7.5337   -6.9256   16.9519 C   0  0  0  0  0  0  0  0  0  0  0  0
    9.6782    0.5671   23.5143 C   0  0  0  0  0  0  0  0  0  0  0  0
    8.4532    0.3482   26.0821 C   0  0  0  0  0  0  0  0  0  0  0  0
   10.4239   -1.7677   22.2230 N   0  0  0  0  0  0  0  0  0  0  0  0
    9.9468   -4.5953   20.1709 C   0  0  0  0  0  0  0  0  0  0  0  0
   10.0366   -3.0590   23.9864 N   0  0  0  0  0  0  0  0  0  0  0  0
    7.1191   -7.3636   15.7739 C   0  0  0  0  0  0  0  0  0  0  0  0
    5.9612   -8.3203   17.2732 N   0  0  0  0  0  0  0  0  0  0  0  0
    8.5296   -5.9814   17.1841 C   0  0  0  0  0  0  0  0  0  0  0  0
    9.1527   -5.2118   16.2116 C   0  0  0  0  0  0  0  0  0  0  0  0
   10.3364   -3.8368   22.9255 O   0  0  0  0  0  0  0  0  0  0  0  0
    9.6947   -4.8407   18.8534 C   0  0  0  0  0  0  0  0  0  0  0  0
    9.1596    1.7042   24.1381 C   0  0  0  0  0  0  0  0  0  0  0  0
   11.0456   -2.9774   18.2694 N   0  0  0  0  0  0  0  0  0  0  0  0
   10.4788   -3.0457   21.8593 C   0  0  0  0  0  0  0  0  0  0  0  0
    8.8693   -5.8099   18.4657 N   0  0  0  0  0  0  0  0  0  0  0  0
    8.9892   -0.7926   25.4573 C   0  0  0  0  0  0  0  0  0  0  0  0
   10.5677   -3.4462   20.5323 C   0  0  0  0  0  0  0  0  0  0  0  0
  1  8  1  0
  1 12  4  0
  1 14  4  0
  2  3  4  0
  2 18  4  0
  3 20  4  0
  3 22  4  0
  4 11  4  0
  4 21  4  0
  5  9  4  0
  5 16  4  0
  6 15  4  0
  6 16  4  0
  7 22  4  0
  7 26  4  0
  8 10  4  0
  8 25  4  0
  9 15  4  0
  9 17  1  0
 10 21  4  0
 11 25  4  0
 12 23  4  0
 13 20  4  0
 13 26  4  0
 14 19  4  0
 17 18  4  0
 17 24  4  0
 19 23  4  0
 20 24  4  0
 23 26  1  0
M  END
$$$$

 Created by Python create_sdf_string function

 26 30  0  0  0  0  0  0  0  0999 V2000
   10.0084   -1.8019   23.4945 C   0  0  0  0  0  0  0  0  0  0  0  0
   10.0005   -4.2520   16.5631 C   0  0  0  0  0  0  0  0  0  0  0  0
   10.2759   -4.0036   17.8845 C   0  0  0  0  0  0  0  0  0  0  0  0
    8.5652    1.5478   25.3778 N   0  0  0  0  0  0  0  0  0  0  0  0
    6.8048   -7.5457   17.8752 C   0  0  0  0  0  0  0  0  0  0  0  0
    6.1721   -8.2186   15.9886 N   0  0  0  0  0  0  0  0  0  0  0  0
   11.1764   -2.6600   19.5604 C   0  0  0  0  0  0  0  0  0  0  0  0
    9.5491   -0.6380   24.1912 C   0  0  0  0  0  0  0  0  0  0  0  0
    7.5337   -6.9256   16.9519 C   0  0  0  0  0  0  0  0  0  0  0  0
    9.6782    0.5671   23.5143 C   0  0  0  0  0  0  0  0  0  0  0  0
    8.4532    0.3482   26.0821 C   0  0  0  0  0  0  0  0  0  0  0  0
   10.4239   -1.7677   22.2230 N   0  0  0  0  0  0  0  0  0  0  0  0
    9.9468   -4.5953   20.1709 C   0  0  0  0  0  0  0  0  0  0  0  0
   10.0366   -3.0590   23.9864 N   0  0  0  0  0  0  0  0  0  0  0  0
    7.1191   -7.3636   15.7739 C   0  0  0  0  0  0  0  0  0  0  0  0
    5.9612   -8.3203   17.2732 N   0  0  0  0  0  0  0  0  0  0  0  0
    8.5296   -5.9814   17.1841 C   0  0  0  0  0  0  0  0  0  0  0  0
    9.1527   -5.2118   16.2116 C   0  0  0  0  0  0  0  0  0  0  0  0
   10.3364   -3.8368   22.9255 O   0  0  0  0  0  0  0  0  0  0  0  0
    9.6947   -4.8407   18.8534 C   0  0  0  0  0  0  0  0  0  0  0  0
    9.1596    1.7042   24.1381 C   0  0  0  0  0  0  0  0  0  0  0  0
   11.0456   -2.9774   18.2694 N   0  0  0  0  0  0  0  0  0  0  0  0
   10.4788   -3.0457   21.8593 C   0  0  0  0  0  0  0  0  0  0  0  0
    8.8693   -5.8099   18.4657 N   0  0  0  0  0  0  0  0  0  0  0  0
    8.9892   -0.7926   25.4573 C   0  0  0  0  0  0  0  0  0  0  0  0
   10.5677   -3.4462   20.5323 C   0  0  0  0  0  0  0  0  0  0  0  0
  1  8  1  0
  1 12  4  0
  1 14  4  0
  2  3  4  0
  2 18  4  0
  3 20  4  0
  3 22  4  0
  4 11  4  0
  4 21  4  0
  5  9  4  0
  5 16  4  0
  6 15  4  0
  6 16  4  0
  7 22  4  0
  7 26  4  0
  8 10  4  0
  8 25  4  0
  9 15  4  0
  9 17  1  0
 10 21  4  0
 11 25  4  0
 12 23  4  0
 13 20  4  0
 13 26  4  0
 14 19  4  0
 17 18  4  0
 17 24  4  0
 19 23  4  0
 20 24  4  0
 23 26  1  0
M  END
$$$$

 Created by Python create_sdf_string function

 26 30  0  0  0  0  0  0  0  0999 V2000
   10.0084   -1.8019   23.4945 C   0  0  0  0  0  0  0  0  0  0  0  0
   10.0005   -4.2520   16.5631 C   0  0  0  0  0  0  0  0  0  0  0  0
   10.2759   -4.0036   17.8845 C   0  0  0  0  0  0  0  0  0  0  0  0
    8.5652    1.5478   25.3778 N   0  0  0  0  0  0  0  0  0  0  0  0
    6.8048   -7.5457   17.8752 C   0  0  0  0  0  0  0  0  0  0  0  0
    6.1721   -8.2186   15.9886 N   0  0  0  0  0  0  0  0  0  0  0  0
   11.1764   -2.6600   19.5604 C   0  0  0  0  0  0  0  0  0  0  0  0
    9.5491   -0.6380   24.1912 C   0  0  0  0  0  0  0  0  0  0  0  0
    7.5337   -6.9256   16.9519 C   0  0  0  0  0  0  0  0  0  0  0  0
    9.6782    0.5671   23.5143 C   0  0  0  0  0  0  0  0  0  0  0  0
    8.4532    0.3482   26.0821 C   0  0  0  0  0  0  0  0  0  0  0  0
   10.4239   -1.7677   22.2230 N   0  0  0  0  0  0  0  0  0  0  0  0
    9.9468   -4.5953   20.1709 C   0  0  0  0  0  0  0  0  0  0  0  0
   10.0366   -3.0590   23.9864 N   0  0  0  0  0  0  0  0  0  0  0  0
    7.1191   -7.3636   15.7739 C   0  0  0  0  0  0  0  0  0  0  0  0
    5.9612   -8.3203   17.2732 N   0  0  0  0  0  0  0  0  0  0  0  0
    8.5296   -5.9814   17.1841 C   0  0  0  0  0  0  0  0  0  0  0  0
    9.1527   -5.2118   16.2116 C   0  0  0  0  0  0  0  0  0  0  0  0
   10.3364   -3.8368   22.9255 O   0  0  0  0  0  0  0  0  0  0  0  0
    9.6947   -4.8407   18.8534 C   0  0  0  0  0  0  0  0  0  0  0  0
    9.1596    1.7042   24.1381 C   0  0  0  0  0  0  0  0  0  0  0  0
   11.0456   -2.9774   18.2694 N   0  0  0  0  0  0  0  0  0  0  0  0
   10.4788   -3.0457   21.8593 C   0  0  0  0  0  0  0  0  0  0  0  0
    8.8693   -5.8099   18.4657 N   0  0  0  0  0  0  0  0  0  0  0  0
    8.9892   -0.7926   25.4573 C   0  0  0  0  0  0  0  0  0  0  0  0
   10.5677   -3.4462   20.5323 C   0  0  0  0  0  0  0  0  0  0  0  0
  1  8  1  0
  1 12  4  0
  1 14  4  0
  2  3  4  0
  2 18  4  0
  3 20  4  0
  3 22  4  0
  4 11  4  0
  4 21  4  0
  5  9  4  0
  5 16  4  0
  6 15  4  0
  6 16  4  0
  7 22  4  0
  7 26  4  0
  8 10  4  0
  8 25  4  0
  9 15  4  0
  9 17  1  0
 10 21  4  0
 11 25  4  0
 12 23  4  0
 13 20  4  0
 13 26  4  0
 14 19  4  0
 17 18  4  0
 17 24  4  0
 19 23  4  0
 20 24  4  0
 23 26  1  0
M  END
$$$$

 Created by Python create_sdf_string function

 26 30  0  0  0  0  0  0  0  0999 V2000
   10.0084   -1.8019   23.4945 C   0  0  0  0  0  0  0  0  0  0  0  0
   10.0005   -4.2520   16.5631 C   0  0  0  0  0  0  0  0  0  0  0  0
   10.2759   -4.0036   17.8845 C   0  0  0  0  0  0  0  0  0  0  0  0
    8.5652    1.5478   25.3778 N   0  0  0  0  0  0  0  0  0  0  0  0
    6.8048   -7.5457   17.8752 C   0  0  0  0  0  0  0  0  0  0  0  0
    6.1721   -8.2186   15.9886 N   0  0  0  0  0  0  0  0  0  0  0  0
   11.1764   -2.6600   19.5604 C   0  0  0  0  0  0  0  0  0  0  0  0
    9.5491   -0.6380   24.1912 C   0  0  0  0  0  0  0  0  0  0  0  0
    7.5337   -6.9256   16.9519 C   0  0  0  0  0  0  0  0  0  0  0  0
    9.6782    0.5671   23.5143 C   0  0  0  0  0  0  0  0  0  0  0  0
    8.4532    0.3482   26.0821 C   0  0  0  0  0  0  0  0  0  0  0  0
   10.4239   -1.7677   22.2230 N   0  0  0  0  0  0  0  0  0  0  0  0
    9.9468   -4.5953   20.1709 C   0  0  0  0  0  0  0  0  0  0  0  0
   10.0366   -3.0590   23.9864 N   0  0  0  0  0  0  0  0  0  0  0  0
    7.1191   -7.3636   15.7739 C   0  0  0  0  0  0  0  0  0  0  0  0
    5.9612   -8.3203   17.2732 N   0  0  0  0  0  0  0  0  0  0  0  0
    8.5296   -5.9814   17.1841 C   0  0  0  0  0  0  0  0  0  0  0  0
    9.1527   -5.2118   16.2116 C   0  0  0  0  0  0  0  0  0  0  0  0
   10.3364   -3.8368   22.9255 O   0  0  0  0  0  0  0  0  0  0  0  0
    9.6947   -4.8407   18.8534 C   0  0  0  0  0  0  0  0  0  0  0  0
    9.1596    1.7042   24.1381 C   0  0  0  0  0  0  0  0  0  0  0  0
   11.0456   -2.9774   18.2694 N   0  0  0  0  0  0  0  0  0  0  0  0
   10.4788   -3.0457   21.8593 C   0  0  0  0  0  0  0  0  0  0  0  0
    8.8693   -5.8099   18.4657 N   0  0  0  0  0  0  0  0  0  0  0  0
    8.9892   -0.7926   25.4573 C   0  0  0  0  0  0  0  0  0  0  0  0
   10.5677   -3.4462   20.5323 C   0  0  0  0  0  0  0  0  0  0  0  0
  1  8  1  0
  1 12  4  0
  1 14  4  0
  2  3  4  0
  2 18  4  0
  3 20  4  0
  3 22  4  0
  4 11  4  0
  4 21  4  0
  5  9  4  0
  5 16  4  0
  6 15  4  0
  6 16  4  0
  7 22  4  0
  7 26  4  0
  8 10  4  0
  8 25  4  0
  9 15  4  0
  9 17  1  0
 10 21  4  0
 11 25  4  0
 12 23  4  0
 13 20  4  0
 13 26  4  0
 14 19  4  0
 17 18  4  0
 17 24  4  0
 19 23  4  0
 20 24  4  0
 23 26  1  0
M  END
$$$$

 Created by Python create_sdf_string function

 26 30  0  0  0  0  0  0  0  0999 V2000
   10.0084   -1.8019   23.4945 C   0  0  0  0  0  0  0  0  0  0  0  0
   10.0005   -4.2520   16.5631 C   0  0  0  0  0  0  0  0  0  0  0  0
   10.2759   -4.0036   17.8845 C   0  0  0  0  0  0  0  0  0  0  0  0
    8.5652    1.5478   25.3778 N   0  0  0  0  0  0  0  0  0  0  0  0
    6.8048   -7.5457   17.8752 C   0  0  0  0  0  0  0  0  0  0  0  0
    6.1721   -8.2186   15.9886 N   0  0  0  0  0  0  0  0  0  0  0  0
   11.1764   -2.6600   19.5604 C   0  0  0  0  0  0  0  0  0  0  0  0
    9.5491   -0.6380   24.1912 C   0  0  0  0  0  0  0  0  0  0  0  0
    7.5337   -6.9256   16.9519 C   0  0  0  0  0  0  0  0  0  0  0  0
    9.6782    0.5671   23.5143 C   0  0  0  0  0  0  0  0  0  0  0  0
    8.4532    0.3482   26.0821 C   0  0  0  0  0  0  0  0  0  0  0  0
   10.4239   -1.7677   22.2230 N   0  0  0  0  0  0  0  0  0  0  0  0
    9.9468   -4.5953   20.1709 C   0  0  0  0  0  0  0  0  0  0  0  0
   10.0366   -3.0590   23.9864 N   0  0  0  0  0  0  0  0  0  0  0  0
    7.1191   -7.3636   15.7739 C   0  0  0  0  0  0  0  0  0  0  0  0
    5.9612   -8.3203   17.2732 N   0  0  0  0  0  0  0  0  0  0  0  0
    8.5296   -5.9814   17.1841 C   0  0  0  0  0  0  0  0  0  0  0  0
    9.1527   -5.2118   16.2116 C   0  0  0  0  0  0  0  0  0  0  0  0
   10.3364   -3.8368   22.9255 O   0  0  0  0  0  0  0  0  0  0  0  0
    9.6947   -4.8407   18.8534 C   0  0  0  0  0  0  0  0  0  0  0  0
    9.1596    1.7042   24.1381 C   0  0  0  0  0  0  0  0  0  0  0  0
   11.0456   -2.9774   18.2694 N   0  0  0  0  0  0  0  0  0  0  0  0
   10.4788   -3.0457   21.8593 C   0  0  0  0  0  0  0  0  0  0  0  0
    8.8693   -5.8099   18.4657 N   0  0  0  0  0  0  0  0  0  0  0  0
    8.9892   -0.7926   25.4573 C   0  0  0  0  0  0  0  0  0  0  0  0
   10.5677   -3.4462   20.5323 C   0  0  0  0  0  0  0  0  0  0  0  0
  1  8  1  0
  1 12  4  0
  1 14  4  0
  2  3  4  0
  2 18  4  0
  3 20  4  0
  3 22  4  0
  4 11  4  0
  4 21  4  0
  5  9  4  0
  5 16  4  0
  6 15  4  0
  6 16  4  0
  7 22  4  0
  7 26  4  0
  8 10  4  0
  8 25  4  0
  9 15  4  0
  9 17  1  0
 10 21  4  0
 11 25  4  0
 12 23  4  0
 13 20  4  0
 13 26  4  0
 14 19  4  0
 17 18  4  0
 17 24  4  0
 19 23  4  0
 20 24  4  0
 23 26  1  0
M  END
$$$$

 Created by Python create_sdf_string function

 26 30  0  0  0  0  0  0  0  0999 V2000
   10.0084   -1.8019   23.4945 C   0  0  0  0  0  0  0  0  0  0  0  0
   10.0005   -4.2520   16.5631 C   0  0  0  0  0  0  0  0  0  0  0  0
   10.2759   -4.0036   17.8845 C   0  0  0  0  0  0  0  0  0  0  0  0
    8.5652    1.5478   25.3778 N   0  0  0  0  0  0  0  0  0  0  0  0
    6.8048   -7.5457   17.8752 C   0  0  0  0  0  0  0  0  0  0  0  0
    6.1721   -8.2186   15.9886 N   0  0  0  0  0  0  0  0  0  0  0  0
   11.1764   -2.6600   19.5604 C   0  0  0  0  0  0  0  0  0  0  0  0
    9.5491   -0.6380   24.1912 C   0  0  0  0  0  0  0  0  0  0  0  0
    7.5337   -6.9256   16.9519 C   0  0  0  0  0  0  0  0  0  0  0  0
    9.6782    0.5671   23.5143 C   0  0  0  0  0  0  0  0  0  0  0  0
    8.4532    0.3482   26.0821 C   0  0  0  0  0  0  0  0  0  0  0  0
   10.4239   -1.7677   22.2230 N   0  0  0  0  0  0  0  0  0  0  0  0
    9.9468   -4.5953   20.1709 C   0  0  0  0  0  0  0  0  0  0  0  0
   10.0366   -3.0590   23.9864 N   0  0  0  0  0  0  0  0  0  0  0  0
    7.1191   -7.3636   15.7739 C   0  0  0  0  0  0  0  0  0  0  0  0
    5.9612   -8.3203   17.2732 N   0  0  0  0  0  0  0  0  0  0  0  0
    8.5296   -5.9814   17.1841 C   0  0  0  0  0  0  0  0  0  0  0  0
    9.1527   -5.2118   16.2116 C   0  0  0  0  0  0  0  0  0  0  0  0
   10.3364   -3.8368   22.9255 O   0  0  0  0  0  0  0  0  0  0  0  0
    9.6947   -4.8407   18.8534 C   0  0  0  0  0  0  0  0  0  0  0  0
    9.1596    1.7042   24.1381 C   0  0  0  0  0  0  0  0  0  0  0  0
   11.0456   -2.9774   18.2694 N   0  0  0  0  0  0  0  0  0  0  0  0
   10.4788   -3.0457   21.8593 C   0  0  0  0  0  0  0  0  0  0  0  0
    8.8693   -5.8099   18.4657 N   0  0  0  0  0  0  0  0  0  0  0  0
    8.9892   -0.7926   25.4573 C   0  0  0  0  0  0  0  0  0  0  0  0
   10.5677   -3.4462   20.5323 C   0  0  0  0  0  0  0  0  0  0  0  0
  1  8  1  0
  1 12  4  0
  1 14  4  0
  2  3  4  0
  2 18  4  0
  3 20  4  0
  3 22  4  0
  4 11  4  0
  4 21  4  0
  5  9  4  0
  5 16  4  0
  6 15  4  0
  6 16  4  0
  7 22  4  0
  7 26  4  0
  8 10  4  0
  8 25  4  0
  9 15  4  0
  9 17  1  0
 10 21  4  0
 11 25  4  0
 12 23  4  0
 13 20  4  0
 13 26  4  0
 14 19  4  0
 17 18  4  0
 17 24  4  0
 19 23  4  0
 20 24  4  0
 23 26  1  0
M  END
$$$$

 Created by Python create_sdf_string function

 26 30  0  0  0  0  0  0  0  0999 V2000
   10.0084   -1.8019   23.4945 C   0  0  0  0  0  0  0  0  0  0  0  0
   10.0005   -4.2520   16.5631 C   0  0  0  0  0  0  0  0  0  0  0  0
   10.2759   -4.0036   17.8845 C   0  0  0  0  0  0  0  0  0  0  0  0
    8.5652    1.5478   25.3778 N   0  0  0  0  0  0  0  0  0  0  0  0
    6.8048   -7.5457   17.8752 C   0  0  0  0  0  0  0  0  0  0  0  0
    6.1721   -8.2186   15.9886 N   0  0  0  0  0  0  0  0  0  0  0  0
   11.1764   -2.6600   19.5604 C   0  0  0  0  0  0  0  0  0  0  0  0
    9.5491   -0.6380   24.1912 C   0  0  0  0  0  0  0  0  0  0  0  0
    7.5337   -6.9256   16.9519 C   0  0  0  0  0  0  0  0  0  0  0  0
    9.6782    0.5671   23.5143 C   0  0  0  0  0  0  0  0  0  0  0  0
    8.4532    0.3482   26.0821 C   0  0  0  0  0  0  0  0  0  0  0  0
   10.4239   -1.7677   22.2230 N   0  0  0  0  0  0  0  0  0  0  0  0
    9.9468   -4.5953   20.1709 C   0  0  0  0  0  0  0  0  0  0  0  0
   10.0366   -3.0590   23.9864 N   0  0  0  0  0  0  0  0  0  0  0  0
    7.1191   -7.3636   15.7739 C   0  0  0  0  0  0  0  0  0  0  0  0
    5.9612   -8.3203   17.2732 N   0  0  0  0  0  0  0  0  0  0  0  0
    8.5296   -5.9814   17.1841 C   0  0  0  0  0  0  0  0  0  0  0  0
    9.1527   -5.2118   16.2116 C   0  0  0  0  0  0  0  0  0  0  0  0
   10.3364   -3.8368   22.9255 O   0  0  0  0  0  0  0  0  0  0  0  0
    9.6947   -4.8407   18.8534 C   0  0  0  0  0  0  0  0  0  0  0  0
    9.1596    1.7042   24.1381 C   0  0  0  0  0  0  0  0  0  0  0  0
   11.0456   -2.9774   18.2694 N   0  0  0  0  0  0  0  0  0  0  0  0
   10.4788   -3.0457   21.8593 C   0  0  0  0  0  0  0  0  0  0  0  0
    8.8693   -5.8099   18.4657 N   0  0  0  0  0  0  0  0  0  0  0  0
    8.9892   -0.7926   25.4573 C   0  0  0  0  0  0  0  0  0  0  0  0
   10.5677   -3.4462   20.5323 C   0  0  0  0  0  0  0  0  0  0  0  0
  1  8  1  0
  1 12  4  0
  1 14  4  0
  2  3  4  0
  2 18  4  0
  3 20  4  0
  3 22  4  0
  4 11  4  0
  4 21  4  0
  5  9  4  0
  5 16  4  0
  6 15  4  0
  6 16  4  0
  7 22  4  0
  7 26  4  0
  8 10  4  0
  8 25  4  0
  9 15  4  0
  9 17  1  0
 10 21  4  0
 11 25  4  0
 12 23  4  0
 13 20  4  0
 13 26  4  0
 14 19  4  0
 17 18  4  0
 17 24  4  0
 19 23  4  0
 20 24  4  0
 23 26  1  0
M  END
$$$$

 Created by Python create_sdf_string function

 26 30  0  0  0  0  0  0  0  0999 V2000
   10.0084   -1.8019   23.4945 C   0  0  0  0  0  0  0  0  0  0  0  0
   10.0005   -4.2520   16.5631 C   0  0  0  0  0  0  0  0  0  0  0  0
   10.2759   -4.0036   17.8845 C   0  0  0  0  0  0  0  0  0  0  0  0
    8.5652    1.5478   25.3778 N   0  0  0  0  0  0  0  0  0  0  0  0
    6.8048   -7.5457   17.8752 C   0  0  0  0  0  0  0  0  0  0  0  0
    6.1721   -8.2186   15.9886 N   0  0  0  0  0  0  0  0  0  0  0  0
   11.1764   -2.6600   19.5604 C   0  0  0  0  0  0  0  0  0  0  0  0
    9.5491   -0.6380   24.1912 C   0  0  0  0  0  0  0  0  0  0  0  0
    7.5337   -6.9256   16.9519 C   0  0  0  0  0  0  0  0  0  0  0  0
    9.6782    0.5671   23.5143 C   0  0  0  0  0  0  0  0  0  0  0  0
    8.4532    0.3482   26.0821 C   0  0  0  0  0  0  0  0  0  0  0  0
   10.4239   -1.7677   22.2230 N   0  0  0  0  0  0  0  0  0  0  0  0
    9.9468   -4.5953   20.1709 C   0  0  0  0  0  0  0  0  0  0  0  0
   10.0366   -3.0590   23.9864 N   0  0  0  0  0  0  0  0  0  0  0  0
    7.1191   -7.3636   15.7739 C   0  0  0  0  0  0  0  0  0  0  0  0
    5.9612   -8.3203   17.2732 N   0  0  0  0  0  0  0  0  0  0  0  0
    8.5296   -5.9814   17.1841 C   0  0  0  0  0  0  0  0  0  0  0  0
    9.1527   -5.2118   16.2116 C   0  0  0  0  0  0  0  0  0  0  0  0
   10.3364   -3.8368   22.9255 O   0  0  0  0  0  0  0  0  0  0  0  0
    9.6947   -4.8407   18.8534 C   0  0  0  0  0  0  0  0  0  0  0  0
    9.1596    1.7042   24.1381 C   0  0  0  0  0  0  0  0  0  0  0  0
   11.0456   -2.9774   18.2694 N   0  0  0  0  0  0  0  0  0  0  0  0
   10.4788   -3.0457   21.8593 C   0  0  0  0  0  0  0  0  0  0  0  0
    8.8693   -5.8099   18.4657 N   0  0  0  0  0  0  0  0  0  0  0  0
    8.9892   -0.7926   25.4573 C   0  0  0  0  0  0  0  0  0  0  0  0
   10.5677   -3.4462   20.5323 C   0  0  0  0  0  0  0  0  0  0  0  0
  1  8  1  0
  1 12  4  0
  1 14  4  0
  2  3  4  0
  2 18  4  0
  3 20  4  0
  3 22  4  0
  4 11  4  0
  4 21  4  0
  5  9  4  0
  5 16  4  0
  6 15  4  0
  6 16  4  0
  7 22  4  0
  7 26  4  0
  8 10  4  0
  8 25  4  0
  9 15  4  0
  9 17  1  0
 10 21  4  0
 11 25  4  0
 12 23  4  0
 13 20  4  0
 13 26  4  0
 14 19  4  0
 17 18  4  0
 17 24  4  0
 19 23  4  0
 20 24  4  0
 23 26  1  0
M  END
$$$$

 Created by Python create_sdf_string function

 26 30  0  0  0  0  0  0  0  0999 V2000
   10.0084   -1.8019   23.4945 C   0  0  0  0  0  0  0  0  0  0  0  0
   10.0005   -4.2520   16.5631 C   0  0  0  0  0  0  0  0  0  0  0  0
   10.2759   -4.0036   17.8845 C   0  0  0  0  0  0  0  0  0  0  0  0
    8.5652    1.5478   25.3778 N   0  0  0  0  0  0  0  0  0  0  0  0
    6.8048   -7.5457   17.8752 C   0  0  0  0  0  0  0  0  0  0  0  0
    6.1721   -8.2186   15.9886 N   0  0  0  0  0  0  0  0  0  0  0  0
   11.1764   -2.6600   19.5604 C   0  0  0  0  0  0  0  0  0  0  0  0
    9.5491   -0.6380   24.1912 C   0  0  0  0  0  0  0  0  0  0  0  0
    7.5337   -6.9256   16.9519 C   0  0  0  0  0  0  0  0  0  0  0  0
    9.6782    0.5671   23.5143 C   0  0  0  0  0  0  0  0  0  0  0  0
    8.4532    0.3482   26.0821 C   0  0  0  0  0  0  0  0  0  0  0  0
   10.4239   -1.7677   22.2230 N   0  0  0  0  0  0  0  0  0  0  0  0
    9.9468   -4.5953   20.1709 C   0  0  0  0  0  0  0  0  0  0  0  0
   10.0366   -3.0590   23.9864 N   0  0  0  0  0  0  0  0  0  0  0  0
    7.1191   -7.3636   15.7739 C   0  0  0  0  0  0  0  0  0  0  0  0
    5.9612   -8.3203   17.2732 N   0  0  0  0  0  0  0  0  0  0  0  0
    8.5296   -5.9814   17.1841 C   0  0  0  0  0  0  0  0  0  0  0  0
    9.1527   -5.2118   16.2116 C   0  0  0  0  0  0  0  0  0  0  0  0
   10.3364   -3.8368   22.9255 O   0  0  0  0  0  0  0  0  0  0  0  0
    9.6947   -4.8407   18.8534 C   0  0  0  0  0  0  0  0  0  0  0  0
    9.1596    1.7042   24.1381 C   0  0  0  0  0  0  0  0  0  0  0  0
   11.0456   -2.9774   18.2694 N   0  0  0  0  0  0  0  0  0  0  0  0
   10.4788   -3.0457   21.8593 C   0  0  0  0  0  0  0  0  0  0  0  0
    8.8693   -5.8099   18.4657 N   0  0  0  0  0  0  0  0  0  0  0  0
    8.9892   -0.7926   25.4573 C   0  0  0  0  0  0  0  0  0  0  0  0
   10.5677   -3.4462   20.5323 C   0  0  0  0  0  0  0  0  0  0  0  0
  1  8  1  0
  1 12  4  0
  1 14  4  0
  2  3  4  0
  2 18  4  0
  3 20  4  0
  3 22  4  0
  4 11  4  0
  4 21  4  0
  5  9  4  0
  5 16  4  0
  6 15  4  0
  6 16  4  0
  7 22  4  0
  7 26  4  0
  8 10  4  0
  8 25  4  0
  9 15  4  0
  9 17  1  0
 10 21  4  0
 11 25  4  0
 12 23  4  0
 13 20  4  0
 13 26  4  0
 14 19  4  0
 17 18  4  0
 17 24  4  0
 19 23  4  0
 20 24  4  0
 23 26  1  0
M  END
$$$$

 Created by Python create_sdf_string function

 26 30  0  0  0  0  0  0  0  0999 V2000
   10.0084   -1.8019   23.4945 C   0  0  0  0  0  0  0  0  0  0  0  0
   10.0005   -4.2520   16.5631 C   0  0  0  0  0  0  0  0  0  0  0  0
   10.2759   -4.0036   17.8845 C   0  0  0  0  0  0  0  0  0  0  0  0
    8.5652    1.5478   25.3778 N   0  0  0  0  0  0  0  0  0  0  0  0
    6.8048   -7.5457   17.8752 C   0  0  0  0  0  0  0  0  0  0  0  0
    6.1721   -8.2186   15.9886 N   0  0  0  0  0  0  0  0  0  0  0  0
   11.1764   -2.6600   19.5604 C   0  0  0  0  0  0  0  0  0  0  0  0
    9.5491   -0.6380   24.1912 C   0  0  0  0  0  0  0  0  0  0  0  0
    7.5337   -6.9256   16.9519 C   0  0  0  0  0  0  0  0  0  0  0  0
    9.6782    0.5671   23.5143 C   0  0  0  0  0  0  0  0  0  0  0  0
    8.4532    0.3482   26.0821 C   0  0  0  0  0  0  0  0  0  0  0  0
   10.4239   -1.7677   22.2230 N   0  0  0  0  0  0  0  0  0  0  0  0
    9.9468   -4.5953   20.1709 C   0  0  0  0  0  0  0  0  0  0  0  0
   10.0366   -3.0590   23.9864 N   0  0  0  0  0  0  0  0  0  0  0  0
    7.1191   -7.3636   15.7739 C   0  0  0  0  0  0  0  0  0  0  0  0
    5.9612   -8.3203   17.2732 N   0  0  0  0  0  0  0  0  0  0  0  0
    8.5296   -5.9814   17.1841 C   0  0  0  0  0  0  0  0  0  0  0  0
    9.1527   -5.2118   16.2116 C   0  0  0  0  0  0  0  0  0  0  0  0
   10.3364   -3.8368   22.9255 O   0  0  0  0  0  0  0  0  0  0  0  0
    9.6947   -4.8407   18.8534 C   0  0  0  0  0  0  0  0  0  0  0  0
    9.1596    1.7042   24.1381 C   0  0  0  0  0  0  0  0  0  0  0  0
   11.0456   -2.9774   18.2694 N   0  0  0  0  0  0  0  0  0  0  0  0
   10.4788   -3.0457   21.8593 C   0  0  0  0  0  0  0  0  0  0  0  0
    8.8693   -5.8099   18.4657 N   0  0  0  0  0  0  0  0  0  0  0  0
    8.9892   -0.7926   25.4573 C   0  0  0  0  0  0  0  0  0  0  0  0
   10.5677   -3.4462   20.5323 C   0  0  0  0  0  0  0  0  0  0  0  0
  1  8  1  0
  1 12  4  0
  1 14  4  0
  2  3  4  0
  2 18  4  0
  3 20  4  0
  3 22  4  0
  4 11  4  0
  4 21  4  0
  5  9  4  0
  5 16  4  0
  6 15  4  0
  6 16  4  0
  7 22  4  0
  7 26  4  0
  8 10  4  0
  8 25  4  0
  9 15  4  0
  9 17  1  0
 10 21  4  0
 11 25  4  0
 12 23  4  0
 13 20  4  0
 13 26  4  0
 14 19  4  0
 17 18  4  0
 17 24  4  0
 19 23  4  0
 20 24  4  0
 23 26  1  0
M  END
$$$$

 Created by Python create_sdf_string function

 26 30  0  0  0  0  0  0  0  0999 V2000
   10.0084   -1.8019   23.4945 C   0  0  0  0  0  0  0  0  0  0  0  0
   10.0005   -4.2520   16.5631 C   0  0  0  0  0  0  0  0  0  0  0  0
   10.2759   -4.0036   17.8845 C   0  0  0  0  0  0  0  0  0  0  0  0
    8.5652    1.5478   25.3778 N   0  0  0  0  0  0  0  0  0  0  0  0
    6.8048   -7.5457   17.8752 C   0  0  0  0  0  0  0  0  0  0  0  0
    6.1721   -8.2186   15.9886 N   0  0  0  0  0  0  0  0  0  0  0  0
   11.1764   -2.6600   19.5604 C   0  0  0  0  0  0  0  0  0  0  0  0
    9.5491   -0.6380   24.1912 C   0  0  0  0  0  0  0  0  0  0  0  0
    7.5337   -6.9256   16.9519 C   0  0  0  0  0  0  0  0  0  0  0  0
    9.6782    0.5671   23.5143 C   0  0  0  0  0  0  0  0  0  0  0  0
    8.4532    0.3482   26.0821 C   0  0  0  0  0  0  0  0  0  0  0  0
   10.4239   -1.7677   22.2230 N   0  0  0  0  0  0  0  0  0  0  0  0
    9.9468   -4.5953   20.1709 C   0  0  0  0  0  0  0  0  0  0  0  0
   10.0366   -3.0590   23.9864 N   0  0  0  0  0  0  0  0  0  0  0  0
    7.1191   -7.3636   15.7739 C   0  0  0  0  0  0  0  0  0  0  0  0
    5.9612   -8.3203   17.2732 N   0  0  0  0  0  0  0  0  0  0  0  0
    8.5296   -5.9814   17.1841 C   0  0  0  0  0  0  0  0  0  0  0  0
    9.1527   -5.2118   16.2116 C   0  0  0  0  0  0  0  0  0  0  0  0
   10.3364   -3.8368   22.9255 O   0  0  0  0  0  0  0  0  0  0  0  0
    9.6947   -4.8407   18.8534 C   0  0  0  0  0  0  0  0  0  0  0  0
    9.1596    1.7042   24.1381 C   0  0  0  0  0  0  0  0  0  0  0  0
   11.0456   -2.9774   18.2694 N   0  0  0  0  0  0  0  0  0  0  0  0
   10.4788   -3.0457   21.8593 C   0  0  0  0  0  0  0  0  0  0  0  0
    8.8693   -5.8099   18.4657 N   0  0  0  0  0  0  0  0  0  0  0  0
    8.9892   -0.7926   25.4573 C   0  0  0  0  0  0  0  0  0  0  0  0
   10.5677   -3.4462   20.5323 C   0  0  0  0  0  0  0  0  0  0  0  0
  1  8  1  0
  1 12  4  0
  1 14  4  0
  2  3  4  0
  2 18  4  0
  3 20  4  0
  3 22  4  0
  4 11  4  0
  4 21  4  0
  5  9  4  0
  5 16  4  0
  6 15  4  0
  6 16  4  0
  7 22  4  0
  7 26  4  0
  8 10  4  0
  8 25  4  0
  9 15  4  0
  9 17  1  0
 10 21  4  0
 11 25  4  0
 12 23  4  0
 13 20  4  0
 13 26  4  0
 14 19  4  0
 17 18  4  0
 17 24  4  0
 19 23  4  0
 20 24  4  0
 23 26  1  0
M  END
$$$$

 Created by Python create_sdf_string function

 26 30  0  0  0  0  0  0  0  0999 V2000
   10.0084   -1.8019   23.4945 C   0  0  0  0  0  0  0  0  0  0  0  0
   10.0005   -4.2520   16.5631 C   0  0  0  0  0  0  0  0  0  0  0  0
   10.2759   -4.0036   17.8845 C   0  0  0  0  0  0  0  0  0  0  0  0
    8.5652    1.5478   25.3778 N   0  0  0  0  0  0  0  0  0  0  0  0
    6.8048   -7.5457   17.8752 C   0  0  0  0  0  0  0  0  0  0  0  0
    6.1721   -8.2186   15.9886 N   0  0  0  0  0  0  0  0  0  0  0  0
   11.1764   -2.6600   19.5604 C   0  0  0  0  0  0  0  0  0  0  0  0
    9.5491   -0.6380   24.1912 C   0  0  0  0  0  0  0  0  0  0  0  0
    7.5337   -6.9256   16.9519 C   0  0  0  0  0  0  0  0  0  0  0  0
    9.6782    0.5671   23.5143 C   0  0  0  0  0  0  0  0  0  0  0  0
    8.4532    0.3482   26.0821 C   0  0  0  0  0  0  0  0  0  0  0  0
   10.4239   -1.7677   22.2230 N   0  0  0  0  0  0  0  0  0  0  0  0
    9.9468   -4.5953   20.1709 C   0  0  0  0  0  0  0  0  0  0  0  0
   10.0366   -3.0590   23.9864 N   0  0  0  0  0  0  0  0  0  0  0  0
    7.1191   -7.3636   15.7739 C   0  0  0  0  0  0  0  0  0  0  0  0
    5.9612   -8.3203   17.2732 N   0  0  0  0  0  0  0  0  0  0  0  0
    8.5296   -5.9814   17.1841 C   0  0  0  0  0  0  0  0  0  0  0  0
    9.1527   -5.2118   16.2116 C   0  0  0  0  0  0  0  0  0  0  0  0
   10.3364   -3.8368   22.9255 O   0  0  0  0  0  0  0  0  0  0  0  0
    9.6947   -4.8407   18.8534 C   0  0  0  0  0  0  0  0  0  0  0  0
    9.1596    1.7042   24.1381 C   0  0  0  0  0  0  0  0  0  0  0  0
   11.0456   -2.9774   18.2694 N   0  0  0  0  0  0  0  0  0  0  0  0
   10.4788   -3.0457   21.8593 C   0  0  0  0  0  0  0  0  0  0  0  0
    8.8693   -5.8099   18.4657 N   0  0  0  0  0  0  0  0  0  0  0  0
    8.9892   -0.7926   25.4573 C   0  0  0  0  0  0  0  0  0  0  0  0
   10.5677   -3.4462   20.5323 C   0  0  0  0  0  0  0  0  0  0  0  0
  1  8  1  0
  1 12  4  0
  1 14  4  0
  2  3  4  0
  2 18  4  0
  3 20  4  0
  3 22  4  0
  4 11  4  0
  4 21  4  0
  5  9  4  0
  5 16  4  0
  6 15  4  0
  6 16  4  0
  7 22  4  0
  7 26  4  0
  8 10  4  0
  8 25  4  0
  9 15  4  0
  9 17  1  0
 10 21  4  0
 11 25  4  0
 12 23  4  0
 13 20  4  0
 13 26  4  0
 14 19  4  0
 17 18  4  0
 17 24  4  0
 19 23  4  0
 20 24  4  0
 23 26  1  0
M  END
$$$$

 Created by Python create_sdf_string function

 26 30  0  0  0  0  0  0  0  0999 V2000
   10.0084   -1.8019   23.4945 C   0  0  0  0  0  0  0  0  0  0  0  0
   10.0005   -4.2520   16.5631 C   0  0  0  0  0  0  0  0  0  0  0  0
   10.2759   -4.0036   17.8845 C   0  0  0  0  0  0  0  0  0  0  0  0
    8.5652    1.5478   25.3778 N   0  0  0  0  0  0  0  0  0  0  0  0
    6.8048   -7.5457   17.8752 C   0  0  0  0  0  0  0  0  0  0  0  0
    6.1721   -8.2186   15.9886 N   0  0  0  0  0  0  0  0  0  0  0  0
   11.1764   -2.6600   19.5604 C   0  0  0  0  0  0  0  0  0  0  0  0
    9.5491   -0.6380   24.1912 C   0  0  0  0  0  0  0  0  0  0  0  0
    7.5337   -6.9256   16.9519 C   0  0  0  0  0  0  0  0  0  0  0  0
    9.6782    0.5671   23.5143 C   0  0  0  0  0  0  0  0  0  0  0  0
    8.4532    0.3482   26.0821 C   0  0  0  0  0  0  0  0  0  0  0  0
   10.4239   -1.7677   22.2230 N   0  0  0  0  0  0  0  0  0  0  0  0
    9.9468   -4.5953   20.1709 C   0  0  0  0  0  0  0  0  0  0  0  0
   10.0366   -3.0590   23.9864 N   0  0  0  0  0  0  0  0  0  0  0  0
    7.1191   -7.3636   15.7739 C   0  0  0  0  0  0  0  0  0  0  0  0
    5.9612   -8.3203   17.2732 N   0  0  0  0  0  0  0  0  0  0  0  0
    8.5296   -5.9814   17.1841 C   0  0  0  0  0  0  0  0  0  0  0  0
    9.1527   -5.2118   16.2116 C   0  0  0  0  0  0  0  0  0  0  0  0
   10.3364   -3.8368   22.9255 O   0  0  0  0  0  0  0  0  0  0  0  0
    9.6947   -4.8407   18.8534 C   0  0  0  0  0  0  0  0  0  0  0  0
    9.1596    1.7042   24.1381 C   0  0  0  0  0  0  0  0  0  0  0  0
   11.0456   -2.9774   18.2694 N   0  0  0  0  0  0  0  0  0  0  0  0
   10.4788   -3.0457   21.8593 C   0  0  0  0  0  0  0  0  0  0  0  0
    8.8693   -5.8099   18.4657 N   0  0  0  0  0  0  0  0  0  0  0  0
    8.9892   -0.7926   25.4573 C   0  0  0  0  0  0  0  0  0  0  0  0
   10.5677   -3.4462   20.5323 C   0  0  0  0  0  0  0  0  0  0  0  0
  1  8  1  0
  1 12  4  0
  1 14  4  0
  2  3  4  0
  2 18  4  0
  3 20  4  0
  3 22  4  0
  4 11  4  0
  4 21  4  0
  5  9  4  0
  5 16  4  0
  6 15  4  0
  6 16  4  0
  7 22  4  0
  7 26  4  0
  8 10  4  0
  8 25  4  0
  9 15  4  0
  9 17  1  0
 10 21  4  0
 11 25  4  0
 12 23  4  0
 13 20  4  0
 13 26  4  0
 14 19  4  0
 17 18  4  0
 17 24  4  0
 19 23  4  0
 20 24  4  0
 23 26  1  0
M  END
$$$$

 Created by Python create_sdf_string function

 26 30  0  0  0  0  0  0  0  0999 V2000
   10.0084   -1.8019   23.4945 C   0  0  0  0  0  0  0  0  0  0  0  0
   10.0005   -4.2520   16.5631 C   0  0  0  0  0  0  0  0  0  0  0  0
   10.2759   -4.0036   17.8845 C   0  0  0  0  0  0  0  0  0  0  0  0
    8.5652    1.5478   25.3778 N   0  0  0  0  0  0  0  0  0  0  0  0
    6.8048   -7.5457   17.8752 C   0  0  0  0  0  0  0  0  0  0  0  0
    6.1721   -8.2186   15.9886 N   0  0  0  0  0  0  0  0  0  0  0  0
   11.1764   -2.6600   19.5604 C   0  0  0  0  0  0  0  0  0  0  0  0
    9.5491   -0.6380   24.1912 C   0  0  0  0  0  0  0  0  0  0  0  0
    7.5337   -6.9256   16.9519 C   0  0  0  0  0  0  0  0  0  0  0  0
    9.6782    0.5671   23.5143 C   0  0  0  0  0  0  0  0  0  0  0  0
    8.4532    0.3482   26.0821 C   0  0  0  0  0  0  0  0  0  0  0  0
   10.4239   -1.7677   22.2230 N   0  0  0  0  0  0  0  0  0  0  0  0
    9.9468   -4.5953   20.1709 C   0  0  0  0  0  0  0  0  0  0  0  0
   10.0366   -3.0590   23.9864 N   0  0  0  0  0  0  0  0  0  0  0  0
    7.1191   -7.3636   15.7739 C   0  0  0  0  0  0  0  0  0  0  0  0
    5.9612   -8.3203   17.2732 N   0  0  0  0  0  0  0  0  0  0  0  0
    8.5296   -5.9814   17.1841 C   0  0  0  0  0  0  0  0  0  0  0  0
    9.1527   -5.2118   16.2116 C   0  0  0  0  0  0  0  0  0  0  0  0
   10.3364   -3.8368   22.9255 O   0  0  0  0  0  0  0  0  0  0  0  0
    9.6947   -4.8407   18.8534 C   0  0  0  0  0  0  0  0  0  0  0  0
    9.1596    1.7042   24.1381 C   0  0  0  0  0  0  0  0  0  0  0  0
   11.0456   -2.9774   18.2694 N   0  0  0  0  0  0  0  0  0  0  0  0
   10.4788   -3.0457   21.8593 C   0  0  0  0  0  0  0  0  0  0  0  0
    8.8693   -5.8099   18.4657 N   0  0  0  0  0  0  0  0  0  0  0  0
    8.9892   -0.7926   25.4573 C   0  0  0  0  0  0  0  0  0  0  0  0
   10.5677   -3.4462   20.5323 C   0  0  0  0  0  0  0  0  0  0  0  0
  1  8  1  0
  1 12  4  0
  1 14  4  0
  2  3  4  0
  2 18  4  0
  3 20  4  0
  3 22  4  0
  4 11  4  0
  4 21  4  0
  5  9  4  0
  5 16  4  0
  6 15  4  0
  6 16  4  0
  7 22  4  0
  7 26  4  0
  8 10  4  0
  8 25  4  0
  9 15  4  0
  9 17  1  0
 10 21  4  0
 11 25  4  0
 12 23  4  0
 13 20  4  0
 13 26  4  0
 14 19  4  0
 17 18  4  0
 17 24  4  0
 19 23  4  0
 20 24  4  0
 23 26  1  0
M  END
$$$$

 Created by Python create_sdf_string function

 26 30  0  0  0  0  0  0  0  0999 V2000
   10.0084   -1.8019   23.4945 C   0  0  0  0  0  0  0  0  0  0  0  0
   10.0005   -4.2520   16.5631 C   0  0  0  0  0  0  0  0  0  0  0  0
   10.2759   -4.0036   17.8845 C   0  0  0  0  0  0  0  0  0  0  0  0
    8.5652    1.5478   25.3778 N   0  0  0  0  0  0  0  0  0  0  0  0
    6.8048   -7.5457   17.8752 C   0  0  0  0  0  0  0  0  0  0  0  0
    6.1721   -8.2186   15.9886 N   0  0  0  0  0  0  0  0  0  0  0  0
   11.1764   -2.6600   19.5604 C   0  0  0  0  0  0  0  0  0  0  0  0
    9.5491   -0.6380   24.1912 C   0  0  0  0  0  0  0  0  0  0  0  0
    7.5337   -6.9256   16.9519 C   0  0  0  0  0  0  0  0  0  0  0  0
    9.6782    0.5671   23.5143 C   0  0  0  0  0  0  0  0  0  0  0  0
    8.4532    0.3482   26.0821 C   0  0  0  0  0  0  0  0  0  0  0  0
   10.4239   -1.7677   22.2230 N   0  0  0  0  0  0  0  0  0  0  0  0
    9.9468   -4.5953   20.1709 C   0  0  0  0  0  0  0  0  0  0  0  0
   10.0366   -3.0590   23.9864 N   0  0  0  0  0  0  0  0  0  0  0  0
    7.1191   -7.3636   15.7739 C   0  0  0  0  0  0  0  0  0  0  0  0
    5.9612   -8.3203   17.2732 N   0  0  0  0  0  0  0  0  0  0  0  0
    8.5296   -5.9814   17.1841 C   0  0  0  0  0  0  0  0  0  0  0  0
    9.1527   -5.2118   16.2116 C   0  0  0  0  0  0  0  0  0  0  0  0
   10.3364   -3.8368   22.9255 O   0  0  0  0  0  0  0  0  0  0  0  0
    9.6947   -4.8407   18.8534 C   0  0  0  0  0  0  0  0  0  0  0  0
    9.1596    1.7042   24.1381 C   0  0  0  0  0  0  0  0  0  0  0  0
   11.0456   -2.9774   18.2694 N   0  0  0  0  0  0  0  0  0  0  0  0
   10.4788   -3.0457   21.8593 C   0  0  0  0  0  0  0  0  0  0  0  0
    8.8693   -5.8099   18.4657 N   0  0  0  0  0  0  0  0  0  0  0  0
    8.9892   -0.7926   25.4573 C   0  0  0  0  0  0  0  0  0  0  0  0
   10.5677   -3.4462   20.5323 C   0  0  0  0  0  0  0  0  0  0  0  0
  1  8  1  0
  1 12  4  0
  1 14  4  0
  2  3  4  0
  2 18  4  0
  3 20  4  0
  3 22  4  0
  4 11  4  0
  4 21  4  0
  5  9  4  0
  5 16  4  0
  6 15  4  0
  6 16  4  0
  7 22  4  0
  7 26  4  0
  8 10  4  0
  8 25  4  0
  9 15  4  0
  9 17  1  0
 10 21  4  0
 11 25  4  0
 12 23  4  0
 13 20  4  0
 13 26  4  0
 14 19  4  0
 17 18  4  0
 17 24  4  0
 19 23  4  0
 20 24  4  0
 23 26  1  0
M  END
$$$$

 Created by Python create_sdf_string function

 26 30  0  0  0  0  0  0  0  0999 V2000
   10.0084   -1.8019   23.4945 C   0  0  0  0  0  0  0  0  0  0  0  0
   10.0005   -4.2520   16.5631 C   0  0  0  0  0  0  0  0  0  0  0  0
   10.2759   -4.0036   17.8845 C   0  0  0  0  0  0  0  0  0  0  0  0
    8.5652    1.5478   25.3778 N   0  0  0  0  0  0  0  0  0  0  0  0
    6.8048   -7.5457   17.8752 C   0  0  0  0  0  0  0  0  0  0  0  0
    6.1721   -8.2186   15.9886 N   0  0  0  0  0  0  0  0  0  0  0  0
   11.1764   -2.6600   19.5604 C   0  0  0  0  0  0  0  0  0  0  0  0
    9.5491   -0.6380   24.1912 C   0  0  0  0  0  0  0  0  0  0  0  0
    7.5337   -6.9256   16.9519 C   0  0  0  0  0  0  0  0  0  0  0  0
    9.6782    0.5671   23.5143 C   0  0  0  0  0  0  0  0  0  0  0  0
    8.4532    0.3482   26.0821 C   0  0  0  0  0  0  0  0  0  0  0  0
   10.4239   -1.7677   22.2230 N   0  0  0  0  0  0  0  0  0  0  0  0
    9.9468   -4.5953   20.1709 C   0  0  0  0  0  0  0  0  0  0  0  0
   10.0366   -3.0590   23.9864 N   0  0  0  0  0  0  0  0  0  0  0  0
    7.1191   -7.3636   15.7739 C   0  0  0  0  0  0  0  0  0  0  0  0
    5.9612   -8.3203   17.2732 N   0  0  0  0  0  0  0  0  0  0  0  0
    8.5296   -5.9814   17.1841 C   0  0  0  0  0  0  0  0  0  0  0  0
    9.1527   -5.2118   16.2116 C   0  0  0  0  0  0  0  0  0  0  0  0
   10.3364   -3.8368   22.9255 O   0  0  0  0  0  0  0  0  0  0  0  0
    9.6947   -4.8407   18.8534 C   0  0  0  0  0  0  0  0  0  0  0  0
    9.1596    1.7042   24.1381 C   0  0  0  0  0  0  0  0  0  0  0  0
   11.0456   -2.9774   18.2694 N   0  0  0  0  0  0  0  0  0  0  0  0
   10.4788   -3.0457   21.8593 C   0  0  0  0  0  0  0  0  0  0  0  0
    8.8693   -5.8099   18.4657 N   0  0  0  0  0  0  0  0  0  0  0  0
    8.9892   -0.7926   25.4573 C   0  0  0  0  0  0  0  0  0  0  0  0
   10.5677   -3.4462   20.5323 C   0  0  0  0  0  0  0  0  0  0  0  0
  1  8  1  0
  1 12  4  0
  1 14  4  0
  2  3  4  0
  2 18  4  0
  3 20  4  0
  3 22  4  0
  4 11  4  0
  4 21  4  0
  5  9  4  0
  5 16  4  0
  6 15  4  0
  6 16  4  0
  7 22  4  0
  7 26  4  0
  8 10  4  0
  8 25  4  0
  9 15  4  0
  9 17  1  0
 10 21  4  0
 11 25  4  0
 12 23  4  0
 13 20  4  0
 13 26  4  0
 14 19  4  0
 17 18  4  0
 17 24  4  0
 19 23  4  0
 20 24  4  0
 23 26  1  0
M  END
$$$$

 Created by Python create_sdf_string function

 26 30  0  0  0  0  0  0  0  0999 V2000
   10.0084   -1.8019   23.4945 C   0  0  0  0  0  0  0  0  0  0  0  0
   10.0005   -4.2520   16.5631 C   0  0  0  0  0  0  0  0  0  0  0  0
   10.2759   -4.0036   17.8845 C   0  0  0  0  0  0  0  0  0  0  0  0
    8.5652    1.5478   25.3778 N   0  0  0  0  0  0  0  0  0  0  0  0
    6.8048   -7.5457   17.8752 C   0  0  0  0  0  0  0  0  0  0  0  0
    6.1721   -8.2186   15.9886 N   0  0  0  0  0  0  0  0  0  0  0  0
   11.1764   -2.6600   19.5604 C   0  0  0  0  0  0  0  0  0  0  0  0
    9.5491   -0.6380   24.1912 C   0  0  0  0  0  0  0  0  0  0  0  0
    7.5337   -6.9256   16.9519 C   0  0  0  0  0  0  0  0  0  0  0  0
    9.6782    0.5671   23.5143 C   0  0  0  0  0  0  0  0  0  0  0  0
    8.4532    0.3482   26.0821 C   0  0  0  0  0  0  0  0  0  0  0  0
   10.4239   -1.7677   22.2230 N   0  0  0  0  0  0  0  0  0  0  0  0
    9.9468   -4.5953   20.1709 C   0  0  0  0  0  0  0  0  0  0  0  0
   10.0366   -3.0590   23.9864 N   0  0  0  0  0  0  0  0  0  0  0  0
    7.1191   -7.3636   15.7739 C   0  0  0  0  0  0  0  0  0  0  0  0
    5.9612   -8.3203   17.2732 N   0  0  0  0  0  0  0  0  0  0  0  0
    8.5296   -5.9814   17.1841 C   0  0  0  0  0  0  0  0  0  0  0  0
    9.1527   -5.2118   16.2116 C   0  0  0  0  0  0  0  0  0  0  0  0
   10.3364   -3.8368   22.9255 O   0  0  0  0  0  0  0  0  0  0  0  0
    9.6947   -4.8407   18.8534 C   0  0  0  0  0  0  0  0  0  0  0  0
    9.1596    1.7042   24.1381 C   0  0  0  0  0  0  0  0  0  0  0  0
   11.0456   -2.9774   18.2694 N   0  0  0  0  0  0  0  0  0  0  0  0
   10.4788   -3.0457   21.8593 C   0  0  0  0  0  0  0  0  0  0  0  0
    8.8693   -5.8099   18.4657 N   0  0  0  0  0  0  0  0  0  0  0  0
    8.9892   -0.7926   25.4573 C   0  0  0  0  0  0  0  0  0  0  0  0
   10.5677   -3.4462   20.5323 C   0  0  0  0  0  0  0  0  0  0  0  0
  1  8  1  0
  1 12  4  0
  1 14  4  0
  2  3  4  0
  2 18  4  0
  3 20  4  0
  3 22  4  0
  4 11  4  0
  4 21  4  0
  5  9  4  0
  5 16  4  0
  6 15  4  0
  6 16  4  0
  7 22  4  0
  7 26  4  0
  8 10  4  0
  8 25  4  0
  9 15  4  0
  9 17  1  0
 10 21  4  0
 11 25  4  0
 12 23  4  0
 13 20  4  0
 13 26  4  0
 14 19  4  0
 17 18  4  0
 17 24  4  0
 19 23  4  0
 20 24  4  0
 23 26  1  0
M  END
$$$$

 Created by Python create_sdf_string function

 26 30  0  0  0  0  0  0  0  0999 V2000
   10.0084   -1.8019   23.4945 C   0  0  0  0  0  0  0  0  0  0  0  0
   10.0005   -4.2520   16.5631 C   0  0  0  0  0  0  0  0  0  0  0  0
   10.2759   -4.0036   17.8845 C   0  0  0  0  0  0  0  0  0  0  0  0
    8.5652    1.5478   25.3778 N   0  0  0  0  0  0  0  0  0  0  0  0
    6.8048   -7.5457   17.8752 C   0  0  0  0  0  0  0  0  0  0  0  0
    6.1721   -8.2186   15.9886 N   0  0  0  0  0  0  0  0  0  0  0  0
   11.1764   -2.6600   19.5604 C   0  0  0  0  0  0  0  0  0  0  0  0
    9.5491   -0.6380   24.1912 C   0  0  0  0  0  0  0  0  0  0  0  0
    7.5337   -6.9256   16.9519 C   0  0  0  0  0  0  0  0  0  0  0  0
    9.6782    0.5671   23.5143 C   0  0  0  0  0  0  0  0  0  0  0  0
    8.4532    0.3482   26.0821 C   0  0  0  0  0  0  0  0  0  0  0  0
   10.4239   -1.7677   22.2230 N   0  0  0  0  0  0  0  0  0  0  0  0
    9.9468   -4.5953   20.1709 C   0  0  0  0  0  0  0  0  0  0  0  0
   10.0366   -3.0590   23.9864 N   0  0  0  0  0  0  0  0  0  0  0  0
    7.1191   -7.3636   15.7739 C   0  0  0  0  0  0  0  0  0  0  0  0
    5.9612   -8.3203   17.2732 N   0  0  0  0  0  0  0  0  0  0  0  0
    8.5296   -5.9814   17.1841 C   0  0  0  0  0  0  0  0  0  0  0  0
    9.1527   -5.2118   16.2116 C   0  0  0  0  0  0  0  0  0  0  0  0
   10.3364   -3.8368   22.9255 O   0  0  0  0  0  0  0  0  0  0  0  0
    9.6947   -4.8407   18.8534 C   0  0  0  0  0  0  0  0  0  0  0  0
    9.1596    1.7042   24.1381 C   0  0  0  0  0  0  0  0  0  0  0  0
   11.0456   -2.9774   18.2694 N   0  0  0  0  0  0  0  0  0  0  0  0
   10.4788   -3.0457   21.8593 C   0  0  0  0  0  0  0  0  0  0  0  0
    8.8693   -5.8099   18.4657 N   0  0  0  0  0  0  0  0  0  0  0  0
    8.9892   -0.7926   25.4573 C   0  0  0  0  0  0  0  0  0  0  0  0
   10.5677   -3.4462   20.5323 C   0  0  0  0  0  0  0  0  0  0  0  0
  1  8  1  0
  1 12  4  0
  1 14  4  0
  2  3  4  0
  2 18  4  0
  3 20  4  0
  3 22  4  0
  4 11  4  0
  4 21  4  0
  5  9  4  0
  5 16  4  0
  6 15  4  0
  6 16  4  0
  7 22  4  0
  7 26  4  0
  8 10  4  0
  8 25  4  0
  9 15  4  0
  9 17  1  0
 10 21  4  0
 11 25  4  0
 12 23  4  0
 13 20  4  0
 13 26  4  0
 14 19  4  0
 17 18  4  0
 17 24  4  0
 19 23  4  0
 20 24  4  0
 23 26  1  0
M  END
$$$$

 Created by Python create_sdf_string function

 26 30  0  0  0  0  0  0  0  0999 V2000
   10.0084   -1.8019   23.4945 C   0  0  0  0  0  0  0  0  0  0  0  0
   10.0005   -4.2520   16.5631 C   0  0  0  0  0  0  0  0  0  0  0  0
   10.2759   -4.0036   17.8845 C   0  0  0  0  0  0  0  0  0  0  0  0
    8.5652    1.5478   25.3778 N   0  0  0  0  0  0  0  0  0  0  0  0
    6.8048   -7.5457   17.8752 C   0  0  0  0  0  0  0  0  0  0  0  0
    6.1721   -8.2186   15.9886 N   0  0  0  0  0  0  0  0  0  0  0  0
   11.1764   -2.6600   19.5604 C   0  0  0  0  0  0  0  0  0  0  0  0
    9.5491   -0.6380   24.1912 C   0  0  0  0  0  0  0  0  0  0  0  0
    7.5337   -6.9256   16.9519 C   0  0  0  0  0  0  0  0  0  0  0  0
    9.6782    0.5671   23.5143 C   0  0  0  0  0  0  0  0  0  0  0  0
    8.4532    0.3482   26.0821 C   0  0  0  0  0  0  0  0  0  0  0  0
   10.4239   -1.7677   22.2230 N   0  0  0  0  0  0  0  0  0  0  0  0
    9.9468   -4.5953   20.1709 C   0  0  0  0  0  0  0  0  0  0  0  0
   10.0366   -3.0590   23.9864 N   0  0  0  0  0  0  0  0  0  0  0  0
    7.1191   -7.3636   15.7739 C   0  0  0  0  0  0  0  0  0  0  0  0
    5.9612   -8.3203   17.2732 N   0  0  0  0  0  0  0  0  0  0  0  0
    8.5296   -5.9814   17.1841 C   0  0  0  0  0  0  0  0  0  0  0  0
    9.1527   -5.2118   16.2116 C   0  0  0  0  0  0  0  0  0  0  0  0
   10.3364   -3.8368   22.9255 O   0  0  0  0  0  0  0  0  0  0  0  0
    9.6947   -4.8407   18.8534 C   0  0  0  0  0  0  0  0  0  0  0  0
    9.1596    1.7042   24.1381 C   0  0  0  0  0  0  0  0  0  0  0  0
   11.0456   -2.9774   18.2694 N   0  0  0  0  0  0  0  0  0  0  0  0
   10.4788   -3.0457   21.8593 C   0  0  0  0  0  0  0  0  0  0  0  0
    8.8693   -5.8099   18.4657 N   0  0  0  0  0  0  0  0  0  0  0  0
    8.9892   -0.7926   25.4573 C   0  0  0  0  0  0  0  0  0  0  0  0
   10.5677   -3.4462   20.5323 C   0  0  0  0  0  0  0  0  0  0  0  0
  1  8  1  0
  1 12  4  0
  1 14  4  0
  2  3  4  0
  2 18  4  0
  3 20  4  0
  3 22  4  0
  4 11  4  0
  4 21  4  0
  5  9  4  0
  5 16  4  0
  6 15  4  0
  6 16  4  0
  7 22  4  0
  7 26  4  0
  8 10  4  0
  8 25  4  0
  9 15  4  0
  9 17  1  0
 10 21  4  0
 11 25  4  0
 12 23  4  0
 13 20  4  0
 13 26  4  0
 14 19  4  0
 17 18  4  0
 17 24  4  0
 19 23  4  0
 20 24  4  0
 23 26  1  0
M  END
$$$$

 Created by Python create_sdf_string function

 26 30  0  0  0  0  0  0  0  0999 V2000
   10.0084   -1.8019   23.4945 C   0  0  0  0  0  0  0  0  0  0  0  0
   10.0005   -4.2520   16.5631 C   0  0  0  0  0  0  0  0  0  0  0  0
   10.2759   -4.0036   17.8845 C   0  0  0  0  0  0  0  0  0  0  0  0
    8.5652    1.5478   25.3778 N   0  0  0  0  0  0  0  0  0  0  0  0
    6.8048   -7.5457   17.8752 C   0  0  0  0  0  0  0  0  0  0  0  0
    6.1721   -8.2186   15.9886 N   0  0  0  0  0  0  0  0  0  0  0  0
   11.1764   -2.6600   19.5604 C   0  0  0  0  0  0  0  0  0  0  0  0
    9.5491   -0.6380   24.1912 C   0  0  0  0  0  0  0  0  0  0  0  0
    7.5337   -6.9256   16.9519 C   0  0  0  0  0  0  0  0  0  0  0  0
    9.6782    0.5671   23.5143 C   0  0  0  0  0  0  0  0  0  0  0  0
    8.4532    0.3482   26.0821 C   0  0  0  0  0  0  0  0  0  0  0  0
   10.4239   -1.7677   22.2230 N   0  0  0  0  0  0  0  0  0  0  0  0
    9.9468   -4.5953   20.1709 C   0  0  0  0  0  0  0  0  0  0  0  0
   10.0366   -3.0590   23.9864 N   0  0  0  0  0  0  0  0  0  0  0  0
    7.1191   -7.3636   15.7739 C   0  0  0  0  0  0  0  0  0  0  0  0
    5.9612   -8.3203   17.2732 N   0  0  0  0  0  0  0  0  0  0  0  0
    8.5296   -5.9814   17.1841 C   0  0  0  0  0  0  0  0  0  0  0  0
    9.1527   -5.2118   16.2116 C   0  0  0  0  0  0  0  0  0  0  0  0
   10.3364   -3.8368   22.9255 O   0  0  0  0  0  0  0  0  0  0  0  0
    9.6947   -4.8407   18.8534 C   0  0  0  0  0  0  0  0  0  0  0  0
    9.1596    1.7042   24.1381 C   0  0  0  0  0  0  0  0  0  0  0  0
   11.0456   -2.9774   18.2694 N   0  0  0  0  0  0  0  0  0  0  0  0
   10.4788   -3.0457   21.8593 C   0  0  0  0  0  0  0  0  0  0  0  0
    8.8693   -5.8099   18.4657 N   0  0  0  0  0  0  0  0  0  0  0  0
    8.9892   -0.7926   25.4573 C   0  0  0  0  0  0  0  0  0  0  0  0
   10.5677   -3.4462   20.5323 C   0  0  0  0  0  0  0  0  0  0  0  0
  1  8  1  0
  1 12  4  0
  1 14  4  0
  2  3  4  0
  2 18  4  0
  3 20  4  0
  3 22  4  0
  4 11  4  0
  4 21  4  0
  5  9  4  0
  5 16  4  0
  6 15  4  0
  6 16  4  0
  7 22  4  0
  7 26  4  0
  8 10  4  0
  8 25  4  0
  9 15  4  0
  9 17  1  0
 10 21  4  0
 11 25  4  0
 12 23  4  0
 13 20  4  0
 13 26  4  0
 14 19  4  0
 17 18  4  0
 17 24  4  0
 19 23  4  0
 20 24  4  0
 23 26  1  0
M  END
$$$$

 Created by Python create_sdf_string function

 26 30  0  0  0  0  0  0  0  0999 V2000
   10.0084   -1.8019   23.4945 C   0  0  0  0  0  0  0  0  0  0  0  0
   10.0005   -4.2520   16.5631 C   0  0  0  0  0  0  0  0  0  0  0  0
   10.2759   -4.0036   17.8845 C   0  0  0  0  0  0  0  0  0  0  0  0
    8.5652    1.5478   25.3778 N   0  0  0  0  0  0  0  0  0  0  0  0
    6.8048   -7.5457   17.8752 C   0  0  0  0  0  0  0  0  0  0  0  0
    6.1721   -8.2186   15.9886 N   0  0  0  0  0  0  0  0  0  0  0  0
   11.1764   -2.6600   19.5604 C   0  0  0  0  0  0  0  0  0  0  0  0
    9.5491   -0.6380   24.1912 C   0  0  0  0  0  0  0  0  0  0  0  0
    7.5337   -6.9256   16.9519 C   0  0  0  0  0  0  0  0  0  0  0  0
    9.6782    0.5671   23.5143 C   0  0  0  0  0  0  0  0  0  0  0  0
    8.4532    0.3482   26.0821 C   0  0  0  0  0  0  0  0  0  0  0  0
   10.4239   -1.7677   22.2230 N   0  0  0  0  0  0  0  0  0  0  0  0
    9.9468   -4.5953   20.1709 C   0  0  0  0  0  0  0  0  0  0  0  0
   10.0366   -3.0590   23.9864 N   0  0  0  0  0  0  0  0  0  0  0  0
    7.1191   -7.3636   15.7739 C   0  0  0  0  0  0  0  0  0  0  0  0
    5.9612   -8.3203   17.2732 N   0  0  0  0  0  0  0  0  0  0  0  0
    8.5296   -5.9814   17.1841 C   0  0  0  0  0  0  0  0  0  0  0  0
    9.1527   -5.2118   16.2116 C   0  0  0  0  0  0  0  0  0  0  0  0
   10.3364   -3.8368   22.9255 O   0  0  0  0  0  0  0  0  0  0  0  0
    9.6947   -4.8407   18.8534 C   0  0  0  0  0  0  0  0  0  0  0  0
    9.1596    1.7042   24.1381 C   0  0  0  0  0  0  0  0  0  0  0  0
   11.0456   -2.9774   18.2694 N   0  0  0  0  0  0  0  0  0  0  0  0
   10.4788   -3.0457   21.8593 C   0  0  0  0  0  0  0  0  0  0  0  0
    8.8693   -5.8099   18.4657 N   0  0  0  0  0  0  0  0  0  0  0  0
    8.9892   -0.7926   25.4573 C   0  0  0  0  0  0  0  0  0  0  0  0
   10.5677   -3.4462   20.5323 C   0  0  0  0  0  0  0  0  0  0  0  0
  1  8  1  0
  1 12  4  0
  1 14  4  0
  2  3  4  0
  2 18  4  0
  3 20  4  0
  3 22  4  0
  4 11  4  0
  4 21  4  0
  5  9  4  0
  5 16  4  0
  6 15  4  0
  6 16  4  0
  7 22  4  0
  7 26  4  0
  8 10  4  0
  8 25  4  0
  9 15  4  0
  9 17  1  0
 10 21  4  0
 11 25  4  0
 12 23  4  0
 13 20  4  0
 13 26  4  0
 14 19  4  0
 17 18  4  0
 17 24  4  0
 19 23  4  0
 20 24  4  0
 23 26  1  0
M  END
$$$$

 Created by Python create_sdf_string function

 26 30  0  0  0  0  0  0  0  0999 V2000
   10.0084   -1.8019   23.4945 C   0  0  0  0  0  0  0  0  0  0  0  0
   10.0005   -4.2520   16.5631 C   0  0  0  0  0  0  0  0  0  0  0  0
   10.2759   -4.0036   17.8845 C   0  0  0  0  0  0  0  0  0  0  0  0
    8.5652    1.5478   25.3778 N   0  0  0  0  0  0  0  0  0  0  0  0
    6.8048   -7.5457   17.8752 C   0  0  0  0  0  0  0  0  0  0  0  0
    6.1721   -8.2186   15.9886 N   0  0  0  0  0  0  0  0  0  0  0  0
   11.1764   -2.6600   19.5604 C   0  0  0  0  0  0  0  0  0  0  0  0
    9.5491   -0.6380   24.1912 C   0  0  0  0  0  0  0  0  0  0  0  0
    7.5337   -6.9256   16.9519 C   0  0  0  0  0  0  0  0  0  0  0  0
    9.6782    0.5671   23.5143 C   0  0  0  0  0  0  0  0  0  0  0  0
    8.4532    0.3482   26.0821 C   0  0  0  0  0  0  0  0  0  0  0  0
   10.4239   -1.7677   22.2230 N   0  0  0  0  0  0  0  0  0  0  0  0
    9.9468   -4.5953   20.1709 C   0  0  0  0  0  0  0  0  0  0  0  0
   10.0366   -3.0590   23.9864 N   0  0  0  0  0  0  0  0  0  0  0  0
    7.1191   -7.3636   15.7739 C   0  0  0  0  0  0  0  0  0  0  0  0
    5.9612   -8.3203   17.2732 N   0  0  0  0  0  0  0  0  0  0  0  0
    8.5296   -5.9814   17.1841 C   0  0  0  0  0  0  0  0  0  0  0  0
    9.1527   -5.2118   16.2116 C   0  0  0  0  0  0  0  0  0  0  0  0
   10.3364   -3.8368   22.9255 O   0  0  0  0  0  0  0  0  0  0  0  0
    9.6947   -4.8407   18.8534 C   0  0  0  0  0  0  0  0  0  0  0  0
    9.1596    1.7042   24.1381 C   0  0  0  0  0  0  0  0  0  0  0  0
   11.0456   -2.9774   18.2694 N   0  0  0  0  0  0  0  0  0  0  0  0
   10.4788   -3.0457   21.8593 C   0  0  0  0  0  0  0  0  0  0  0  0
    8.8693   -5.8099   18.4657 N   0  0  0  0  0  0  0  0  0  0  0  0
    8.9892   -0.7926   25.4573 C   0  0  0  0  0  0  0  0  0  0  0  0
   10.5677   -3.4462   20.5323 C   0  0  0  0  0  0  0  0  0  0  0  0
  1  8  1  0
  1 12  4  0
  1 14  4  0
  2  3  4  0
  2 18  4  0
  3 20  4  0
  3 22  4  0
  4 11  4  0
  4 21  4  0
  5  9  4  0
  5 16  4  0
  6 15  4  0
  6 16  4  0
  7 22  4  0
  7 26  4  0
  8 10  4  0
  8 25  4  0
  9 15  4  0
  9 17  1  0
 10 21  4  0
 11 25  4  0
 12 23  4  0
 13 20  4  0
 13 26  4  0
 14 19  4  0
 17 18  4  0
 17 24  4  0
 19 23  4  0
 20 24  4  0
 23 26  1  0
M  END
$$$$

 Created by Python create_sdf_string function

 26 30  0  0  0  0  0  0  0  0999 V2000
   10.0084   -1.8019   23.4945 C   0  0  0  0  0  0  0  0  0  0  0  0
   10.0005   -4.2520   16.5631 C   0  0  0  0  0  0  0  0  0  0  0  0
   10.2759   -4.0036   17.8845 C   0  0  0  0  0  0  0  0  0  0  0  0
    8.5652    1.5478   25.3778 N   0  0  0  0  0  0  0  0  0  0  0  0
    6.8048   -7.5457   17.8752 C   0  0  0  0  0  0  0  0  0  0  0  0
    6.1721   -8.2186   15.9886 N   0  0  0  0  0  0  0  0  0  0  0  0
   11.1764   -2.6600   19.5604 C   0  0  0  0  0  0  0  0  0  0  0  0
    9.5491   -0.6380   24.1912 C   0  0  0  0  0  0  0  0  0  0  0  0
    7.5337   -6.9256   16.9519 C   0  0  0  0  0  0  0  0  0  0  0  0
    9.6782    0.5671   23.5143 C   0  0  0  0  0  0  0  0  0  0  0  0
    8.4532    0.3482   26.0821 C   0  0  0  0  0  0  0  0  0  0  0  0
   10.4239   -1.7677   22.2230 N   0  0  0  0  0  0  0  0  0  0  0  0
    9.9468   -4.5953   20.1709 C   0  0  0  0  0  0  0  0  0  0  0  0
   10.0366   -3.0590   23.9864 N   0  0  0  0  0  0  0  0  0  0  0  0
    7.1191   -7.3636   15.7739 C   0  0  0  0  0  0  0  0  0  0  0  0
    5.9612   -8.3203   17.2732 N   0  0  0  0  0  0  0  0  0  0  0  0
    8.5296   -5.9814   17.1841 C   0  0  0  0  0  0  0  0  0  0  0  0
    9.1527   -5.2118   16.2116 C   0  0  0  0  0  0  0  0  0  0  0  0
   10.3364   -3.8368   22.9255 O   0  0  0  0  0  0  0  0  0  0  0  0
    9.6947   -4.8407   18.8534 C   0  0  0  0  0  0  0  0  0  0  0  0
    9.1596    1.7042   24.1381 C   0  0  0  0  0  0  0  0  0  0  0  0
   11.0456   -2.9774   18.2694 N   0  0  0  0  0  0  0  0  0  0  0  0
   10.4788   -3.0457   21.8593 C   0  0  0  0  0  0  0  0  0  0  0  0
    8.8693   -5.8099   18.4657 N   0  0  0  0  0  0  0  0  0  0  0  0
    8.9892   -0.7926   25.4573 C   0  0  0  0  0  0  0  0  0  0  0  0
   10.5677   -3.4462   20.5323 C   0  0  0  0  0  0  0  0  0  0  0  0
  1  8  1  0
  1 12  4  0
  1 14  4  0
  2  3  4  0
  2 18  4  0
  3 20  4  0
  3 22  4  0
  4 11  4  0
  4 21  4  0
  5  9  4  0
  5 16  4  0
  6 15  4  0
  6 16  4  0
  7 22  4  0
  7 26  4  0
  8 10  4  0
  8 25  4  0
  9 15  4  0
  9 17  1  0
 10 21  4  0
 11 25  4  0
 12 23  4  0
 13 20  4  0
 13 26  4  0
 14 19  4  0
 17 18  4  0
 17 24  4  0
 19 23  4  0
 20 24  4  0
 23 26  1  0
M  END
$$$$

 Created by Python create_sdf_string function

 26 30  0  0  0  0  0  0  0  0999 V2000
   10.0084   -1.8019   23.4945 C   0  0  0  0  0  0  0  0  0  0  0  0
   10.0005   -4.2520   16.5631 C   0  0  0  0  0  0  0  0  0  0  0  0
   10.2759   -4.0036   17.8845 C   0  0  0  0  0  0  0  0  0  0  0  0
    8.5652    1.5478   25.3778 N   0  0  0  0  0  0  0  0  0  0  0  0
    6.8048   -7.5457   17.8752 C   0  0  0  0  0  0  0  0  0  0  0  0
    6.1721   -8.2186   15.9886 N   0  0  0  0  0  0  0  0  0  0  0  0
   11.1764   -2.6600   19.5604 C   0  0  0  0  0  0  0  0  0  0  0  0
    9.5491   -0.6380   24.1912 C   0  0  0  0  0  0  0  0  0  0  0  0
    7.5337   -6.9256   16.9519 C   0  0  0  0  0  0  0  0  0  0  0  0
    9.6782    0.5671   23.5143 C   0  0  0  0  0  0  0  0  0  0  0  0
    8.4532    0.3482   26.0821 C   0  0  0  0  0  0  0  0  0  0  0  0
   10.4239   -1.7677   22.2230 N   0  0  0  0  0  0  0  0  0  0  0  0
    9.9468   -4.5953   20.1709 C   0  0  0  0  0  0  0  0  0  0  0  0
   10.0366   -3.0590   23.9864 N   0  0  0  0  0  0  0  0  0  0  0  0
    7.1191   -7.3636   15.7739 C   0  0  0  0  0  0  0  0  0  0  0  0
    5.9612   -8.3203   17.2732 N   0  0  0  0  0  0  0  0  0  0  0  0
    8.5296   -5.9814   17.1841 C   0  0  0  0  0  0  0  0  0  0  0  0
    9.1527   -5.2118   16.2116 C   0  0  0  0  0  0  0  0  0  0  0  0
   10.3364   -3.8368   22.9255 O   0  0  0  0  0  0  0  0  0  0  0  0
    9.6947   -4.8407   18.8534 C   0  0  0  0  0  0  0  0  0  0  0  0
    9.1596    1.7042   24.1381 C   0  0  0  0  0  0  0  0  0  0  0  0
   11.0456   -2.9774   18.2694 N   0  0  0  0  0  0  0  0  0  0  0  0
   10.4788   -3.0457   21.8593 C   0  0  0  0  0  0  0  0  0  0  0  0
    8.8693   -5.8099   18.4657 N   0  0  0  0  0  0  0  0  0  0  0  0
    8.9892   -0.7926   25.4573 C   0  0  0  0  0  0  0  0  0  0  0  0
   10.5677   -3.4462   20.5323 C   0  0  0  0  0  0  0  0  0  0  0  0
  1  8  1  0
  1 12  4  0
  1 14  4  0
  2  3  4  0
  2 18  4  0
  3 20  4  0
  3 22  4  0
  4 11  4  0
  4 21  4  0
  5  9  4  0
  5 16  4  0
  6 15  4  0
  6 16  4  0
  7 22  4  0
  7 26  4  0
  8 10  4  0
  8 25  4  0
  9 15  4  0
  9 17  1  0
 10 21  4  0
 11 25  4  0
 12 23  4  0
 13 20  4  0
 13 26  4  0
 14 19  4  0
 17 18  4  0
 17 24  4  0
 19 23  4  0
 20 24  4  0
 23 26  1  0
M  END
$$$$

 Created by Python create_sdf_string function

 26 30  0  0  0  0  0  0  0  0999 V2000
   10.0084   -1.8019   23.4945 C   0  0  0  0  0  0  0  0  0  0  0  0
   10.0005   -4.2520   16.5631 C   0  0  0  0  0  0  0  0  0  0  0  0
   10.2759   -4.0036   17.8845 C   0  0  0  0  0  0  0  0  0  0  0  0
    8.5652    1.5478   25.3778 N   0  0  0  0  0  0  0  0  0  0  0  0
    6.8048   -7.5457   17.8752 C   0  0  0  0  0  0  0  0  0  0  0  0
    6.1721   -8.2186   15.9886 N   0  0  0  0  0  0  0  0  0  0  0  0
   11.1764   -2.6600   19.5604 C   0  0  0  0  0  0  0  0  0  0  0  0
    9.5491   -0.6380   24.1912 C   0  0  0  0  0  0  0  0  0  0  0  0
    7.5337   -6.9256   16.9519 C   0  0  0  0  0  0  0  0  0  0  0  0
    9.6782    0.5671   23.5143 C   0  0  0  0  0  0  0  0  0  0  0  0
    8.4532    0.3482   26.0821 C   0  0  0  0  0  0  0  0  0  0  0  0
   10.4239   -1.7677   22.2230 N   0  0  0  0  0  0  0  0  0  0  0  0
    9.9468   -4.5953   20.1709 C   0  0  0  0  0  0  0  0  0  0  0  0
   10.0366   -3.0590   23.9864 N   0  0  0  0  0  0  0  0  0  0  0  0
    7.1191   -7.3636   15.7739 C   0  0  0  0  0  0  0  0  0  0  0  0
    5.9612   -8.3203   17.2732 N   0  0  0  0  0  0  0  0  0  0  0  0
    8.5296   -5.9814   17.1841 C   0  0  0  0  0  0  0  0  0  0  0  0
    9.1527   -5.2118   16.2116 C   0  0  0  0  0  0  0  0  0  0  0  0
   10.3364   -3.8368   22.9255 O   0  0  0  0  0  0  0  0  0  0  0  0
    9.6947   -4.8407   18.8534 C   0  0  0  0  0  0  0  0  0  0  0  0
    9.1596    1.7042   24.1381 C   0  0  0  0  0  0  0  0  0  0  0  0
   11.0456   -2.9774   18.2694 N   0  0  0  0  0  0  0  0  0  0  0  0
   10.4788   -3.0457   21.8593 C   0  0  0  0  0  0  0  0  0  0  0  0
    8.8693   -5.8099   18.4657 N   0  0  0  0  0  0  0  0  0  0  0  0
    8.9892   -0.7926   25.4573 C   0  0  0  0  0  0  0  0  0  0  0  0
   10.5677   -3.4462   20.5323 C   0  0  0  0  0  0  0  0  0  0  0  0
  1  8  1  0
  1 12  4  0
  1 14  4  0
  2  3  4  0
  2 18  4  0
  3 20  4  0
  3 22  4  0
  4 11  4  0
  4 21  4  0
  5  9  4  0
  5 16  4  0
  6 15  4  0
  6 16  4  0
  7 22  4  0
  7 26  4  0
  8 10  4  0
  8 25  4  0
  9 15  4  0
  9 17  1  0
 10 21  4  0
 11 25  4  0
 12 23  4  0
 13 20  4  0
 13 26  4  0
 14 19  4  0
 17 18  4  0
 17 24  4  0
 19 23  4  0
 20 24  4  0
 23 26  1  0
M  END
$$$$

 Created by Python create_sdf_string function

 26 30  0  0  0  0  0  0  0  0999 V2000
   10.0084   -1.8019   23.4945 C   0  0  0  0  0  0  0  0  0  0  0  0
   10.0005   -4.2520   16.5631 C   0  0  0  0  0  0  0  0  0  0  0  0
   10.2759   -4.0036   17.8845 C   0  0  0  0  0  0  0  0  0  0  0  0
    8.5652    1.5478   25.3778 N   0  0  0  0  0  0  0  0  0  0  0  0
    6.8048   -7.5457   17.8752 C   0  0  0  0  0  0  0  0  0  0  0  0
    6.1721   -8.2186   15.9886 N   0  0  0  0  0  0  0  0  0  0  0  0
   11.1764   -2.6600   19.5604 C   0  0  0  0  0  0  0  0  0  0  0  0
    9.5491   -0.6380   24.1912 C   0  0  0  0  0  0  0  0  0  0  0  0
    7.5337   -6.9256   16.9519 C   0  0  0  0  0  0  0  0  0  0  0  0
    9.6782    0.5671   23.5143 C   0  0  0  0  0  0  0  0  0  0  0  0
    8.4532    0.3482   26.0821 C   0  0  0  0  0  0  0  0  0  0  0  0
   10.4239   -1.7677   22.2230 N   0  0  0  0  0  0  0  0  0  0  0  0
    9.9468   -4.5953   20.1709 C   0  0  0  0  0  0  0  0  0  0  0  0
   10.0366   -3.0590   23.9864 N   0  0  0  0  0  0  0  0  0  0  0  0
    7.1191   -7.3636   15.7739 C   0  0  0  0  0  0  0  0  0  0  0  0
    5.9612   -8.3203   17.2732 N   0  0  0  0  0  0  0  0  0  0  0  0
    8.5296   -5.9814   17.1841 C   0  0  0  0  0  0  0  0  0  0  0  0
    9.1527   -5.2118   16.2116 C   0  0  0  0  0  0  0  0  0  0  0  0
   10.3364   -3.8368   22.9255 O   0  0  0  0  0  0  0  0  0  0  0  0
    9.6947   -4.8407   18.8534 C   0  0  0  0  0  0  0  0  0  0  0  0
    9.1596    1.7042   24.1381 C   0  0  0  0  0  0  0  0  0  0  0  0
   11.0456   -2.9774   18.2694 N   0  0  0  0  0  0  0  0  0  0  0  0
   10.4788   -3.0457   21.8593 C   0  0  0  0  0  0  0  0  0  0  0  0
    8.8693   -5.8099   18.4657 N   0  0  0  0  0  0  0  0  0  0  0  0
    8.9892   -0.7926   25.4573 C   0  0  0  0  0  0  0  0  0  0  0  0
   10.5677   -3.4462   20.5323 C   0  0  0  0  0  0  0  0  0  0  0  0
  1  8  1  0
  1 12  4  0
  1 14  4  0
  2  3  4  0
  2 18  4  0
  3 20  4  0
  3 22  4  0
  4 11  4  0
  4 21  4  0
  5  9  4  0
  5 16  4  0
  6 15  4  0
  6 16  4  0
  7 22  4  0
  7 26  4  0
  8 10  4  0
  8 25  4  0
  9 15  4  0
  9 17  1  0
 10 21  4  0
 11 25  4  0
 12 23  4  0
 13 20  4  0
 13 26  4  0
 14 19  4  0
 17 18  4  0
 17 24  4  0
 19 23  4  0
 20 24  4  0
 23 26  1  0
M  END
$$$$

 Created by Python create_sdf_string function

 26 30  0  0  0  0  0  0  0  0999 V2000
   10.0084   -1.8019   23.4945 C   0  0  0  0  0  0  0  0  0  0  0  0
   10.0005   -4.2520   16.5631 C   0  0  0  0  0  0  0  0  0  0  0  0
   10.2759   -4.0036   17.8845 C   0  0  0  0  0  0  0  0  0  0  0  0
    8.5652    1.5478   25.3778 N   0  0  0  0  0  0  0  0  0  0  0  0
    6.8048   -7.5457   17.8752 C   0  0  0  0  0  0  0  0  0  0  0  0
    6.1721   -8.2186   15.9886 N   0  0  0  0  0  0  0  0  0  0  0  0
   11.1764   -2.6600   19.5604 C   0  0  0  0  0  0  0  0  0  0  0  0
    9.5491   -0.6380   24.1912 C   0  0  0  0  0  0  0  0  0  0  0  0
    7.5337   -6.9256   16.9519 C   0  0  0  0  0  0  0  0  0  0  0  0
    9.6782    0.5671   23.5143 C   0  0  0  0  0  0  0  0  0  0  0  0
    8.4532    0.3482   26.0821 C   0  0  0  0  0  0  0  0  0  0  0  0
   10.4239   -1.7677   22.2230 N   0  0  0  0  0  0  0  0  0  0  0  0
    9.9468   -4.5953   20.1709 C   0  0  0  0  0  0  0  0  0  0  0  0
   10.0366   -3.0590   23.9864 N   0  0  0  0  0  0  0  0  0  0  0  0
    7.1191   -7.3636   15.7739 C   0  0  0  0  0  0  0  0  0  0  0  0
    5.9612   -8.3203   17.2732 N   0  0  0  0  0  0  0  0  0  0  0  0
    8.5296   -5.9814   17.1841 C   0  0  0  0  0  0  0  0  0  0  0  0
    9.1527   -5.2118   16.2116 C   0  0  0  0  0  0  0  0  0  0  0  0
   10.3364   -3.8368   22.9255 O   0  0  0  0  0  0  0  0  0  0  0  0
    9.6947   -4.8407   18.8534 C   0  0  0  0  0  0  0  0  0  0  0  0
    9.1596    1.7042   24.1381 C   0  0  0  0  0  0  0  0  0  0  0  0
   11.0456   -2.9774   18.2694 N   0  0  0  0  0  0  0  0  0  0  0  0
   10.4788   -3.0457   21.8593 C   0  0  0  0  0  0  0  0  0  0  0  0
    8.8693   -5.8099   18.4657 N   0  0  0  0  0  0  0  0  0  0  0  0
    8.9892   -0.7926   25.4573 C   0  0  0  0  0  0  0  0  0  0  0  0
   10.5677   -3.4462   20.5323 C   0  0  0  0  0  0  0  0  0  0  0  0
  1  8  1  0
  1 12  4  0
  1 14  4  0
  2  3  4  0
  2 18  4  0
  3 20  4  0
  3 22  4  0
  4 11  4  0
  4 21  4  0
  5  9  4  0
  5 16  4  0
  6 15  4  0
  6 16  4  0
  7 22  4  0
  7 26  4  0
  8 10  4  0
  8 25  4  0
  9 15  4  0
  9 17  1  0
 10 21  4  0
 11 25  4  0
 12 23  4  0
 13 20  4  0
 13 26  4  0
 14 19  4  0
 17 18  4  0
 17 24  4  0
 19 23  4  0
 20 24  4  0
 23 26  1  0
M  END
$$$$

 Created by Python create_sdf_string function

 26 30  0  0  0  0  0  0  0  0999 V2000
   10.0084   -1.8019   23.4945 C   0  0  0  0  0  0  0  0  0  0  0  0
   10.0005   -4.2520   16.5631 C   0  0  0  0  0  0  0  0  0  0  0  0
   10.2759   -4.0036   17.8845 C   0  0  0  0  0  0  0  0  0  0  0  0
    8.5652    1.5478   25.3778 N   0  0  0  0  0  0  0  0  0  0  0  0
    6.8048   -7.5457   17.8752 C   0  0  0  0  0  0  0  0  0  0  0  0
    6.1721   -8.2186   15.9886 N   0  0  0  0  0  0  0  0  0  0  0  0
   11.1764   -2.6600   19.5604 C   0  0  0  0  0  0  0  0  0  0  0  0
    9.5491   -0.6380   24.1912 C   0  0  0  0  0  0  0  0  0  0  0  0
    7.5337   -6.9256   16.9519 C   0  0  0  0  0  0  0  0  0  0  0  0
    9.6782    0.5671   23.5143 C   0  0  0  0  0  0  0  0  0  0  0  0
    8.4532    0.3482   26.0821 C   0  0  0  0  0  0  0  0  0  0  0  0
   10.4239   -1.7677   22.2230 N   0  0  0  0  0  0  0  0  0  0  0  0
    9.9468   -4.5953   20.1709 C   0  0  0  0  0  0  0  0  0  0  0  0
   10.0366   -3.0590   23.9864 N   0  0  0  0  0  0  0  0  0  0  0  0
    7.1191   -7.3636   15.7739 C   0  0  0  0  0  0  0  0  0  0  0  0
    5.9612   -8.3203   17.2732 N   0  0  0  0  0  0  0  0  0  0  0  0
    8.5296   -5.9814   17.1841 C   0  0  0  0  0  0  0  0  0  0  0  0
    9.1527   -5.2118   16.2116 C   0  0  0  0  0  0  0  0  0  0  0  0
   10.3364   -3.8368   22.9255 O   0  0  0  0  0  0  0  0  0  0  0  0
    9.6947   -4.8407   18.8534 C   0  0  0  0  0  0  0  0  0  0  0  0
    9.1596    1.7042   24.1381 C   0  0  0  0  0  0  0  0  0  0  0  0
   11.0456   -2.9774   18.2694 N   0  0  0  0  0  0  0  0  0  0  0  0
   10.4788   -3.0457   21.8593 C   0  0  0  0  0  0  0  0  0  0  0  0
    8.8693   -5.8099   18.4657 N   0  0  0  0  0  0  0  0  0  0  0  0
    8.9892   -0.7926   25.4573 C   0  0  0  0  0  0  0  0  0  0  0  0
   10.5677   -3.4462   20.5323 C   0  0  0  0  0  0  0  0  0  0  0  0
  1  8  1  0
  1 12  4  0
  1 14  4  0
  2  3  4  0
  2 18  4  0
  3 20  4  0
  3 22  4  0
  4 11  4  0
  4 21  4  0
  5  9  4  0
  5 16  4  0
  6 15  4  0
  6 16  4  0
  7 22  4  0
  7 26  4  0
  8 10  4  0
  8 25  4  0
  9 15  4  0
  9 17  1  0
 10 21  4  0
 11 25  4  0
 12 23  4  0
 13 20  4  0
 13 26  4  0
 14 19  4  0
 17 18  4  0
 17 24  4  0
 19 23  4  0
 20 24  4  0
 23 26  1  0
M  END
$$$$

 Created by Python create_sdf_string function

 26 30  0  0  0  0  0  0  0  0999 V2000
   10.0084   -1.8019   23.4945 C   0  0  0  0  0  0  0  0  0  0  0  0
   10.0005   -4.2520   16.5631 C   0  0  0  0  0  0  0  0  0  0  0  0
   10.2759   -4.0036   17.8845 C   0  0  0  0  0  0  0  0  0  0  0  0
    8.5652    1.5478   25.3778 N   0  0  0  0  0  0  0  0  0  0  0  0
    6.8048   -7.5457   17.8752 C   0  0  0  0  0  0  0  0  0  0  0  0
    6.1721   -8.2186   15.9886 N   0  0  0  0  0  0  0  0  0  0  0  0
   11.1764   -2.6600   19.5604 C   0  0  0  0  0  0  0  0  0  0  0  0
    9.5491   -0.6380   24.1912 C   0  0  0  0  0  0  0  0  0  0  0  0
    7.5337   -6.9256   16.9519 C   0  0  0  0  0  0  0  0  0  0  0  0
    9.6782    0.5671   23.5143 C   0  0  0  0  0  0  0  0  0  0  0  0
    8.4532    0.3482   26.0821 C   0  0  0  0  0  0  0  0  0  0  0  0
   10.4239   -1.7677   22.2230 N   0  0  0  0  0  0  0  0  0  0  0  0
    9.9468   -4.5953   20.1709 C   0  0  0  0  0  0  0  0  0  0  0  0
   10.0366   -3.0590   23.9864 N   0  0  0  0  0  0  0  0  0  0  0  0
    7.1191   -7.3636   15.7739 C   0  0  0  0  0  0  0  0  0  0  0  0
    5.9612   -8.3203   17.2732 N   0  0  0  0  0  0  0  0  0  0  0  0
    8.5296   -5.9814   17.1841 C   0  0  0  0  0  0  0  0  0  0  0  0
    9.1527   -5.2118   16.2116 C   0  0  0  0  0  0  0  0  0  0  0  0
   10.3364   -3.8368   22.9255 O   0  0  0  0  0  0  0  0  0  0  0  0
    9.6947   -4.8407   18.8534 C   0  0  0  0  0  0  0  0  0  0  0  0
    9.1596    1.7042   24.1381 C   0  0  0  0  0  0  0  0  0  0  0  0
   11.0456   -2.9774   18.2694 N   0  0  0  0  0  0  0  0  0  0  0  0
   10.4788   -3.0457   21.8593 C   0  0  0  0  0  0  0  0  0  0  0  0
    8.8693   -5.8099   18.4657 N   0  0  0  0  0  0  0  0  0  0  0  0
    8.9892   -0.7926   25.4573 C   0  0  0  0  0  0  0  0  0  0  0  0
   10.5677   -3.4462   20.5323 C   0  0  0  0  0  0  0  0  0  0  0  0
  1  8  1  0
  1 12  4  0
  1 14  4  0
  2  3  4  0
  2 18  4  0
  3 20  4  0
  3 22  4  0
  4 11  4  0
  4 21  4  0
  5  9  4  0
  5 16  4  0
  6 15  4  0
  6 16  4  0
  7 22  4  0
  7 26  4  0
  8 10  4  0
  8 25  4  0
  9 15  4  0
  9 17  1  0
 10 21  4  0
 11 25  4  0
 12 23  4  0
 13 20  4  0
 13 26  4  0
 14 19  4  0
 17 18  4  0
 17 24  4  0
 19 23  4  0
 20 24  4  0
 23 26  1  0
M  END
$$$$

 Created by Python create_sdf_string function

 26 30  0  0  0  0  0  0  0  0999 V2000
   10.0084   -1.8019   23.4945 C   0  0  0  0  0  0  0  0  0  0  0  0
   10.0005   -4.2520   16.5631 C   0  0  0  0  0  0  0  0  0  0  0  0
   10.2759   -4.0036   17.8845 C   0  0  0  0  0  0  0  0  0  0  0  0
    8.5652    1.5478   25.3778 N   0  0  0  0  0  0  0  0  0  0  0  0
    6.8048   -7.5457   17.8752 C   0  0  0  0  0  0  0  0  0  0  0  0
    6.1721   -8.2186   15.9886 N   0  0  0  0  0  0  0  0  0  0  0  0
   11.1764   -2.6600   19.5604 C   0  0  0  0  0  0  0  0  0  0  0  0
    9.5491   -0.6380   24.1912 C   0  0  0  0  0  0  0  0  0  0  0  0
    7.5337   -6.9256   16.9519 C   0  0  0  0  0  0  0  0  0  0  0  0
    9.6782    0.5671   23.5143 C   0  0  0  0  0  0  0  0  0  0  0  0
    8.4532    0.3482   26.0821 C   0  0  0  0  0  0  0  0  0  0  0  0
   10.4239   -1.7677   22.2230 N   0  0  0  0  0  0  0  0  0  0  0  0
    9.9468   -4.5953   20.1709 C   0  0  0  0  0  0  0  0  0  0  0  0
   10.0366   -3.0590   23.9864 N   0  0  0  0  0  0  0  0  0  0  0  0
    7.1191   -7.3636   15.7739 C   0  0  0  0  0  0  0  0  0  0  0  0
    5.9612   -8.3203   17.2732 N   0  0  0  0  0  0  0  0  0  0  0  0
    8.5296   -5.9814   17.1841 C   0  0  0  0  0  0  0  0  0  0  0  0
    9.1527   -5.2118   16.2116 C   0  0  0  0  0  0  0  0  0  0  0  0
   10.3364   -3.8368   22.9255 O   0  0  0  0  0  0  0  0  0  0  0  0
    9.6947   -4.8407   18.8534 C   0  0  0  0  0  0  0  0  0  0  0  0
    9.1596    1.7042   24.1381 C   0  0  0  0  0  0  0  0  0  0  0  0
   11.0456   -2.9774   18.2694 N   0  0  0  0  0  0  0  0  0  0  0  0
   10.4788   -3.0457   21.8593 C   0  0  0  0  0  0  0  0  0  0  0  0
    8.8693   -5.8099   18.4657 N   0  0  0  0  0  0  0  0  0  0  0  0
    8.9892   -0.7926   25.4573 C   0  0  0  0  0  0  0  0  0  0  0  0
   10.5677   -3.4462   20.5323 C   0  0  0  0  0  0  0  0  0  0  0  0
  1  8  1  0
  1 12  4  0
  1 14  4  0
  2  3  4  0
  2 18  4  0
  3 20  4  0
  3 22  4  0
  4 11  4  0
  4 21  4  0
  5  9  4  0
  5 16  4  0
  6 15  4  0
  6 16  4  0
  7 22  4  0
  7 26  4  0
  8 10  4  0
  8 25  4  0
  9 15  4  0
  9 17  1  0
 10 21  4  0
 11 25  4  0
 12 23  4  0
 13 20  4  0
 13 26  4  0
 14 19  4  0
 17 18  4  0
 17 24  4  0
 19 23  4  0
 20 24  4  0
 23 26  1  0
M  END
$$$$

 Created by Python create_sdf_string function

 26 30  0  0  0  0  0  0  0  0999 V2000
   10.0084   -1.8019   23.4945 C   0  0  0  0  0  0  0  0  0  0  0  0
   10.0005   -4.2520   16.5631 C   0  0  0  0  0  0  0  0  0  0  0  0
   10.2759   -4.0036   17.8845 C   0  0  0  0  0  0  0  0  0  0  0  0
    8.5652    1.5478   25.3778 N   0  0  0  0  0  0  0  0  0  0  0  0
    6.8048   -7.5457   17.8752 C   0  0  0  0  0  0  0  0  0  0  0  0
    6.1721   -8.2186   15.9886 N   0  0  0  0  0  0  0  0  0  0  0  0
   11.1764   -2.6600   19.5604 C   0  0  0  0  0  0  0  0  0  0  0  0
    9.5491   -0.6380   24.1912 C   0  0  0  0  0  0  0  0  0  0  0  0
    7.5337   -6.9256   16.9519 C   0  0  0  0  0  0  0  0  0  0  0  0
    9.6782    0.5671   23.5143 C   0  0  0  0  0  0  0  0  0  0  0  0
    8.4532    0.3482   26.0821 C   0  0  0  0  0  0  0  0  0  0  0  0
   10.4239   -1.7677   22.2230 N   0  0  0  0  0  0  0  0  0  0  0  0
    9.9468   -4.5953   20.1709 C   0  0  0  0  0  0  0  0  0  0  0  0
   10.0366   -3.0590   23.9864 N   0  0  0  0  0  0  0  0  0  0  0  0
    7.1191   -7.3636   15.7739 C   0  0  0  0  0  0  0  0  0  0  0  0
    5.9612   -8.3203   17.2732 N   0  0  0  0  0  0  0  0  0  0  0  0
    8.5296   -5.9814   17.1841 C   0  0  0  0  0  0  0  0  0  0  0  0
    9.1527   -5.2118   16.2116 C   0  0  0  0  0  0  0  0  0  0  0  0
   10.3364   -3.8368   22.9255 O   0  0  0  0  0  0  0  0  0  0  0  0
    9.6947   -4.8407   18.8534 C   0  0  0  0  0  0  0  0  0  0  0  0
    9.1596    1.7042   24.1381 C   0  0  0  0  0  0  0  0  0  0  0  0
   11.0456   -2.9774   18.2694 N   0  0  0  0  0  0  0  0  0  0  0  0
   10.4788   -3.0457   21.8593 C   0  0  0  0  0  0  0  0  0  0  0  0
    8.8693   -5.8099   18.4657 N   0  0  0  0  0  0  0  0  0  0  0  0
    8.9892   -0.7926   25.4573 C   0  0  0  0  0  0  0  0  0  0  0  0
   10.5677   -3.4462   20.5323 C   0  0  0  0  0  0  0  0  0  0  0  0
  1  8  1  0
  1 12  4  0
  1 14  4  0
  2  3  4  0
  2 18  4  0
  3 20  4  0
  3 22  4  0
  4 11  4  0
  4 21  4  0
  5  9  4  0
  5 16  4  0
  6 15  4  0
  6 16  4  0
  7 22  4  0
  7 26  4  0
  8 10  4  0
  8 25  4  0
  9 15  4  0
  9 17  1  0
 10 21  4  0
 11 25  4  0
 12 23  4  0
 13 20  4  0
 13 26  4  0
 14 19  4  0
 17 18  4  0
 17 24  4  0
 19 23  4  0
 20 24  4  0
 23 26  1  0
M  END
$$$$

 Created by Python create_sdf_string function

 26 30  0  0  0  0  0  0  0  0999 V2000
   10.0084   -1.8019   23.4945 C   0  0  0  0  0  0  0  0  0  0  0  0
   10.0005   -4.2520   16.5631 C   0  0  0  0  0  0  0  0  0  0  0  0
   10.2759   -4.0036   17.8845 C   0  0  0  0  0  0  0  0  0  0  0  0
    8.5652    1.5478   25.3778 N   0  0  0  0  0  0  0  0  0  0  0  0
    6.8048   -7.5457   17.8752 C   0  0  0  0  0  0  0  0  0  0  0  0
    6.1721   -8.2186   15.9886 N   0  0  0  0  0  0  0  0  0  0  0  0
   11.1764   -2.6600   19.5604 C   0  0  0  0  0  0  0  0  0  0  0  0
    9.5491   -0.6380   24.1912 C   0  0  0  0  0  0  0  0  0  0  0  0
    7.5337   -6.9256   16.9519 C   0  0  0  0  0  0  0  0  0  0  0  0
    9.6782    0.5671   23.5143 C   0  0  0  0  0  0  0  0  0  0  0  0
    8.4532    0.3482   26.0821 C   0  0  0  0  0  0  0  0  0  0  0  0
   10.4239   -1.7677   22.2230 N   0  0  0  0  0  0  0  0  0  0  0  0
    9.9468   -4.5953   20.1709 C   0  0  0  0  0  0  0  0  0  0  0  0
   10.0366   -3.0590   23.9864 N   0  0  0  0  0  0  0  0  0  0  0  0
    7.1191   -7.3636   15.7739 C   0  0  0  0  0  0  0  0  0  0  0  0
    5.9612   -8.3203   17.2732 N   0  0  0  0  0  0  0  0  0  0  0  0
    8.5296   -5.9814   17.1841 C   0  0  0  0  0  0  0  0  0  0  0  0
    9.1527   -5.2118   16.2116 C   0  0  0  0  0  0  0  0  0  0  0  0
   10.3364   -3.8368   22.9255 O   0  0  0  0  0  0  0  0  0  0  0  0
    9.6947   -4.8407   18.8534 C   0  0  0  0  0  0  0  0  0  0  0  0
    9.1596    1.7042   24.1381 C   0  0  0  0  0  0  0  0  0  0  0  0
   11.0456   -2.9774   18.2694 N   0  0  0  0  0  0  0  0  0  0  0  0
   10.4788   -3.0457   21.8593 C   0  0  0  0  0  0  0  0  0  0  0  0
    8.8693   -5.8099   18.4657 N   0  0  0  0  0  0  0  0  0  0  0  0
    8.9892   -0.7926   25.4573 C   0  0  0  0  0  0  0  0  0  0  0  0
   10.5677   -3.4462   20.5323 C   0  0  0  0  0  0  0  0  0  0  0  0
  1  8  1  0
  1 12  4  0
  1 14  4  0
  2  3  4  0
  2 18  4  0
  3 20  4  0
  3 22  4  0
  4 11  4  0
  4 21  4  0
  5  9  4  0
  5 16  4  0
  6 15  4  0
  6 16  4  0
  7 22  4  0
  7 26  4  0
  8 10  4  0
  8 25  4  0
  9 15  4  0
  9 17  1  0
 10 21  4  0
 11 25  4  0
 12 23  4  0
 13 20  4  0
 13 26  4  0
 14 19  4  0
 17 18  4  0
 17 24  4  0
 19 23  4  0
 20 24  4  0
 23 26  1  0
M  END
$$$$

 Created by Python create_sdf_string function

 26 30  0  0  0  0  0  0  0  0999 V2000
   10.0084   -1.8019   23.4945 C   0  0  0  0  0  0  0  0  0  0  0  0
   10.0005   -4.2520   16.5631 C   0  0  0  0  0  0  0  0  0  0  0  0
   10.2759   -4.0036   17.8845 C   0  0  0  0  0  0  0  0  0  0  0  0
    8.5652    1.5478   25.3778 N   0  0  0  0  0  0  0  0  0  0  0  0
    6.8048   -7.5457   17.8752 C   0  0  0  0  0  0  0  0  0  0  0  0
    6.1721   -8.2186   15.9886 N   0  0  0  0  0  0  0  0  0  0  0  0
   11.1764   -2.6600   19.5604 C   0  0  0  0  0  0  0  0  0  0  0  0
    9.5491   -0.6380   24.1912 C   0  0  0  0  0  0  0  0  0  0  0  0
    7.5337   -6.9256   16.9519 C   0  0  0  0  0  0  0  0  0  0  0  0
    9.6782    0.5671   23.5143 C   0  0  0  0  0  0  0  0  0  0  0  0
    8.4532    0.3482   26.0821 C   0  0  0  0  0  0  0  0  0  0  0  0
   10.4239   -1.7677   22.2230 N   0  0  0  0  0  0  0  0  0  0  0  0
    9.9468   -4.5953   20.1709 C   0  0  0  0  0  0  0  0  0  0  0  0
   10.0366   -3.0590   23.9864 N   0  0  0  0  0  0  0  0  0  0  0  0
    7.1191   -7.3636   15.7739 C   0  0  0  0  0  0  0  0  0  0  0  0
    5.9612   -8.3203   17.2732 N   0  0  0  0  0  0  0  0  0  0  0  0
    8.5296   -5.9814   17.1841 C   0  0  0  0  0  0  0  0  0  0  0  0
    9.1527   -5.2118   16.2116 C   0  0  0  0  0  0  0  0  0  0  0  0
   10.3364   -3.8368   22.9255 O   0  0  0  0  0  0  0  0  0  0  0  0
    9.6947   -4.8407   18.8534 C   0  0  0  0  0  0  0  0  0  0  0  0
    9.1596    1.7042   24.1381 C   0  0  0  0  0  0  0  0  0  0  0  0
   11.0456   -2.9774   18.2694 N   0  0  0  0  0  0  0  0  0  0  0  0
   10.4788   -3.0457   21.8593 C   0  0  0  0  0  0  0  0  0  0  0  0
    8.8693   -5.8099   18.4657 N   0  0  0  0  0  0  0  0  0  0  0  0
    8.9892   -0.7926   25.4573 C   0  0  0  0  0  0  0  0  0  0  0  0
   10.5677   -3.4462   20.5323 C   0  0  0  0  0  0  0  0  0  0  0  0
  1  8  1  0
  1 12  4  0
  1 14  4  0
  2  3  4  0
  2 18  4  0
  3 20  4  0
  3 22  4  0
  4 11  4  0
  4 21  4  0
  5  9  4  0
  5 16  4  0
  6 15  4  0
  6 16  4  0
  7 22  4  0
  7 26  4  0
  8 10  4  0
  8 25  4  0
  9 15  4  0
  9 17  1  0
 10 21  4  0
 11 25  4  0
 12 23  4  0
 13 20  4  0
 13 26  4  0
 14 19  4  0
 17 18  4  0
 17 24  4  0
 19 23  4  0
 20 24  4  0
 23 26  1  0
M  END
$$$$

 Created by Python create_sdf_string function

 26 30  0  0  0  0  0  0  0  0999 V2000
   10.0084   -1.8019   23.4945 C   0  0  0  0  0  0  0  0  0  0  0  0
   10.0005   -4.2520   16.5631 C   0  0  0  0  0  0  0  0  0  0  0  0
   10.2759   -4.0036   17.8845 C   0  0  0  0  0  0  0  0  0  0  0  0
    8.5652    1.5478   25.3778 N   0  0  0  0  0  0  0  0  0  0  0  0
    6.8048   -7.5457   17.8752 C   0  0  0  0  0  0  0  0  0  0  0  0
    6.1721   -8.2186   15.9886 N   0  0  0  0  0  0  0  0  0  0  0  0
   11.1764   -2.6600   19.5604 C   0  0  0  0  0  0  0  0  0  0  0  0
    9.5491   -0.6380   24.1912 C   0  0  0  0  0  0  0  0  0  0  0  0
    7.5337   -6.9256   16.9519 C   0  0  0  0  0  0  0  0  0  0  0  0
    9.6782    0.5671   23.5143 C   0  0  0  0  0  0  0  0  0  0  0  0
    8.4532    0.3482   26.0821 C   0  0  0  0  0  0  0  0  0  0  0  0
   10.4239   -1.7677   22.2230 N   0  0  0  0  0  0  0  0  0  0  0  0
    9.9468   -4.5953   20.1709 C   0  0  0  0  0  0  0  0  0  0  0  0
   10.0366   -3.0590   23.9864 N   0  0  0  0  0  0  0  0  0  0  0  0
    7.1191   -7.3636   15.7739 C   0  0  0  0  0  0  0  0  0  0  0  0
    5.9612   -8.3203   17.2732 N   0  0  0  0  0  0  0  0  0  0  0  0
    8.5296   -5.9814   17.1841 C   0  0  0  0  0  0  0  0  0  0  0  0
    9.1527   -5.2118   16.2116 C   0  0  0  0  0  0  0  0  0  0  0  0
   10.3364   -3.8368   22.9255 O   0  0  0  0  0  0  0  0  0  0  0  0
    9.6947   -4.8407   18.8534 C   0  0  0  0  0  0  0  0  0  0  0  0
    9.1596    1.7042   24.1381 C   0  0  0  0  0  0  0  0  0  0  0  0
   11.0456   -2.9774   18.2694 N   0  0  0  0  0  0  0  0  0  0  0  0
   10.4788   -3.0457   21.8593 C   0  0  0  0  0  0  0  0  0  0  0  0
    8.8693   -5.8099   18.4657 N   0  0  0  0  0  0  0  0  0  0  0  0
    8.9892   -0.7926   25.4573 C   0  0  0  0  0  0  0  0  0  0  0  0
   10.5677   -3.4462   20.5323 C   0  0  0  0  0  0  0  0  0  0  0  0
  1  8  1  0
  1 12  4  0
  1 14  4  0
  2  3  4  0
  2 18  4  0
  3 20  4  0
  3 22  4  0
  4 11  4  0
  4 21  4  0
  5  9  4  0
  5 16  4  0
  6 15  4  0
  6 16  4  0
  7 22  4  0
  7 26  4  0
  8 10  4  0
  8 25  4  0
  9 15  4  0
  9 17  1  0
 10 21  4  0
 11 25  4  0
 12 23  4  0
 13 20  4  0
 13 26  4  0
 14 19  4  0
 17 18  4  0
 17 24  4  0
 19 23  4  0
 20 24  4  0
 23 26  1  0
M  END
$$$$

 Created by Python create_sdf_string function

 26 30  0  0  0  0  0  0  0  0999 V2000
   10.0084   -1.8019   23.4945 C   0  0  0  0  0  0  0  0  0  0  0  0
   10.0005   -4.2520   16.5631 C   0  0  0  0  0  0  0  0  0  0  0  0
   10.2759   -4.0036   17.8845 C   0  0  0  0  0  0  0  0  0  0  0  0
    8.5652    1.5478   25.3778 N   0  0  0  0  0  0  0  0  0  0  0  0
    6.8048   -7.5457   17.8752 C   0  0  0  0  0  0  0  0  0  0  0  0
    6.1721   -8.2186   15.9886 N   0  0  0  0  0  0  0  0  0  0  0  0
   11.1764   -2.6600   19.5604 C   0  0  0  0  0  0  0  0  0  0  0  0
    9.5491   -0.6380   24.1912 C   0  0  0  0  0  0  0  0  0  0  0  0
    7.5337   -6.9256   16.9519 C   0  0  0  0  0  0  0  0  0  0  0  0
    9.6782    0.5671   23.5143 C   0  0  0  0  0  0  0  0  0  0  0  0
    8.4532    0.3482   26.0821 C   0  0  0  0  0  0  0  0  0  0  0  0
   10.4239   -1.7677   22.2230 N   0  0  0  0  0  0  0  0  0  0  0  0
    9.9468   -4.5953   20.1709 C   0  0  0  0  0  0  0  0  0  0  0  0
   10.0366   -3.0590   23.9864 N   0  0  0  0  0  0  0  0  0  0  0  0
    7.1191   -7.3636   15.7739 C   0  0  0  0  0  0  0  0  0  0  0  0
    5.9612   -8.3203   17.2732 N   0  0  0  0  0  0  0  0  0  0  0  0
    8.5296   -5.9814   17.1841 C   0  0  0  0  0  0  0  0  0  0  0  0
    9.1527   -5.2118   16.2116 C   0  0  0  0  0  0  0  0  0  0  0  0
   10.3364   -3.8368   22.9255 O   0  0  0  0  0  0  0  0  0  0  0  0
    9.6947   -4.8407   18.8534 C   0  0  0  0  0  0  0  0  0  0  0  0
    9.1596    1.7042   24.1381 C   0  0  0  0  0  0  0  0  0  0  0  0
   11.0456   -2.9774   18.2694 N   0  0  0  0  0  0  0  0  0  0  0  0
   10.4788   -3.0457   21.8593 C   0  0  0  0  0  0  0  0  0  0  0  0
    8.8693   -5.8099   18.4657 N   0  0  0  0  0  0  0  0  0  0  0  0
    8.9892   -0.7926   25.4573 C   0  0  0  0  0  0  0  0  0  0  0  0
   10.5677   -3.4462   20.5323 C   0  0  0  0  0  0  0  0  0  0  0  0
  1  8  1  0
  1 12  4  0
  1 14  4  0
  2  3  4  0
  2 18  4  0
  3 20  4  0
  3 22  4  0
  4 11  4  0
  4 21  4  0
  5  9  4  0
  5 16  4  0
  6 15  4  0
  6 16  4  0
  7 22  4  0
  7 26  4  0
  8 10  4  0
  8 25  4  0
  9 15  4  0
  9 17  1  0
 10 21  4  0
 11 25  4  0
 12 23  4  0
 13 20  4  0
 13 26  4  0
 14 19  4  0
 17 18  4  0
 17 24  4  0
 19 23  4  0
 20 24  4  0
 23 26  1  0
M  END
$$$$

 Created by Python create_sdf_string function

 26 30  0  0  0  0  0  0  0  0999 V2000
   10.0084   -1.8019   23.4945 C   0  0  0  0  0  0  0  0  0  0  0  0
   10.0005   -4.2520   16.5631 C   0  0  0  0  0  0  0  0  0  0  0  0
   10.2759   -4.0036   17.8845 C   0  0  0  0  0  0  0  0  0  0  0  0
    8.5652    1.5478   25.3778 N   0  0  0  0  0  0  0  0  0  0  0  0
    6.8048   -7.5457   17.8752 C   0  0  0  0  0  0  0  0  0  0  0  0
    6.1721   -8.2186   15.9886 N   0  0  0  0  0  0  0  0  0  0  0  0
   11.1764   -2.6600   19.5604 C   0  0  0  0  0  0  0  0  0  0  0  0
    9.5491   -0.6380   24.1912 C   0  0  0  0  0  0  0  0  0  0  0  0
    7.5337   -6.9256   16.9519 C   0  0  0  0  0  0  0  0  0  0  0  0
    9.6782    0.5671   23.5143 C   0  0  0  0  0  0  0  0  0  0  0  0
    8.4532    0.3482   26.0821 C   0  0  0  0  0  0  0  0  0  0  0  0
   10.4239   -1.7677   22.2230 N   0  0  0  0  0  0  0  0  0  0  0  0
    9.9468   -4.5953   20.1709 C   0  0  0  0  0  0  0  0  0  0  0  0
   10.0366   -3.0590   23.9864 N   0  0  0  0  0  0  0  0  0  0  0  0
    7.1191   -7.3636   15.7739 C   0  0  0  0  0  0  0  0  0  0  0  0
    5.9612   -8.3203   17.2732 N   0  0  0  0  0  0  0  0  0  0  0  0
    8.5296   -5.9814   17.1841 C   0  0  0  0  0  0  0  0  0  0  0  0
    9.1527   -5.2118   16.2116 C   0  0  0  0  0  0  0  0  0  0  0  0
   10.3364   -3.8368   22.9255 O   0  0  0  0  0  0  0  0  0  0  0  0
    9.6947   -4.8407   18.8534 C   0  0  0  0  0  0  0  0  0  0  0  0
    9.1596    1.7042   24.1381 C   0  0  0  0  0  0  0  0  0  0  0  0
   11.0456   -2.9774   18.2694 N   0  0  0  0  0  0  0  0  0  0  0  0
   10.4788   -3.0457   21.8593 C   0  0  0  0  0  0  0  0  0  0  0  0
    8.8693   -5.8099   18.4657 N   0  0  0  0  0  0  0  0  0  0  0  0
    8.9892   -0.7926   25.4573 C   0  0  0  0  0  0  0  0  0  0  0  0
   10.5677   -3.4462   20.5323 C   0  0  0  0  0  0  0  0  0  0  0  0
  1  8  1  0
  1 12  4  0
  1 14  4  0
  2  3  4  0
  2 18  4  0
  3 20  4  0
  3 22  4  0
  4 11  4  0
  4 21  4  0
  5  9  4  0
  5 16  4  0
  6 15  4  0
  6 16  4  0
  7 22  4  0
  7 26  4  0
  8 10  4  0
  8 25  4  0
  9 15  4  0
  9 17  1  0
 10 21  4  0
 11 25  4  0
 12 23  4  0
 13 20  4  0
 13 26  4  0
 14 19  4  0
 17 18  4  0
 17 24  4  0
 19 23  4  0
 20 24  4  0
 23 26  1  0
M  END
$$$$

 Created by Python create_sdf_string function

 26 30  0  0  0  0  0  0  0  0999 V2000
   10.0084   -1.8019   23.4945 C   0  0  0  0  0  0  0  0  0  0  0  0
   10.0005   -4.2520   16.5631 C   0  0  0  0  0  0  0  0  0  0  0  0
   10.2759   -4.0036   17.8845 C   0  0  0  0  0  0  0  0  0  0  0  0
    8.5652    1.5478   25.3778 N   0  0  0  0  0  0  0  0  0  0  0  0
    6.8048   -7.5457   17.8752 C   0  0  0  0  0  0  0  0  0  0  0  0
    6.1721   -8.2186   15.9886 N   0  0  0  0  0  0  0  0  0  0  0  0
   11.1764   -2.6600   19.5604 C   0  0  0  0  0  0  0  0  0  0  0  0
    9.5491   -0.6380   24.1912 C   0  0  0  0  0  0  0  0  0  0  0  0
    7.5337   -6.9256   16.9519 C   0  0  0  0  0  0  0  0  0  0  0  0
    9.6782    0.5671   23.5143 C   0  0  0  0  0  0  0  0  0  0  0  0
    8.4532    0.3482   26.0821 C   0  0  0  0  0  0  0  0  0  0  0  0
   10.4239   -1.7677   22.2230 N   0  0  0  0  0  0  0  0  0  0  0  0
    9.9468   -4.5953   20.1709 C   0  0  0  0  0  0  0  0  0  0  0  0
   10.0366   -3.0590   23.9864 N   0  0  0  0  0  0  0  0  0  0  0  0
    7.1191   -7.3636   15.7739 C   0  0  0  0  0  0  0  0  0  0  0  0
    5.9612   -8.3203   17.2732 N   0  0  0  0  0  0  0  0  0  0  0  0
    8.5296   -5.9814   17.1841 C   0  0  0  0  0  0  0  0  0  0  0  0
    9.1527   -5.2118   16.2116 C   0  0  0  0  0  0  0  0  0  0  0  0
   10.3364   -3.8368   22.9255 O   0  0  0  0  0  0  0  0  0  0  0  0
    9.6947   -4.8407   18.8534 C   0  0  0  0  0  0  0  0  0  0  0  0
    9.1596    1.7042   24.1381 C   0  0  0  0  0  0  0  0  0  0  0  0
   11.0456   -2.9774   18.2694 N   0  0  0  0  0  0  0  0  0  0  0  0
   10.4788   -3.0457   21.8593 C   0  0  0  0  0  0  0  0  0  0  0  0
    8.8693   -5.8099   18.4657 N   0  0  0  0  0  0  0  0  0  0  0  0
    8.9892   -0.7926   25.4573 C   0  0  0  0  0  0  0  0  0  0  0  0
   10.5677   -3.4462   20.5323 C   0  0  0  0  0  0  0  0  0  0  0  0
  1  8  1  0
  1 12  4  0
  1 14  4  0
  2  3  4  0
  2 18  4  0
  3 20  4  0
  3 22  4  0
  4 11  4  0
  4 21  4  0
  5  9  4  0
  5 16  4  0
  6 15  4  0
  6 16  4  0
  7 22  4  0
  7 26  4  0
  8 10  4  0
  8 25  4  0
  9 15  4  0
  9 17  1  0
 10 21  4  0
 11 25  4  0
 12 23  4  0
 13 20  4  0
 13 26  4  0
 14 19  4  0
 17 18  4  0
 17 24  4  0
 19 23  4  0
 20 24  4  0
 23 26  1  0
M  END
$$$$

 Created by Python create_sdf_string function

 26 30  0  0  0  0  0  0  0  0999 V2000
   10.0084   -1.8019   23.4945 C   0  0  0  0  0  0  0  0  0  0  0  0
   10.0005   -4.2520   16.5631 C   0  0  0  0  0  0  0  0  0  0  0  0
   10.2759   -4.0036   17.8845 C   0  0  0  0  0  0  0  0  0  0  0  0
    8.5652    1.5478   25.3778 N   0  0  0  0  0  0  0  0  0  0  0  0
    6.8048   -7.5457   17.8752 C   0  0  0  0  0  0  0  0  0  0  0  0
    6.1721   -8.2186   15.9886 N   0  0  0  0  0  0  0  0  0  0  0  0
   11.1764   -2.6600   19.5604 C   0  0  0  0  0  0  0  0  0  0  0  0
    9.5491   -0.6380   24.1912 C   0  0  0  0  0  0  0  0  0  0  0  0
    7.5337   -6.9256   16.9519 C   0  0  0  0  0  0  0  0  0  0  0  0
    9.6782    0.5671   23.5143 C   0  0  0  0  0  0  0  0  0  0  0  0
    8.4532    0.3482   26.0821 C   0  0  0  0  0  0  0  0  0  0  0  0
   10.4239   -1.7677   22.2230 N   0  0  0  0  0  0  0  0  0  0  0  0
    9.9468   -4.5953   20.1709 C   0  0  0  0  0  0  0  0  0  0  0  0
   10.0366   -3.0590   23.9864 N   0  0  0  0  0  0  0  0  0  0  0  0
    7.1191   -7.3636   15.7739 C   0  0  0  0  0  0  0  0  0  0  0  0
    5.9612   -8.3203   17.2732 N   0  0  0  0  0  0  0  0  0  0  0  0
    8.5296   -5.9814   17.1841 C   0  0  0  0  0  0  0  0  0  0  0  0
    9.1527   -5.2118   16.2116 C   0  0  0  0  0  0  0  0  0  0  0  0
   10.3364   -3.8368   22.9255 O   0  0  0  0  0  0  0  0  0  0  0  0
    9.6947   -4.8407   18.8534 C   0  0  0  0  0  0  0  0  0  0  0  0
    9.1596    1.7042   24.1381 C   0  0  0  0  0  0  0  0  0  0  0  0
   11.0456   -2.9774   18.2694 N   0  0  0  0  0  0  0  0  0  0  0  0
   10.4788   -3.0457   21.8593 C   0  0  0  0  0  0  0  0  0  0  0  0
    8.8693   -5.8099   18.4657 N   0  0  0  0  0  0  0  0  0  0  0  0
    8.9892   -0.7926   25.4573 C   0  0  0  0  0  0  0  0  0  0  0  0
   10.5677   -3.4462   20.5323 C   0  0  0  0  0  0  0  0  0  0  0  0
  1  8  1  0
  1 12  4  0
  1 14  4  0
  2  3  4  0
  2 18  4  0
  3 20  4  0
  3 22  4  0
  4 11  4  0
  4 21  4  0
  5  9  4  0
  5 16  4  0
  6 15  4  0
  6 16  4  0
  7 22  4  0
  7 26  4  0
  8 10  4  0
  8 25  4  0
  9 15  4  0
  9 17  1  0
 10 21  4  0
 11 25  4  0
 12 23  4  0
 13 20  4  0
 13 26  4  0
 14 19  4  0
 17 18  4  0
 17 24  4  0
 19 23  4  0
 20 24  4  0
 23 26  1  0
M  END
$$$$

 Created by Python create_sdf_string function

 26 30  0  0  0  0  0  0  0  0999 V2000
   10.0084   -1.8019   23.4945 C   0  0  0  0  0  0  0  0  0  0  0  0
   10.0005   -4.2520   16.5631 C   0  0  0  0  0  0  0  0  0  0  0  0
   10.2759   -4.0036   17.8845 C   0  0  0  0  0  0  0  0  0  0  0  0
    8.5652    1.5478   25.3778 N   0  0  0  0  0  0  0  0  0  0  0  0
    6.8048   -7.5457   17.8752 C   0  0  0  0  0  0  0  0  0  0  0  0
    6.1721   -8.2186   15.9886 N   0  0  0  0  0  0  0  0  0  0  0  0
   11.1764   -2.6600   19.5604 C   0  0  0  0  0  0  0  0  0  0  0  0
    9.5491   -0.6380   24.1912 C   0  0  0  0  0  0  0  0  0  0  0  0
    7.5337   -6.9256   16.9519 C   0  0  0  0  0  0  0  0  0  0  0  0
    9.6782    0.5671   23.5143 C   0  0  0  0  0  0  0  0  0  0  0  0
    8.4532    0.3482   26.0821 C   0  0  0  0  0  0  0  0  0  0  0  0
   10.4239   -1.7677   22.2230 N   0  0  0  0  0  0  0  0  0  0  0  0
    9.9468   -4.5953   20.1709 C   0  0  0  0  0  0  0  0  0  0  0  0
   10.0366   -3.0590   23.9864 N   0  0  0  0  0  0  0  0  0  0  0  0
    7.1191   -7.3636   15.7739 C   0  0  0  0  0  0  0  0  0  0  0  0
    5.9612   -8.3203   17.2732 N   0  0  0  0  0  0  0  0  0  0  0  0
    8.5296   -5.9814   17.1841 C   0  0  0  0  0  0  0  0  0  0  0  0
    9.1527   -5.2118   16.2116 C   0  0  0  0  0  0  0  0  0  0  0  0
   10.3364   -3.8368   22.9255 O   0  0  0  0  0  0  0  0  0  0  0  0
    9.6947   -4.8407   18.8534 C   0  0  0  0  0  0  0  0  0  0  0  0
    9.1596    1.7042   24.1381 C   0  0  0  0  0  0  0  0  0  0  0  0
   11.0456   -2.9774   18.2694 N   0  0  0  0  0  0  0  0  0  0  0  0
   10.4788   -3.0457   21.8593 C   0  0  0  0  0  0  0  0  0  0  0  0
    8.8693   -5.8099   18.4657 N   0  0  0  0  0  0  0  0  0  0  0  0
    8.9892   -0.7926   25.4573 C   0  0  0  0  0  0  0  0  0  0  0  0
   10.5677   -3.4462   20.5323 C   0  0  0  0  0  0  0  0  0  0  0  0
  1  8  1  0
  1 12  4  0
  1 14  4  0
  2  3  4  0
  2 18  4  0
  3 20  4  0
  3 22  4  0
  4 11  4  0
  4 21  4  0
  5  9  4  0
  5 16  4  0
  6 15  4  0
  6 16  4  0
  7 22  4  0
  7 26  4  0
  8 10  4  0
  8 25  4  0
  9 15  4  0
  9 17  1  0
 10 21  4  0
 11 25  4  0
 12 23  4  0
 13 20  4  0
 13 26  4  0
 14 19  4  0
 17 18  4  0
 17 24  4  0
 19 23  4  0
 20 24  4  0
 23 26  1  0
M  END
$$$$

 Created by Python create_sdf_string function

 26 30  0  0  0  0  0  0  0  0999 V2000
   10.0084   -1.8019   23.4945 C   0  0  0  0  0  0  0  0  0  0  0  0
   10.0005   -4.2520   16.5631 C   0  0  0  0  0  0  0  0  0  0  0  0
   10.2759   -4.0036   17.8845 C   0  0  0  0  0  0  0  0  0  0  0  0
    8.5652    1.5478   25.3778 N   0  0  0  0  0  0  0  0  0  0  0  0
    6.8048   -7.5457   17.8752 C   0  0  0  0  0  0  0  0  0  0  0  0
    6.1721   -8.2186   15.9886 N   0  0  0  0  0  0  0  0  0  0  0  0
   11.1764   -2.6600   19.5604 C   0  0  0  0  0  0  0  0  0  0  0  0
    9.5491   -0.6380   24.1912 C   0  0  0  0  0  0  0  0  0  0  0  0
    7.5337   -6.9256   16.9519 C   0  0  0  0  0  0  0  0  0  0  0  0
    9.6782    0.5671   23.5143 C   0  0  0  0  0  0  0  0  0  0  0  0
    8.4532    0.3482   26.0821 C   0  0  0  0  0  0  0  0  0  0  0  0
   10.4239   -1.7677   22.2230 N   0  0  0  0  0  0  0  0  0  0  0  0
    9.9468   -4.5953   20.1709 C   0  0  0  0  0  0  0  0  0  0  0  0
   10.0366   -3.0590   23.9864 N   0  0  0  0  0  0  0  0  0  0  0  0
    7.1191   -7.3636   15.7739 C   0  0  0  0  0  0  0  0  0  0  0  0
    5.9612   -8.3203   17.2732 N   0  0  0  0  0  0  0  0  0  0  0  0
    8.5296   -5.9814   17.1841 C   0  0  0  0  0  0  0  0  0  0  0  0
    9.1527   -5.2118   16.2116 C   0  0  0  0  0  0  0  0  0  0  0  0
   10.3364   -3.8368   22.9255 O   0  0  0  0  0  0  0  0  0  0  0  0
    9.6947   -4.8407   18.8534 C   0  0  0  0  0  0  0  0  0  0  0  0
    9.1596    1.7042   24.1381 C   0  0  0  0  0  0  0  0  0  0  0  0
   11.0456   -2.9774   18.2694 N   0  0  0  0  0  0  0  0  0  0  0  0
   10.4788   -3.0457   21.8593 C   0  0  0  0  0  0  0  0  0  0  0  0
    8.8693   -5.8099   18.4657 N   0  0  0  0  0  0  0  0  0  0  0  0
    8.9892   -0.7926   25.4573 C   0  0  0  0  0  0  0  0  0  0  0  0
   10.5677   -3.4462   20.5323 C   0  0  0  0  0  0  0  0  0  0  0  0
  1  8  1  0
  1 12  4  0
  1 14  4  0
  2  3  4  0
  2 18  4  0
  3 20  4  0
  3 22  4  0
  4 11  4  0
  4 21  4  0
  5  9  4  0
  5 16  4  0
  6 15  4  0
  6 16  4  0
  7 22  4  0
  7 26  4  0
  8 10  4  0
  8 25  4  0
  9 15  4  0
  9 17  1  0
 10 21  4  0
 11 25  4  0
 12 23  4  0
 13 20  4  0
 13 26  4  0
 14 19  4  0
 17 18  4  0
 17 24  4  0
 19 23  4  0
 20 24  4  0
 23 26  1  0
M  END
$$$$

 Created by Python create_sdf_string function

 26 30  0  0  0  0  0  0  0  0999 V2000
   10.0084   -1.8019   23.4945 C   0  0  0  0  0  0  0  0  0  0  0  0
   10.0005   -4.2520   16.5631 C   0  0  0  0  0  0  0  0  0  0  0  0
   10.2759   -4.0036   17.8845 C   0  0  0  0  0  0  0  0  0  0  0  0
    8.5652    1.5478   25.3778 N   0  0  0  0  0  0  0  0  0  0  0  0
    6.8048   -7.5457   17.8752 C   0  0  0  0  0  0  0  0  0  0  0  0
    6.1721   -8.2186   15.9886 N   0  0  0  0  0  0  0  0  0  0  0  0
   11.1764   -2.6600   19.5604 C   0  0  0  0  0  0  0  0  0  0  0  0
    9.5491   -0.6380   24.1912 C   0  0  0  0  0  0  0  0  0  0  0  0
    7.5337   -6.9256   16.9519 C   0  0  0  0  0  0  0  0  0  0  0  0
    9.6782    0.5671   23.5143 C   0  0  0  0  0  0  0  0  0  0  0  0
    8.4532    0.3482   26.0821 C   0  0  0  0  0  0  0  0  0  0  0  0
   10.4239   -1.7677   22.2230 N   0  0  0  0  0  0  0  0  0  0  0  0
    9.9468   -4.5953   20.1709 C   0  0  0  0  0  0  0  0  0  0  0  0
   10.0366   -3.0590   23.9864 N   0  0  0  0  0  0  0  0  0  0  0  0
    7.1191   -7.3636   15.7739 C   0  0  0  0  0  0  0  0  0  0  0  0
    5.9612   -8.3203   17.2732 N   0  0  0  0  0  0  0  0  0  0  0  0
    8.5296   -5.9814   17.1841 C   0  0  0  0  0  0  0  0  0  0  0  0
    9.1527   -5.2118   16.2116 C   0  0  0  0  0  0  0  0  0  0  0  0
   10.3364   -3.8368   22.9255 O   0  0  0  0  0  0  0  0  0  0  0  0
    9.6947   -4.8407   18.8534 C   0  0  0  0  0  0  0  0  0  0  0  0
    9.1596    1.7042   24.1381 C   0  0  0  0  0  0  0  0  0  0  0  0
   11.0456   -2.9774   18.2694 N   0  0  0  0  0  0  0  0  0  0  0  0
   10.4788   -3.0457   21.8593 C   0  0  0  0  0  0  0  0  0  0  0  0
    8.8693   -5.8099   18.4657 N   0  0  0  0  0  0  0  0  0  0  0  0
    8.9892   -0.7926   25.4573 C   0  0  0  0  0  0  0  0  0  0  0  0
   10.5677   -3.4462   20.5323 C   0  0  0  0  0  0  0  0  0  0  0  0
  1  8  1  0
  1 12  4  0
  1 14  4  0
  2  3  4  0
  2 18  4  0
  3 20  4  0
  3 22  4  0
  4 11  4  0
  4 21  4  0
  5  9  4  0
  5 16  4  0
  6 15  4  0
  6 16  4  0
  7 22  4  0
  7 26  4  0
  8 10  4  0
  8 25  4  0
  9 15  4  0
  9 17  1  0
 10 21  4  0
 11 25  4  0
 12 23  4  0
 13 20  4  0
 13 26  4  0
 14 19  4  0
 17 18  4  0
 17 24  4  0
 19 23  4  0
 20 24  4  0
 23 26  1  0
M  END
$$$$

 Created by Python create_sdf_string function

 26 30  0  0  0  0  0  0  0  0999 V2000
   10.0084   -1.8019   23.4945 C   0  0  0  0  0  0  0  0  0  0  0  0
   10.0005   -4.2520   16.5631 C   0  0  0  0  0  0  0  0  0  0  0  0
   10.2759   -4.0036   17.8845 C   0  0  0  0  0  0  0  0  0  0  0  0
    8.5652    1.5478   25.3778 N   0  0  0  0  0  0  0  0  0  0  0  0
    6.8048   -7.5457   17.8752 C   0  0  0  0  0  0  0  0  0  0  0  0
    6.1721   -8.2186   15.9886 N   0  0  0  0  0  0  0  0  0  0  0  0
   11.1764   -2.6600   19.5604 C   0  0  0  0  0  0  0  0  0  0  0  0
    9.5491   -0.6380   24.1912 C   0  0  0  0  0  0  0  0  0  0  0  0
    7.5337   -6.9256   16.9519 C   0  0  0  0  0  0  0  0  0  0  0  0
    9.6782    0.5671   23.5143 C   0  0  0  0  0  0  0  0  0  0  0  0
    8.4532    0.3482   26.0821 C   0  0  0  0  0  0  0  0  0  0  0  0
   10.4239   -1.7677   22.2230 N   0  0  0  0  0  0  0  0  0  0  0  0
    9.9468   -4.5953   20.1709 C   0  0  0  0  0  0  0  0  0  0  0  0
   10.0366   -3.0590   23.9864 N   0  0  0  0  0  0  0  0  0  0  0  0
    7.1191   -7.3636   15.7739 C   0  0  0  0  0  0  0  0  0  0  0  0
    5.9612   -8.3203   17.2732 N   0  0  0  0  0  0  0  0  0  0  0  0
    8.5296   -5.9814   17.1841 C   0  0  0  0  0  0  0  0  0  0  0  0
    9.1527   -5.2118   16.2116 C   0  0  0  0  0  0  0  0  0  0  0  0
   10.3364   -3.8368   22.9255 O   0  0  0  0  0  0  0  0  0  0  0  0
    9.6947   -4.8407   18.8534 C   0  0  0  0  0  0  0  0  0  0  0  0
    9.1596    1.7042   24.1381 C   0  0  0  0  0  0  0  0  0  0  0  0
   11.0456   -2.9774   18.2694 N   0  0  0  0  0  0  0  0  0  0  0  0
   10.4788   -3.0457   21.8593 C   0  0  0  0  0  0  0  0  0  0  0  0
    8.8693   -5.8099   18.4657 N   0  0  0  0  0  0  0  0  0  0  0  0
    8.9892   -0.7926   25.4573 C   0  0  0  0  0  0  0  0  0  0  0  0
   10.5677   -3.4462   20.5323 C   0  0  0  0  0  0  0  0  0  0  0  0
  1  8  1  0
  1 12  4  0
  1 14  4  0
  2  3  4  0
  2 18  4  0
  3 20  4  0
  3 22  4  0
  4 11  4  0
  4 21  4  0
  5  9  4  0
  5 16  4  0
  6 15  4  0
  6 16  4  0
  7 22  4  0
  7 26  4  0
  8 10  4  0
  8 25  4  0
  9 15  4  0
  9 17  1  0
 10 21  4  0
 11 25  4  0
 12 23  4  0
 13 20  4  0
 13 26  4  0
 14 19  4  0
 17 18  4  0
 17 24  4  0
 19 23  4  0
 20 24  4  0
 23 26  1  0
M  END
$$$$

 Created by Python create_sdf_string function

 26 30  0  0  0  0  0  0  0  0999 V2000
   10.0084   -1.8019   23.4945 C   0  0  0  0  0  0  0  0  0  0  0  0
   10.0005   -4.2520   16.5631 C   0  0  0  0  0  0  0  0  0  0  0  0
   10.2759   -4.0036   17.8845 C   0  0  0  0  0  0  0  0  0  0  0  0
    8.5652    1.5478   25.3778 N   0  0  0  0  0  0  0  0  0  0  0  0
    6.8048   -7.5457   17.8752 C   0  0  0  0  0  0  0  0  0  0  0  0
    6.1721   -8.2186   15.9886 N   0  0  0  0  0  0  0  0  0  0  0  0
   11.1764   -2.6600   19.5604 C   0  0  0  0  0  0  0  0  0  0  0  0
    9.5491   -0.6380   24.1912 C   0  0  0  0  0  0  0  0  0  0  0  0
    7.5337   -6.9256   16.9519 C   0  0  0  0  0  0  0  0  0  0  0  0
    9.6782    0.5671   23.5143 C   0  0  0  0  0  0  0  0  0  0  0  0
    8.4532    0.3482   26.0821 C   0  0  0  0  0  0  0  0  0  0  0  0
   10.4239   -1.7677   22.2230 N   0  0  0  0  0  0  0  0  0  0  0  0
    9.9468   -4.5953   20.1709 C   0  0  0  0  0  0  0  0  0  0  0  0
   10.0366   -3.0590   23.9864 N   0  0  0  0  0  0  0  0  0  0  0  0
    7.1191   -7.3636   15.7739 C   0  0  0  0  0  0  0  0  0  0  0  0
    5.9612   -8.3203   17.2732 N   0  0  0  0  0  0  0  0  0  0  0  0
    8.5296   -5.9814   17.1841 C   0  0  0  0  0  0  0  0  0  0  0  0
    9.1527   -5.2118   16.2116 C   0  0  0  0  0  0  0  0  0  0  0  0
   10.3364   -3.8368   22.9255 O   0  0  0  0  0  0  0  0  0  0  0  0
    9.6947   -4.8407   18.8534 C   0  0  0  0  0  0  0  0  0  0  0  0
    9.1596    1.7042   24.1381 C   0  0  0  0  0  0  0  0  0  0  0  0
   11.0456   -2.9774   18.2694 N   0  0  0  0  0  0  0  0  0  0  0  0
   10.4788   -3.0457   21.8593 C   0  0  0  0  0  0  0  0  0  0  0  0
    8.8693   -5.8099   18.4657 N   0  0  0  0  0  0  0  0  0  0  0  0
    8.9892   -0.7926   25.4573 C   0  0  0  0  0  0  0  0  0  0  0  0
   10.5677   -3.4462   20.5323 C   0  0  0  0  0  0  0  0  0  0  0  0
  1  8  1  0
  1 12  4  0
  1 14  4  0
  2  3  4  0
  2 18  4  0
  3 20  4  0
  3 22  4  0
  4 11  4  0
  4 21  4  0
  5  9  4  0
  5 16  4  0
  6 15  4  0
  6 16  4  0
  7 22  4  0
  7 26  4  0
  8 10  4  0
  8 25  4  0
  9 15  4  0
  9 17  1  0
 10 21  4  0
 11 25  4  0
 12 23  4  0
 13 20  4  0
 13 26  4  0
 14 19  4  0
 17 18  4  0
 17 24  4  0
 19 23  4  0
 20 24  4  0
 23 26  1  0
M  END
$$$$

 Created by Python create_sdf_string function

 26 30  0  0  0  0  0  0  0  0999 V2000
   10.0084   -1.8019   23.4945 C   0  0  0  0  0  0  0  0  0  0  0  0
   10.0005   -4.2520   16.5631 C   0  0  0  0  0  0  0  0  0  0  0  0
   10.2759   -4.0036   17.8845 C   0  0  0  0  0  0  0  0  0  0  0  0
    8.5652    1.5478   25.3778 N   0  0  0  0  0  0  0  0  0  0  0  0
    6.8048   -7.5457   17.8752 C   0  0  0  0  0  0  0  0  0  0  0  0
    6.1721   -8.2186   15.9886 N   0  0  0  0  0  0  0  0  0  0  0  0
   11.1764   -2.6600   19.5604 C   0  0  0  0  0  0  0  0  0  0  0  0
    9.5491   -0.6380   24.1912 C   0  0  0  0  0  0  0  0  0  0  0  0
    7.5337   -6.9256   16.9519 C   0  0  0  0  0  0  0  0  0  0  0  0
    9.6782    0.5671   23.5143 C   0  0  0  0  0  0  0  0  0  0  0  0
    8.4532    0.3482   26.0821 C   0  0  0  0  0  0  0  0  0  0  0  0
   10.4239   -1.7677   22.2230 N   0  0  0  0  0  0  0  0  0  0  0  0
    9.9468   -4.5953   20.1709 C   0  0  0  0  0  0  0  0  0  0  0  0
   10.0366   -3.0590   23.9864 N   0  0  0  0  0  0  0  0  0  0  0  0
    7.1191   -7.3636   15.7739 C   0  0  0  0  0  0  0  0  0  0  0  0
    5.9612   -8.3203   17.2732 N   0  0  0  0  0  0  0  0  0  0  0  0
    8.5296   -5.9814   17.1841 C   0  0  0  0  0  0  0  0  0  0  0  0
    9.1527   -5.2118   16.2116 C   0  0  0  0  0  0  0  0  0  0  0  0
   10.3364   -3.8368   22.9255 O   0  0  0  0  0  0  0  0  0  0  0  0
    9.6947   -4.8407   18.8534 C   0  0  0  0  0  0  0  0  0  0  0  0
    9.1596    1.7042   24.1381 C   0  0  0  0  0  0  0  0  0  0  0  0
   11.0456   -2.9774   18.2694 N   0  0  0  0  0  0  0  0  0  0  0  0
   10.4788   -3.0457   21.8593 C   0  0  0  0  0  0  0  0  0  0  0  0
    8.8693   -5.8099   18.4657 N   0  0  0  0  0  0  0  0  0  0  0  0
    8.9892   -0.7926   25.4573 C   0  0  0  0  0  0  0  0  0  0  0  0
   10.5677   -3.4462   20.5323 C   0  0  0  0  0  0  0  0  0  0  0  0
  1  8  1  0
  1 12  4  0
  1 14  4  0
  2  3  4  0
  2 18  4  0
  3 20  4  0
  3 22  4  0
  4 11  4  0
  4 21  4  0
  5  9  4  0
  5 16  4  0
  6 15  4  0
  6 16  4  0
  7 22  4  0
  7 26  4  0
  8 10  4  0
  8 25  4  0
  9 15  4  0
  9 17  1  0
 10 21  4  0
 11 25  4  0
 12 23  4  0
 13 20  4  0
 13 26  4  0
 14 19  4  0
 17 18  4  0
 17 24  4  0
 19 23  4  0
 20 24  4  0
 23 26  1  0
M  END
$$$$

 Created by Python create_sdf_string function

 26 30  0  0  0  0  0  0  0  0999 V2000
   10.0084   -1.8019   23.4945 C   0  0  0  0  0  0  0  0  0  0  0  0
   10.0005   -4.2520   16.5631 C   0  0  0  0  0  0  0  0  0  0  0  0
   10.2759   -4.0036   17.8845 C   0  0  0  0  0  0  0  0  0  0  0  0
    8.5652    1.5478   25.3778 N   0  0  0  0  0  0  0  0  0  0  0  0
    6.8048   -7.5457   17.8752 C   0  0  0  0  0  0  0  0  0  0  0  0
    6.1721   -8.2186   15.9886 N   0  0  0  0  0  0  0  0  0  0  0  0
   11.1764   -2.6600   19.5604 C   0  0  0  0  0  0  0  0  0  0  0  0
    9.5491   -0.6380   24.1912 C   0  0  0  0  0  0  0  0  0  0  0  0
    7.5337   -6.9256   16.9519 C   0  0  0  0  0  0  0  0  0  0  0  0
    9.6782    0.5671   23.5143 C   0  0  0  0  0  0  0  0  0  0  0  0
    8.4532    0.3482   26.0821 C   0  0  0  0  0  0  0  0  0  0  0  0
   10.4239   -1.7677   22.2230 N   0  0  0  0  0  0  0  0  0  0  0  0
    9.9468   -4.5953   20.1709 C   0  0  0  0  0  0  0  0  0  0  0  0
   10.0366   -3.0590   23.9864 N   0  0  0  0  0  0  0  0  0  0  0  0
    7.1191   -7.3636   15.7739 C   0  0  0  0  0  0  0  0  0  0  0  0
    5.9612   -8.3203   17.2732 N   0  0  0  0  0  0  0  0  0  0  0  0
    8.5296   -5.9814   17.1841 C   0  0  0  0  0  0  0  0  0  0  0  0
    9.1527   -5.2118   16.2116 C   0  0  0  0  0  0  0  0  0  0  0  0
   10.3364   -3.8368   22.9255 O   0  0  0  0  0  0  0  0  0  0  0  0
    9.6947   -4.8407   18.8534 C   0  0  0  0  0  0  0  0  0  0  0  0
    9.1596    1.7042   24.1381 C   0  0  0  0  0  0  0  0  0  0  0  0
   11.0456   -2.9774   18.2694 N   0  0  0  0  0  0  0  0  0  0  0  0
   10.4788   -3.0457   21.8593 C   0  0  0  0  0  0  0  0  0  0  0  0
    8.8693   -5.8099   18.4657 N   0  0  0  0  0  0  0  0  0  0  0  0
    8.9892   -0.7926   25.4573 C   0  0  0  0  0  0  0  0  0  0  0  0
   10.5677   -3.4462   20.5323 C   0  0  0  0  0  0  0  0  0  0  0  0
  1  8  1  0
  1 12  4  0
  1 14  4  0
  2  3  4  0
  2 18  4  0
  3 20  4  0
  3 22  4  0
  4 11  4  0
  4 21  4  0
  5  9  4  0
  5 16  4  0
  6 15  4  0
  6 16  4  0
  7 22  4  0
  7 26  4  0
  8 10  4  0
  8 25  4  0
  9 15  4  0
  9 17  1  0
 10 21  4  0
 11 25  4  0
 12 23  4  0
 13 20  4  0
 13 26  4  0
 14 19  4  0
 17 18  4  0
 17 24  4  0
 19 23  4  0
 20 24  4  0
 23 26  1  0
M  END
$$$$

 Created by Python create_sdf_string function

 26 30  0  0  0  0  0  0  0  0999 V2000
   10.0084   -1.8019   23.4945 C   0  0  0  0  0  0  0  0  0  0  0  0
   10.0005   -4.2520   16.5631 C   0  0  0  0  0  0  0  0  0  0  0  0
   10.2759   -4.0036   17.8845 C   0  0  0  0  0  0  0  0  0  0  0  0
    8.5652    1.5478   25.3778 N   0  0  0  0  0  0  0  0  0  0  0  0
    6.8048   -7.5457   17.8752 C   0  0  0  0  0  0  0  0  0  0  0  0
    6.1721   -8.2186   15.9886 N   0  0  0  0  0  0  0  0  0  0  0  0
   11.1764   -2.6600   19.5604 C   0  0  0  0  0  0  0  0  0  0  0  0
    9.5491   -0.6380   24.1912 C   0  0  0  0  0  0  0  0  0  0  0  0
    7.5337   -6.9256   16.9519 C   0  0  0  0  0  0  0  0  0  0  0  0
    9.6782    0.5671   23.5143 C   0  0  0  0  0  0  0  0  0  0  0  0
    8.4532    0.3482   26.0821 C   0  0  0  0  0  0  0  0  0  0  0  0
   10.4239   -1.7677   22.2230 N   0  0  0  0  0  0  0  0  0  0  0  0
    9.9468   -4.5953   20.1709 C   0  0  0  0  0  0  0  0  0  0  0  0
   10.0366   -3.0590   23.9864 N   0  0  0  0  0  0  0  0  0  0  0  0
    7.1191   -7.3636   15.7739 C   0  0  0  0  0  0  0  0  0  0  0  0
    5.9612   -8.3203   17.2732 N   0  0  0  0  0  0  0  0  0  0  0  0
    8.5296   -5.9814   17.1841 C   0  0  0  0  0  0  0  0  0  0  0  0
    9.1527   -5.2118   16.2116 C   0  0  0  0  0  0  0  0  0  0  0  0
   10.3364   -3.8368   22.9255 O   0  0  0  0  0  0  0  0  0  0  0  0
    9.6947   -4.8407   18.8534 C   0  0  0  0  0  0  0  0  0  0  0  0
    9.1596    1.7042   24.1381 C   0  0  0  0  0  0  0  0  0  0  0  0
   11.0456   -2.9774   18.2694 N   0  0  0  0  0  0  0  0  0  0  0  0
   10.4788   -3.0457   21.8593 C   0  0  0  0  0  0  0  0  0  0  0  0
    8.8693   -5.8099   18.4657 N   0  0  0  0  0  0  0  0  0  0  0  0
    8.9892   -0.7926   25.4573 C   0  0  0  0  0  0  0  0  0  0  0  0
   10.5677   -3.4462   20.5323 C   0  0  0  0  0  0  0  0  0  0  0  0
  1  8  1  0
  1 12  4  0
  1 14  4  0
  2  3  4  0
  2 18  4  0
  3 20  4  0
  3 22  4  0
  4 11  4  0
  4 21  4  0
  5  9  4  0
  5 16  4  0
  6 15  4  0
  6 16  4  0
  7 22  4  0
  7 26  4  0
  8 10  4  0
  8 25  4  0
  9 15  4  0
  9 17  1  0
 10 21  4  0
 11 25  4  0
 12 23  4  0
 13 20  4  0
 13 26  4  0
 14 19  4  0
 17 18  4  0
 17 24  4  0
 19 23  4  0
 20 24  4  0
 23 26  1  0
M  END
$$$$

 Created by Python create_sdf_string function

 26 30  0  0  0  0  0  0  0  0999 V2000
   10.0084   -1.8019   23.4945 C   0  0  0  0  0  0  0  0  0  0  0  0
   10.0005   -4.2520   16.5631 C   0  0  0  0  0  0  0  0  0  0  0  0
   10.2759   -4.0036   17.8845 C   0  0  0  0  0  0  0  0  0  0  0  0
    8.5652    1.5478   25.3778 N   0  0  0  0  0  0  0  0  0  0  0  0
    6.8048   -7.5457   17.8752 C   0  0  0  0  0  0  0  0  0  0  0  0
    6.1721   -8.2186   15.9886 N   0  0  0  0  0  0  0  0  0  0  0  0
   11.1764   -2.6600   19.5604 C   0  0  0  0  0  0  0  0  0  0  0  0
    9.5491   -0.6380   24.1912 C   0  0  0  0  0  0  0  0  0  0  0  0
    7.5337   -6.9256   16.9519 C   0  0  0  0  0  0  0  0  0  0  0  0
    9.6782    0.5671   23.5143 C   0  0  0  0  0  0  0  0  0  0  0  0
    8.4532    0.3482   26.0821 C   0  0  0  0  0  0  0  0  0  0  0  0
   10.4239   -1.7677   22.2230 N   0  0  0  0  0  0  0  0  0  0  0  0
    9.9468   -4.5953   20.1709 C   0  0  0  0  0  0  0  0  0  0  0  0
   10.0366   -3.0590   23.9864 N   0  0  0  0  0  0  0  0  0  0  0  0
    7.1191   -7.3636   15.7739 C   0  0  0  0  0  0  0  0  0  0  0  0
    5.9612   -8.3203   17.2732 N   0  0  0  0  0  0  0  0  0  0  0  0
    8.5296   -5.9814   17.1841 C   0  0  0  0  0  0  0  0  0  0  0  0
    9.1527   -5.2118   16.2116 C   0  0  0  0  0  0  0  0  0  0  0  0
   10.3364   -3.8368   22.9255 O   0  0  0  0  0  0  0  0  0  0  0  0
    9.6947   -4.8407   18.8534 C   0  0  0  0  0  0  0  0  0  0  0  0
    9.1596    1.7042   24.1381 C   0  0  0  0  0  0  0  0  0  0  0  0
   11.0456   -2.9774   18.2694 N   0  0  0  0  0  0  0  0  0  0  0  0
   10.4788   -3.0457   21.8593 C   0  0  0  0  0  0  0  0  0  0  0  0
    8.8693   -5.8099   18.4657 N   0  0  0  0  0  0  0  0  0  0  0  0
    8.9892   -0.7926   25.4573 C   0  0  0  0  0  0  0  0  0  0  0  0
   10.5677   -3.4462   20.5323 C   0  0  0  0  0  0  0  0  0  0  0  0
  1  8  1  0
  1 12  4  0
  1 14  4  0
  2  3  4  0
  2 18  4  0
  3 20  4  0
  3 22  4  0
  4 11  4  0
  4 21  4  0
  5  9  4  0
  5 16  4  0
  6 15  4  0
  6 16  4  0
  7 22  4  0
  7 26  4  0
  8 10  4  0
  8 25  4  0
  9 15  4  0
  9 17  1  0
 10 21  4  0
 11 25  4  0
 12 23  4  0
 13 20  4  0
 13 26  4  0
 14 19  4  0
 17 18  4  0
 17 24  4  0
 19 23  4  0
 20 24  4  0
 23 26  1  0
M  END
$$$$

 Created by Python create_sdf_string function

 26 30  0  0  0  0  0  0  0  0999 V2000
   10.0084   -1.8019   23.4945 C   0  0  0  0  0  0  0  0  0  0  0  0
   10.0005   -4.2520   16.5631 C   0  0  0  0  0  0  0  0  0  0  0  0
   10.2759   -4.0036   17.8845 C   0  0  0  0  0  0  0  0  0  0  0  0
    8.5652    1.5478   25.3778 N   0  0  0  0  0  0  0  0  0  0  0  0
    6.8048   -7.5457   17.8752 C   0  0  0  0  0  0  0  0  0  0  0  0
    6.1721   -8.2186   15.9886 N   0  0  0  0  0  0  0  0  0  0  0  0
   11.1764   -2.6600   19.5604 C   0  0  0  0  0  0  0  0  0  0  0  0
    9.5491   -0.6380   24.1912 C   0  0  0  0  0  0  0  0  0  0  0  0
    7.5337   -6.9256   16.9519 C   0  0  0  0  0  0  0  0  0  0  0  0
    9.6782    0.5671   23.5143 C   0  0  0  0  0  0  0  0  0  0  0  0
    8.4532    0.3482   26.0821 C   0  0  0  0  0  0  0  0  0  0  0  0
   10.4239   -1.7677   22.2230 N   0  0  0  0  0  0  0  0  0  0  0  0
    9.9468   -4.5953   20.1709 C   0  0  0  0  0  0  0  0  0  0  0  0
   10.0366   -3.0590   23.9864 N   0  0  0  0  0  0  0  0  0  0  0  0
    7.1191   -7.3636   15.7739 C   0  0  0  0  0  0  0  0  0  0  0  0
    5.9612   -8.3203   17.2732 N   0  0  0  0  0  0  0  0  0  0  0  0
    8.5296   -5.9814   17.1841 C   0  0  0  0  0  0  0  0  0  0  0  0
    9.1527   -5.2118   16.2116 C   0  0  0  0  0  0  0  0  0  0  0  0
   10.3364   -3.8368   22.9255 O   0  0  0  0  0  0  0  0  0  0  0  0
    9.6947   -4.8407   18.8534 C   0  0  0  0  0  0  0  0  0  0  0  0
    9.1596    1.7042   24.1381 C   0  0  0  0  0  0  0  0  0  0  0  0
   11.0456   -2.9774   18.2694 N   0  0  0  0  0  0  0  0  0  0  0  0
   10.4788   -3.0457   21.8593 C   0  0  0  0  0  0  0  0  0  0  0  0
    8.8693   -5.8099   18.4657 N   0  0  0  0  0  0  0  0  0  0  0  0
    8.9892   -0.7926   25.4573 C   0  0  0  0  0  0  0  0  0  0  0  0
   10.5677   -3.4462   20.5323 C   0  0  0  0  0  0  0  0  0  0  0  0
  1  8  1  0
  1 12  4  0
  1 14  4  0
  2  3  4  0
  2 18  4  0
  3 20  4  0
  3 22  4  0
  4 11  4  0
  4 21  4  0
  5  9  4  0
  5 16  4  0
  6 15  4  0
  6 16  4  0
  7 22  4  0
  7 26  4  0
  8 10  4  0
  8 25  4  0
  9 15  4  0
  9 17  1  0
 10 21  4  0
 11 25  4  0
 12 23  4  0
 13 20  4  0
 13 26  4  0
 14 19  4  0
 17 18  4  0
 17 24  4  0
 19 23  4  0
 20 24  4  0
 23 26  1  0
M  END
$$$$

 Created by Python create_sdf_string function

 26 30  0  0  0  0  0  0  0  0999 V2000
   10.0084   -1.8019   23.4945 C   0  0  0  0  0  0  0  0  0  0  0  0
   10.0005   -4.2520   16.5631 C   0  0  0  0  0  0  0  0  0  0  0  0
   10.2759   -4.0036   17.8845 C   0  0  0  0  0  0  0  0  0  0  0  0
    8.5652    1.5478   25.3778 N   0  0  0  0  0  0  0  0  0  0  0  0
    6.8048   -7.5457   17.8752 C   0  0  0  0  0  0  0  0  0  0  0  0
    6.1721   -8.2186   15.9886 N   0  0  0  0  0  0  0  0  0  0  0  0
   11.1764   -2.6600   19.5604 C   0  0  0  0  0  0  0  0  0  0  0  0
    9.5491   -0.6380   24.1912 C   0  0  0  0  0  0  0  0  0  0  0  0
    7.5337   -6.9256   16.9519 C   0  0  0  0  0  0  0  0  0  0  0  0
    9.6782    0.5671   23.5143 C   0  0  0  0  0  0  0  0  0  0  0  0
    8.4532    0.3482   26.0821 C   0  0  0  0  0  0  0  0  0  0  0  0
   10.4239   -1.7677   22.2230 N   0  0  0  0  0  0  0  0  0  0  0  0
    9.9468   -4.5953   20.1709 C   0  0  0  0  0  0  0  0  0  0  0  0
   10.0366   -3.0590   23.9864 N   0  0  0  0  0  0  0  0  0  0  0  0
    7.1191   -7.3636   15.7739 C   0  0  0  0  0  0  0  0  0  0  0  0
    5.9612   -8.3203   17.2732 N   0  0  0  0  0  0  0  0  0  0  0  0
    8.5296   -5.9814   17.1841 C   0  0  0  0  0  0  0  0  0  0  0  0
    9.1527   -5.2118   16.2116 C   0  0  0  0  0  0  0  0  0  0  0  0
   10.3364   -3.8368   22.9255 O   0  0  0  0  0  0  0  0  0  0  0  0
    9.6947   -4.8407   18.8534 C   0  0  0  0  0  0  0  0  0  0  0  0
    9.1596    1.7042   24.1381 C   0  0  0  0  0  0  0  0  0  0  0  0
   11.0456   -2.9774   18.2694 N   0  0  0  0  0  0  0  0  0  0  0  0
   10.4788   -3.0457   21.8593 C   0  0  0  0  0  0  0  0  0  0  0  0
    8.8693   -5.8099   18.4657 N   0  0  0  0  0  0  0  0  0  0  0  0
    8.9892   -0.7926   25.4573 C   0  0  0  0  0  0  0  0  0  0  0  0
   10.5677   -3.4462   20.5323 C   0  0  0  0  0  0  0  0  0  0  0  0
  1  8  1  0
  1 12  4  0
  1 14  4  0
  2  3  4  0
  2 18  4  0
  3 20  4  0
  3 22  4  0
  4 11  4  0
  4 21  4  0
  5  9  4  0
  5 16  4  0
  6 15  4  0
  6 16  4  0
  7 22  4  0
  7 26  4  0
  8 10  4  0
  8 25  4  0
  9 15  4  0
  9 17  1  0
 10 21  4  0
 11 25  4  0
 12 23  4  0
 13 20  4  0
 13 26  4  0
 14 19  4  0
 17 18  4  0
 17 24  4  0
 19 23  4  0
 20 24  4  0
 23 26  1  0
M  END
$$$$

 Created by Python create_sdf_string function

 26 30  0  0  0  0  0  0  0  0999 V2000
   10.0084   -1.8019   23.4945 C   0  0  0  0  0  0  0  0  0  0  0  0
   10.0005   -4.2520   16.5631 C   0  0  0  0  0  0  0  0  0  0  0  0
   10.2759   -4.0036   17.8845 C   0  0  0  0  0  0  0  0  0  0  0  0
    8.5652    1.5478   25.3778 N   0  0  0  0  0  0  0  0  0  0  0  0
    6.8048   -7.5457   17.8752 C   0  0  0  0  0  0  0  0  0  0  0  0
    6.1721   -8.2186   15.9886 N   0  0  0  0  0  0  0  0  0  0  0  0
   11.1764   -2.6600   19.5604 C   0  0  0  0  0  0  0  0  0  0  0  0
    9.5491   -0.6380   24.1912 C   0  0  0  0  0  0  0  0  0  0  0  0
    7.5337   -6.9256   16.9519 C   0  0  0  0  0  0  0  0  0  0  0  0
    9.6782    0.5671   23.5143 C   0  0  0  0  0  0  0  0  0  0  0  0
    8.4532    0.3482   26.0821 C   0  0  0  0  0  0  0  0  0  0  0  0
   10.4239   -1.7677   22.2230 N   0  0  0  0  0  0  0  0  0  0  0  0
    9.9468   -4.5953   20.1709 C   0  0  0  0  0  0  0  0  0  0  0  0
   10.0366   -3.0590   23.9864 N   0  0  0  0  0  0  0  0  0  0  0  0
    7.1191   -7.3636   15.7739 C   0  0  0  0  0  0  0  0  0  0  0  0
    5.9612   -8.3203   17.2732 N   0  0  0  0  0  0  0  0  0  0  0  0
    8.5296   -5.9814   17.1841 C   0  0  0  0  0  0  0  0  0  0  0  0
    9.1527   -5.2118   16.2116 C   0  0  0  0  0  0  0  0  0  0  0  0
   10.3364   -3.8368   22.9255 O   0  0  0  0  0  0  0  0  0  0  0  0
    9.6947   -4.8407   18.8534 C   0  0  0  0  0  0  0  0  0  0  0  0
    9.1596    1.7042   24.1381 C   0  0  0  0  0  0  0  0  0  0  0  0
   11.0456   -2.9774   18.2694 N   0  0  0  0  0  0  0  0  0  0  0  0
   10.4788   -3.0457   21.8593 C   0  0  0  0  0  0  0  0  0  0  0  0
    8.8693   -5.8099   18.4657 N   0  0  0  0  0  0  0  0  0  0  0  0
    8.9892   -0.7926   25.4573 C   0  0  0  0  0  0  0  0  0  0  0  0
   10.5677   -3.4462   20.5323 C   0  0  0  0  0  0  0  0  0  0  0  0
  1  8  1  0
  1 12  4  0
  1 14  4  0
  2  3  4  0
  2 18  4  0
  3 20  4  0
  3 22  4  0
  4 11  4  0
  4 21  4  0
  5  9  4  0
  5 16  4  0
  6 15  4  0
  6 16  4  0
  7 22  4  0
  7 26  4  0
  8 10  4  0
  8 25  4  0
  9 15  4  0
  9 17  1  0
 10 21  4  0
 11 25  4  0
 12 23  4  0
 13 20  4  0
 13 26  4  0
 14 19  4  0
 17 18  4  0
 17 24  4  0
 19 23  4  0
 20 24  4  0
 23 26  1  0
M  END
$$$$

 Created by Python create_sdf_string function

 26 30  0  0  0  0  0  0  0  0999 V2000
   10.0084   -1.8019   23.4945 C   0  0  0  0  0  0  0  0  0  0  0  0
   10.0005   -4.2520   16.5631 C   0  0  0  0  0  0  0  0  0  0  0  0
   10.2759   -4.0036   17.8845 C   0  0  0  0  0  0  0  0  0  0  0  0
    8.5652    1.5478   25.3778 N   0  0  0  0  0  0  0  0  0  0  0  0
    6.8048   -7.5457   17.8752 C   0  0  0  0  0  0  0  0  0  0  0  0
    6.1721   -8.2186   15.9886 N   0  0  0  0  0  0  0  0  0  0  0  0
   11.1764   -2.6600   19.5604 C   0  0  0  0  0  0  0  0  0  0  0  0
    9.5491   -0.6380   24.1912 C   0  0  0  0  0  0  0  0  0  0  0  0
    7.5337   -6.9256   16.9519 C   0  0  0  0  0  0  0  0  0  0  0  0
    9.6782    0.5671   23.5143 C   0  0  0  0  0  0  0  0  0  0  0  0
    8.4532    0.3482   26.0821 C   0  0  0  0  0  0  0  0  0  0  0  0
   10.4239   -1.7677   22.2230 N   0  0  0  0  0  0  0  0  0  0  0  0
    9.9468   -4.5953   20.1709 C   0  0  0  0  0  0  0  0  0  0  0  0
   10.0366   -3.0590   23.9864 N   0  0  0  0  0  0  0  0  0  0  0  0
    7.1191   -7.3636   15.7739 C   0  0  0  0  0  0  0  0  0  0  0  0
    5.9612   -8.3203   17.2732 N   0  0  0  0  0  0  0  0  0  0  0  0
    8.5296   -5.9814   17.1841 C   0  0  0  0  0  0  0  0  0  0  0  0
    9.1527   -5.2118   16.2116 C   0  0  0  0  0  0  0  0  0  0  0  0
   10.3364   -3.8368   22.9255 O   0  0  0  0  0  0  0  0  0  0  0  0
    9.6947   -4.8407   18.8534 C   0  0  0  0  0  0  0  0  0  0  0  0
    9.1596    1.7042   24.1381 C   0  0  0  0  0  0  0  0  0  0  0  0
   11.0456   -2.9774   18.2694 N   0  0  0  0  0  0  0  0  0  0  0  0
   10.4788   -3.0457   21.8593 C   0  0  0  0  0  0  0  0  0  0  0  0
    8.8693   -5.8099   18.4657 N   0  0  0  0  0  0  0  0  0  0  0  0
    8.9892   -0.7926   25.4573 C   0  0  0  0  0  0  0  0  0  0  0  0
   10.5677   -3.4462   20.5323 C   0  0  0  0  0  0  0  0  0  0  0  0
  1  8  1  0
  1 12  4  0
  1 14  4  0
  2  3  4  0
  2 18  4  0
  3 20  4  0
  3 22  4  0
  4 11  4  0
  4 21  4  0
  5  9  4  0
  5 16  4  0
  6 15  4  0
  6 16  4  0
  7 22  4  0
  7 26  4  0
  8 10  4  0
  8 25  4  0
  9 15  4  0
  9 17  1  0
 10 21  4  0
 11 25  4  0
 12 23  4  0
 13 20  4  0
 13 26  4  0
 14 19  4  0
 17 18  4  0
 17 24  4  0
 19 23  4  0
 20 24  4  0
 23 26  1  0
M  END
$$$$

 Created by Python create_sdf_string function

 26 30  0  0  0  0  0  0  0  0999 V2000
   10.0084   -1.8019   23.4945 C   0  0  0  0  0  0  0  0  0  0  0  0
   10.0005   -4.2520   16.5631 C   0  0  0  0  0  0  0  0  0  0  0  0
   10.2759   -4.0036   17.8845 C   0  0  0  0  0  0  0  0  0  0  0  0
    8.5652    1.5478   25.3778 N   0  0  0  0  0  0  0  0  0  0  0  0
    6.8048   -7.5457   17.8752 C   0  0  0  0  0  0  0  0  0  0  0  0
    6.1721   -8.2186   15.9886 N   0  0  0  0  0  0  0  0  0  0  0  0
   11.1764   -2.6600   19.5604 C   0  0  0  0  0  0  0  0  0  0  0  0
    9.5491   -0.6380   24.1912 C   0  0  0  0  0  0  0  0  0  0  0  0
    7.5337   -6.9256   16.9519 C   0  0  0  0  0  0  0  0  0  0  0  0
    9.6782    0.5671   23.5143 C   0  0  0  0  0  0  0  0  0  0  0  0
    8.4532    0.3482   26.0821 C   0  0  0  0  0  0  0  0  0  0  0  0
   10.4239   -1.7677   22.2230 N   0  0  0  0  0  0  0  0  0  0  0  0
    9.9468   -4.5953   20.1709 C   0  0  0  0  0  0  0  0  0  0  0  0
   10.0366   -3.0590   23.9864 N   0  0  0  0  0  0  0  0  0  0  0  0
    7.1191   -7.3636   15.7739 C   0  0  0  0  0  0  0  0  0  0  0  0
    5.9612   -8.3203   17.2732 N   0  0  0  0  0  0  0  0  0  0  0  0
    8.5296   -5.9814   17.1841 C   0  0  0  0  0  0  0  0  0  0  0  0
    9.1527   -5.2118   16.2116 C   0  0  0  0  0  0  0  0  0  0  0  0
   10.3364   -3.8368   22.9255 O   0  0  0  0  0  0  0  0  0  0  0  0
    9.6947   -4.8407   18.8534 C   0  0  0  0  0  0  0  0  0  0  0  0
    9.1596    1.7042   24.1381 C   0  0  0  0  0  0  0  0  0  0  0  0
   11.0456   -2.9774   18.2694 N   0  0  0  0  0  0  0  0  0  0  0  0
   10.4788   -3.0457   21.8593 C   0  0  0  0  0  0  0  0  0  0  0  0
    8.8693   -5.8099   18.4657 N   0  0  0  0  0  0  0  0  0  0  0  0
    8.9892   -0.7926   25.4573 C   0  0  0  0  0  0  0  0  0  0  0  0
   10.5677   -3.4462   20.5323 C   0  0  0  0  0  0  0  0  0  0  0  0
  1  8  1  0
  1 12  4  0
  1 14  4  0
  2  3  4  0
  2 18  4  0
  3 20  4  0
  3 22  4  0
  4 11  4  0
  4 21  4  0
  5  9  4  0
  5 16  4  0
  6 15  4  0
  6 16  4  0
  7 22  4  0
  7 26  4  0
  8 10  4  0
  8 25  4  0
  9 15  4  0
  9 17  1  0
 10 21  4  0
 11 25  4  0
 12 23  4  0
 13 20  4  0
 13 26  4  0
 14 19  4  0
 17 18  4  0
 17 24  4  0
 19 23  4  0
 20 24  4  0
 23 26  1  0
M  END
$$$$

 Created by Python create_sdf_string function

 26 30  0  0  0  0  0  0  0  0999 V2000
   10.0084   -1.8019   23.4945 C   0  0  0  0  0  0  0  0  0  0  0  0
   10.0005   -4.2520   16.5631 C   0  0  0  0  0  0  0  0  0  0  0  0
   10.2759   -4.0036   17.8845 C   0  0  0  0  0  0  0  0  0  0  0  0
    8.5652    1.5478   25.3778 N   0  0  0  0  0  0  0  0  0  0  0  0
    6.8048   -7.5457   17.8752 C   0  0  0  0  0  0  0  0  0  0  0  0
    6.1721   -8.2186   15.9886 N   0  0  0  0  0  0  0  0  0  0  0  0
   11.1764   -2.6600   19.5604 C   0  0  0  0  0  0  0  0  0  0  0  0
    9.5491   -0.6380   24.1912 C   0  0  0  0  0  0  0  0  0  0  0  0
    7.5337   -6.9256   16.9519 C   0  0  0  0  0  0  0  0  0  0  0  0
    9.6782    0.5671   23.5143 C   0  0  0  0  0  0  0  0  0  0  0  0
    8.4532    0.3482   26.0821 C   0  0  0  0  0  0  0  0  0  0  0  0
   10.4239   -1.7677   22.2230 N   0  0  0  0  0  0  0  0  0  0  0  0
    9.9468   -4.5953   20.1709 C   0  0  0  0  0  0  0  0  0  0  0  0
   10.0366   -3.0590   23.9864 N   0  0  0  0  0  0  0  0  0  0  0  0
    7.1191   -7.3636   15.7739 C   0  0  0  0  0  0  0  0  0  0  0  0
    5.9612   -8.3203   17.2732 N   0  0  0  0  0  0  0  0  0  0  0  0
    8.5296   -5.9814   17.1841 C   0  0  0  0  0  0  0  0  0  0  0  0
    9.1527   -5.2118   16.2116 C   0  0  0  0  0  0  0  0  0  0  0  0
   10.3364   -3.8368   22.9255 O   0  0  0  0  0  0  0  0  0  0  0  0
    9.6947   -4.8407   18.8534 C   0  0  0  0  0  0  0  0  0  0  0  0
    9.1596    1.7042   24.1381 C   0  0  0  0  0  0  0  0  0  0  0  0
   11.0456   -2.9774   18.2694 N   0  0  0  0  0  0  0  0  0  0  0  0
   10.4788   -3.0457   21.8593 C   0  0  0  0  0  0  0  0  0  0  0  0
    8.8693   -5.8099   18.4657 N   0  0  0  0  0  0  0  0  0  0  0  0
    8.9892   -0.7926   25.4573 C   0  0  0  0  0  0  0  0  0  0  0  0
   10.5677   -3.4462   20.5323 C   0  0  0  0  0  0  0  0  0  0  0  0
  1  8  1  0
  1 12  4  0
  1 14  4  0
  2  3  4  0
  2 18  4  0
  3 20  4  0
  3 22  4  0
  4 11  4  0
  4 21  4  0
  5  9  4  0
  5 16  4  0
  6 15  4  0
  6 16  4  0
  7 22  4  0
  7 26  4  0
  8 10  4  0
  8 25  4  0
  9 15  4  0
  9 17  1  0
 10 21  4  0
 11 25  4  0
 12 23  4  0
 13 20  4  0
 13 26  4  0
 14 19  4  0
 17 18  4  0
 17 24  4  0
 19 23  4  0
 20 24  4  0
 23 26  1  0
M  END
$$$$

 Created by Python create_sdf_string function

 26 30  0  0  0  0  0  0  0  0999 V2000
   10.0084   -1.8019   23.4945 C   0  0  0  0  0  0  0  0  0  0  0  0
   10.0005   -4.2520   16.5631 C   0  0  0  0  0  0  0  0  0  0  0  0
   10.2759   -4.0036   17.8845 C   0  0  0  0  0  0  0  0  0  0  0  0
    8.5652    1.5478   25.3778 N   0  0  0  0  0  0  0  0  0  0  0  0
    6.8048   -7.5457   17.8752 C   0  0  0  0  0  0  0  0  0  0  0  0
    6.1721   -8.2186   15.9886 N   0  0  0  0  0  0  0  0  0  0  0  0
   11.1764   -2.6600   19.5604 C   0  0  0  0  0  0  0  0  0  0  0  0
    9.5491   -0.6380   24.1912 C   0  0  0  0  0  0  0  0  0  0  0  0
    7.5337   -6.9256   16.9519 C   0  0  0  0  0  0  0  0  0  0  0  0
    9.6782    0.5671   23.5143 C   0  0  0  0  0  0  0  0  0  0  0  0
    8.4532    0.3482   26.0821 C   0  0  0  0  0  0  0  0  0  0  0  0
   10.4239   -1.7677   22.2230 N   0  0  0  0  0  0  0  0  0  0  0  0
    9.9468   -4.5953   20.1709 C   0  0  0  0  0  0  0  0  0  0  0  0
   10.0366   -3.0590   23.9864 N   0  0  0  0  0  0  0  0  0  0  0  0
    7.1191   -7.3636   15.7739 C   0  0  0  0  0  0  0  0  0  0  0  0
    5.9612   -8.3203   17.2732 N   0  0  0  0  0  0  0  0  0  0  0  0
    8.5296   -5.9814   17.1841 C   0  0  0  0  0  0  0  0  0  0  0  0
    9.1527   -5.2118   16.2116 C   0  0  0  0  0  0  0  0  0  0  0  0
   10.3364   -3.8368   22.9255 O   0  0  0  0  0  0  0  0  0  0  0  0
    9.6947   -4.8407   18.8534 C   0  0  0  0  0  0  0  0  0  0  0  0
    9.1596    1.7042   24.1381 C   0  0  0  0  0  0  0  0  0  0  0  0
   11.0456   -2.9774   18.2694 N   0  0  0  0  0  0  0  0  0  0  0  0
   10.4788   -3.0457   21.8593 C   0  0  0  0  0  0  0  0  0  0  0  0
    8.8693   -5.8099   18.4657 N   0  0  0  0  0  0  0  0  0  0  0  0
    8.9892   -0.7926   25.4573 C   0  0  0  0  0  0  0  0  0  0  0  0
   10.5677   -3.4462   20.5323 C   0  0  0  0  0  0  0  0  0  0  0  0
  1  8  1  0
  1 12  4  0
  1 14  4  0
  2  3  4  0
  2 18  4  0
  3 20  4  0
  3 22  4  0
  4 11  4  0
  4 21  4  0
  5  9  4  0
  5 16  4  0
  6 15  4  0
  6 16  4  0
  7 22  4  0
  7 26  4  0
  8 10  4  0
  8 25  4  0
  9 15  4  0
  9 17  1  0
 10 21  4  0
 11 25  4  0
 12 23  4  0
 13 20  4  0
 13 26  4  0
 14 19  4  0
 17 18  4  0
 17 24  4  0
 19 23  4  0
 20 24  4  0
 23 26  1  0
M  END
$$$$

 Created by Python create_sdf_string function

 26 30  0  0  0  0  0  0  0  0999 V2000
   10.0084   -1.8019   23.4945 C   0  0  0  0  0  0  0  0  0  0  0  0
   10.0005   -4.2520   16.5631 C   0  0  0  0  0  0  0  0  0  0  0  0
   10.2759   -4.0036   17.8845 C   0  0  0  0  0  0  0  0  0  0  0  0
    8.5652    1.5478   25.3778 N   0  0  0  0  0  0  0  0  0  0  0  0
    6.8048   -7.5457   17.8752 C   0  0  0  0  0  0  0  0  0  0  0  0
    6.1721   -8.2186   15.9886 N   0  0  0  0  0  0  0  0  0  0  0  0
   11.1764   -2.6600   19.5604 C   0  0  0  0  0  0  0  0  0  0  0  0
    9.5491   -0.6380   24.1912 C   0  0  0  0  0  0  0  0  0  0  0  0
    7.5337   -6.9256   16.9519 C   0  0  0  0  0  0  0  0  0  0  0  0
    9.6782    0.5671   23.5143 C   0  0  0  0  0  0  0  0  0  0  0  0
    8.4532    0.3482   26.0821 C   0  0  0  0  0  0  0  0  0  0  0  0
   10.4239   -1.7677   22.2230 N   0  0  0  0  0  0  0  0  0  0  0  0
    9.9468   -4.5953   20.1709 C   0  0  0  0  0  0  0  0  0  0  0  0
   10.0366   -3.0590   23.9864 N   0  0  0  0  0  0  0  0  0  0  0  0
    7.1191   -7.3636   15.7739 C   0  0  0  0  0  0  0  0  0  0  0  0
    5.9612   -8.3203   17.2732 N   0  0  0  0  0  0  0  0  0  0  0  0
    8.5296   -5.9814   17.1841 C   0  0  0  0  0  0  0  0  0  0  0  0
    9.1527   -5.2118   16.2116 C   0  0  0  0  0  0  0  0  0  0  0  0
   10.3364   -3.8368   22.9255 O   0  0  0  0  0  0  0  0  0  0  0  0
    9.6947   -4.8407   18.8534 C   0  0  0  0  0  0  0  0  0  0  0  0
    9.1596    1.7042   24.1381 C   0  0  0  0  0  0  0  0  0  0  0  0
   11.0456   -2.9774   18.2694 N   0  0  0  0  0  0  0  0  0  0  0  0
   10.4788   -3.0457   21.8593 C   0  0  0  0  0  0  0  0  0  0  0  0
    8.8693   -5.8099   18.4657 N   0  0  0  0  0  0  0  0  0  0  0  0
    8.9892   -0.7926   25.4573 C   0  0  0  0  0  0  0  0  0  0  0  0
   10.5677   -3.4462   20.5323 C   0  0  0  0  0  0  0  0  0  0  0  0
  1  8  1  0
  1 12  4  0
  1 14  4  0
  2  3  4  0
  2 18  4  0
  3 20  4  0
  3 22  4  0
  4 11  4  0
  4 21  4  0
  5  9  4  0
  5 16  4  0
  6 15  4  0
  6 16  4  0
  7 22  4  0
  7 26  4  0
  8 10  4  0
  8 25  4  0
  9 15  4  0
  9 17  1  0
 10 21  4  0
 11 25  4  0
 12 23  4  0
 13 20  4  0
 13 26  4  0
 14 19  4  0
 17 18  4  0
 17 24  4  0
 19 23  4  0
 20 24  4  0
 23 26  1  0
M  END
$$$$

 Created by Python create_sdf_string function

 26 30  0  0  0  0  0  0  0  0999 V2000
   10.0084   -1.8019   23.4945 C   0  0  0  0  0  0  0  0  0  0  0  0
   10.0005   -4.2520   16.5631 C   0  0  0  0  0  0  0  0  0  0  0  0
   10.2759   -4.0036   17.8845 C   0  0  0  0  0  0  0  0  0  0  0  0
    8.5652    1.5478   25.3778 N   0  0  0  0  0  0  0  0  0  0  0  0
    6.8048   -7.5457   17.8752 C   0  0  0  0  0  0  0  0  0  0  0  0
    6.1721   -8.2186   15.9886 N   0  0  0  0  0  0  0  0  0  0  0  0
   11.1764   -2.6600   19.5604 C   0  0  0  0  0  0  0  0  0  0  0  0
    9.5491   -0.6380   24.1912 C   0  0  0  0  0  0  0  0  0  0  0  0
    7.5337   -6.9256   16.9519 C   0  0  0  0  0  0  0  0  0  0  0  0
    9.6782    0.5671   23.5143 C   0  0  0  0  0  0  0  0  0  0  0  0
    8.4532    0.3482   26.0821 C   0  0  0  0  0  0  0  0  0  0  0  0
   10.4239   -1.7677   22.2230 N   0  0  0  0  0  0  0  0  0  0  0  0
    9.9468   -4.5953   20.1709 C   0  0  0  0  0  0  0  0  0  0  0  0
   10.0366   -3.0590   23.9864 N   0  0  0  0  0  0  0  0  0  0  0  0
    7.1191   -7.3636   15.7739 C   0  0  0  0  0  0  0  0  0  0  0  0
    5.9612   -8.3203   17.2732 N   0  0  0  0  0  0  0  0  0  0  0  0
    8.5296   -5.9814   17.1841 C   0  0  0  0  0  0  0  0  0  0  0  0
    9.1527   -5.2118   16.2116 C   0  0  0  0  0  0  0  0  0  0  0  0
   10.3364   -3.8368   22.9255 O   0  0  0  0  0  0  0  0  0  0  0  0
    9.6947   -4.8407   18.8534 C   0  0  0  0  0  0  0  0  0  0  0  0
    9.1596    1.7042   24.1381 C   0  0  0  0  0  0  0  0  0  0  0  0
   11.0456   -2.9774   18.2694 N   0  0  0  0  0  0  0  0  0  0  0  0
   10.4788   -3.0457   21.8593 C   0  0  0  0  0  0  0  0  0  0  0  0
    8.8693   -5.8099   18.4657 N   0  0  0  0  0  0  0  0  0  0  0  0
    8.9892   -0.7926   25.4573 C   0  0  0  0  0  0  0  0  0  0  0  0
   10.5677   -3.4462   20.5323 C   0  0  0  0  0  0  0  0  0  0  0  0
  1  8  1  0
  1 12  4  0
  1 14  4  0
  2  3  4  0
  2 18  4  0
  3 20  4  0
  3 22  4  0
  4 11  4  0
  4 21  4  0
  5  9  4  0
  5 16  4  0
  6 15  4  0
  6 16  4  0
  7 22  4  0
  7 26  4  0
  8 10  4  0
  8 25  4  0
  9 15  4  0
  9 17  1  0
 10 21  4  0
 11 25  4  0
 12 23  4  0
 13 20  4  0
 13 26  4  0
 14 19  4  0
 17 18  4  0
 17 24  4  0
 19 23  4  0
 20 24  4  0
 23 26  1  0
M  END
$$$$

 Created by Python create_sdf_string function

 26 30  0  0  0  0  0  0  0  0999 V2000
   10.0084   -1.8019   23.4945 C   0  0  0  0  0  0  0  0  0  0  0  0
   10.0005   -4.2520   16.5631 C   0  0  0  0  0  0  0  0  0  0  0  0
   10.2759   -4.0036   17.8845 C   0  0  0  0  0  0  0  0  0  0  0  0
    8.5652    1.5478   25.3778 N   0  0  0  0  0  0  0  0  0  0  0  0
    6.8048   -7.5457   17.8752 C   0  0  0  0  0  0  0  0  0  0  0  0
    6.1721   -8.2186   15.9886 N   0  0  0  0  0  0  0  0  0  0  0  0
   11.1764   -2.6600   19.5604 C   0  0  0  0  0  0  0  0  0  0  0  0
    9.5491   -0.6380   24.1912 C   0  0  0  0  0  0  0  0  0  0  0  0
    7.5337   -6.9256   16.9519 C   0  0  0  0  0  0  0  0  0  0  0  0
    9.6782    0.5671   23.5143 C   0  0  0  0  0  0  0  0  0  0  0  0
    8.4532    0.3482   26.0821 C   0  0  0  0  0  0  0  0  0  0  0  0
   10.4239   -1.7677   22.2230 N   0  0  0  0  0  0  0  0  0  0  0  0
    9.9468   -4.5953   20.1709 C   0  0  0  0  0  0  0  0  0  0  0  0
   10.0366   -3.0590   23.9864 N   0  0  0  0  0  0  0  0  0  0  0  0
    7.1191   -7.3636   15.7739 C   0  0  0  0  0  0  0  0  0  0  0  0
    5.9612   -8.3203   17.2732 N   0  0  0  0  0  0  0  0  0  0  0  0
    8.5296   -5.9814   17.1841 C   0  0  0  0  0  0  0  0  0  0  0  0
    9.1527   -5.2118   16.2116 C   0  0  0  0  0  0  0  0  0  0  0  0
   10.3364   -3.8368   22.9255 O   0  0  0  0  0  0  0  0  0  0  0  0
    9.6947   -4.8407   18.8534 C   0  0  0  0  0  0  0  0  0  0  0  0
    9.1596    1.7042   24.1381 C   0  0  0  0  0  0  0  0  0  0  0  0
   11.0456   -2.9774   18.2694 N   0  0  0  0  0  0  0  0  0  0  0  0
   10.4788   -3.0457   21.8593 C   0  0  0  0  0  0  0  0  0  0  0  0
    8.8693   -5.8099   18.4657 N   0  0  0  0  0  0  0  0  0  0  0  0
    8.9892   -0.7926   25.4573 C   0  0  0  0  0  0  0  0  0  0  0  0
   10.5677   -3.4462   20.5323 C   0  0  0  0  0  0  0  0  0  0  0  0
  1  8  1  0
  1 12  4  0
  1 14  4  0
  2  3  4  0
  2 18  4  0
  3 20  4  0
  3 22  4  0
  4 11  4  0
  4 21  4  0
  5  9  4  0
  5 16  4  0
  6 15  4  0
  6 16  4  0
  7 22  4  0
  7 26  4  0
  8 10  4  0
  8 25  4  0
  9 15  4  0
  9 17  1  0
 10 21  4  0
 11 25  4  0
 12 23  4  0
 13 20  4  0
 13 26  4  0
 14 19  4  0
 17 18  4  0
 17 24  4  0
 19 23  4  0
 20 24  4  0
 23 26  1  0
M  END
$$$$

 Created by Python create_sdf_string function

 26 30  0  0  0  0  0  0  0  0999 V2000
   10.0084   -1.8019   23.4945 C   0  0  0  0  0  0  0  0  0  0  0  0
   10.0005   -4.2520   16.5631 C   0  0  0  0  0  0  0  0  0  0  0  0
   10.2759   -4.0036   17.8845 C   0  0  0  0  0  0  0  0  0  0  0  0
    8.5652    1.5478   25.3778 N   0  0  0  0  0  0  0  0  0  0  0  0
    6.8048   -7.5457   17.8752 C   0  0  0  0  0  0  0  0  0  0  0  0
    6.1721   -8.2186   15.9886 N   0  0  0  0  0  0  0  0  0  0  0  0
   11.1764   -2.6600   19.5604 C   0  0  0  0  0  0  0  0  0  0  0  0
    9.5491   -0.6380   24.1912 C   0  0  0  0  0  0  0  0  0  0  0  0
    7.5337   -6.9256   16.9519 C   0  0  0  0  0  0  0  0  0  0  0  0
    9.6782    0.5671   23.5143 C   0  0  0  0  0  0  0  0  0  0  0  0
    8.4532    0.3482   26.0821 C   0  0  0  0  0  0  0  0  0  0  0  0
   10.4239   -1.7677   22.2230 N   0  0  0  0  0  0  0  0  0  0  0  0
    9.9468   -4.5953   20.1709 C   0  0  0  0  0  0  0  0  0  0  0  0
   10.0366   -3.0590   23.9864 N   0  0  0  0  0  0  0  0  0  0  0  0
    7.1191   -7.3636   15.7739 C   0  0  0  0  0  0  0  0  0  0  0  0
    5.9612   -8.3203   17.2732 N   0  0  0  0  0  0  0  0  0  0  0  0
    8.5296   -5.9814   17.1841 C   0  0  0  0  0  0  0  0  0  0  0  0
    9.1527   -5.2118   16.2116 C   0  0  0  0  0  0  0  0  0  0  0  0
   10.3364   -3.8368   22.9255 O   0  0  0  0  0  0  0  0  0  0  0  0
    9.6947   -4.8407   18.8534 C   0  0  0  0  0  0  0  0  0  0  0  0
    9.1596    1.7042   24.1381 C   0  0  0  0  0  0  0  0  0  0  0  0
   11.0456   -2.9774   18.2694 N   0  0  0  0  0  0  0  0  0  0  0  0
   10.4788   -3.0457   21.8593 C   0  0  0  0  0  0  0  0  0  0  0  0
    8.8693   -5.8099   18.4657 N   0  0  0  0  0  0  0  0  0  0  0  0
    8.9892   -0.7926   25.4573 C   0  0  0  0  0  0  0  0  0  0  0  0
   10.5677   -3.4462   20.5323 C   0  0  0  0  0  0  0  0  0  0  0  0
  1  8  1  0
  1 12  4  0
  1 14  4  0
  2  3  4  0
  2 18  4  0
  3 20  4  0
  3 22  4  0
  4 11  4  0
  4 21  4  0
  5  9  4  0
  5 16  4  0
  6 15  4  0
  6 16  4  0
  7 22  4  0
  7 26  4  0
  8 10  4  0
  8 25  4  0
  9 15  4  0
  9 17  1  0
 10 21  4  0
 11 25  4  0
 12 23  4  0
 13 20  4  0
 13 26  4  0
 14 19  4  0
 17 18  4  0
 17 24  4  0
 19 23  4  0
 20 24  4  0
 23 26  1  0
M  END
$$$$

 Created by Python create_sdf_string function

 26 30  0  0  0  0  0  0  0  0999 V2000
   10.0084   -1.8019   23.4945 C   0  0  0  0  0  0  0  0  0  0  0  0
   10.0005   -4.2520   16.5631 C   0  0  0  0  0  0  0  0  0  0  0  0
   10.2759   -4.0036   17.8845 C   0  0  0  0  0  0  0  0  0  0  0  0
    8.5652    1.5478   25.3778 N   0  0  0  0  0  0  0  0  0  0  0  0
    6.8048   -7.5457   17.8752 C   0  0  0  0  0  0  0  0  0  0  0  0
    6.1721   -8.2186   15.9886 N   0  0  0  0  0  0  0  0  0  0  0  0
   11.1764   -2.6600   19.5604 C   0  0  0  0  0  0  0  0  0  0  0  0
    9.5491   -0.6380   24.1912 C   0  0  0  0  0  0  0  0  0  0  0  0
    7.5337   -6.9256   16.9519 C   0  0  0  0  0  0  0  0  0  0  0  0
    9.6782    0.5671   23.5143 C   0  0  0  0  0  0  0  0  0  0  0  0
    8.4532    0.3482   26.0821 C   0  0  0  0  0  0  0  0  0  0  0  0
   10.4239   -1.7677   22.2230 N   0  0  0  0  0  0  0  0  0  0  0  0
    9.9468   -4.5953   20.1709 C   0  0  0  0  0  0  0  0  0  0  0  0
   10.0366   -3.0590   23.9864 N   0  0  0  0  0  0  0  0  0  0  0  0
    7.1191   -7.3636   15.7739 C   0  0  0  0  0  0  0  0  0  0  0  0
    5.9612   -8.3203   17.2732 N   0  0  0  0  0  0  0  0  0  0  0  0
    8.5296   -5.9814   17.1841 C   0  0  0  0  0  0  0  0  0  0  0  0
    9.1527   -5.2118   16.2116 C   0  0  0  0  0  0  0  0  0  0  0  0
   10.3364   -3.8368   22.9255 O   0  0  0  0  0  0  0  0  0  0  0  0
    9.6947   -4.8407   18.8534 C   0  0  0  0  0  0  0  0  0  0  0  0
    9.1596    1.7042   24.1381 C   0  0  0  0  0  0  0  0  0  0  0  0
   11.0456   -2.9774   18.2694 N   0  0  0  0  0  0  0  0  0  0  0  0
   10.4788   -3.0457   21.8593 C   0  0  0  0  0  0  0  0  0  0  0  0
    8.8693   -5.8099   18.4657 N   0  0  0  0  0  0  0  0  0  0  0  0
    8.9892   -0.7926   25.4573 C   0  0  0  0  0  0  0  0  0  0  0  0
   10.5677   -3.4462   20.5323 C   0  0  0  0  0  0  0  0  0  0  0  0
  1  8  1  0
  1 12  4  0
  1 14  4  0
  2  3  4  0
  2 18  4  0
  3 20  4  0
  3 22  4  0
  4 11  4  0
  4 21  4  0
  5  9  4  0
  5 16  4  0
  6 15  4  0
  6 16  4  0
  7 22  4  0
  7 26  4  0
  8 10  4  0
  8 25  4  0
  9 15  4  0
  9 17  1  0
 10 21  4  0
 11 25  4  0
 12 23  4  0
 13 20  4  0
 13 26  4  0
 14 19  4  0
 17 18  4  0
 17 24  4  0
 19 23  4  0
 20 24  4  0
 23 26  1  0
M  END
$$$$

 Created by Python create_sdf_string function

 26 30  0  0  0  0  0  0  0  0999 V2000
   10.0084   -1.8019   23.4945 C   0  0  0  0  0  0  0  0  0  0  0  0
   10.0005   -4.2520   16.5631 C   0  0  0  0  0  0  0  0  0  0  0  0
   10.2759   -4.0036   17.8845 C   0  0  0  0  0  0  0  0  0  0  0  0
    8.5652    1.5478   25.3778 N   0  0  0  0  0  0  0  0  0  0  0  0
    6.8048   -7.5457   17.8752 C   0  0  0  0  0  0  0  0  0  0  0  0
    6.1721   -8.2186   15.9886 N   0  0  0  0  0  0  0  0  0  0  0  0
   11.1764   -2.6600   19.5604 C   0  0  0  0  0  0  0  0  0  0  0  0
    9.5491   -0.6380   24.1912 C   0  0  0  0  0  0  0  0  0  0  0  0
    7.5337   -6.9256   16.9519 C   0  0  0  0  0  0  0  0  0  0  0  0
    9.6782    0.5671   23.5143 C   0  0  0  0  0  0  0  0  0  0  0  0
    8.4532    0.3482   26.0821 C   0  0  0  0  0  0  0  0  0  0  0  0
   10.4239   -1.7677   22.2230 N   0  0  0  0  0  0  0  0  0  0  0  0
    9.9468   -4.5953   20.1709 C   0  0  0  0  0  0  0  0  0  0  0  0
   10.0366   -3.0590   23.9864 N   0  0  0  0  0  0  0  0  0  0  0  0
    7.1191   -7.3636   15.7739 C   0  0  0  0  0  0  0  0  0  0  0  0
    5.9612   -8.3203   17.2732 N   0  0  0  0  0  0  0  0  0  0  0  0
    8.5296   -5.9814   17.1841 C   0  0  0  0  0  0  0  0  0  0  0  0
    9.1527   -5.2118   16.2116 C   0  0  0  0  0  0  0  0  0  0  0  0
   10.3364   -3.8368   22.9255 O   0  0  0  0  0  0  0  0  0  0  0  0
    9.6947   -4.8407   18.8534 C   0  0  0  0  0  0  0  0  0  0  0  0
    9.1596    1.7042   24.1381 C   0  0  0  0  0  0  0  0  0  0  0  0
   11.0456   -2.9774   18.2694 N   0  0  0  0  0  0  0  0  0  0  0  0
   10.4788   -3.0457   21.8593 C   0  0  0  0  0  0  0  0  0  0  0  0
    8.8693   -5.8099   18.4657 N   0  0  0  0  0  0  0  0  0  0  0  0
    8.9892   -0.7926   25.4573 C   0  0  0  0  0  0  0  0  0  0  0  0
   10.5677   -3.4462   20.5323 C   0  0  0  0  0  0  0  0  0  0  0  0
  1  8  1  0
  1 12  4  0
  1 14  4  0
  2  3  4  0
  2 18  4  0
  3 20  4  0
  3 22  4  0
  4 11  4  0
  4 21  4  0
  5  9  4  0
  5 16  4  0
  6 15  4  0
  6 16  4  0
  7 22  4  0
  7 26  4  0
  8 10  4  0
  8 25  4  0
  9 15  4  0
  9 17  1  0
 10 21  4  0
 11 25  4  0
 12 23  4  0
 13 20  4  0
 13 26  4  0
 14 19  4  0
 17 18  4  0
 17 24  4  0
 19 23  4  0
 20 24  4  0
 23 26  1  0
M  END
$$$$

 Created by Python create_sdf_string function

 26 30  0  0  0  0  0  0  0  0999 V2000
   10.0084   -1.8019   23.4945 C   0  0  0  0  0  0  0  0  0  0  0  0
   10.0005   -4.2520   16.5631 C   0  0  0  0  0  0  0  0  0  0  0  0
   10.2759   -4.0036   17.8845 C   0  0  0  0  0  0  0  0  0  0  0  0
    8.5652    1.5478   25.3778 N   0  0  0  0  0  0  0  0  0  0  0  0
    6.8048   -7.5457   17.8752 C   0  0  0  0  0  0  0  0  0  0  0  0
    6.1721   -8.2186   15.9886 N   0  0  0  0  0  0  0  0  0  0  0  0
   11.1764   -2.6600   19.5604 C   0  0  0  0  0  0  0  0  0  0  0  0
    9.5491   -0.6380   24.1912 C   0  0  0  0  0  0  0  0  0  0  0  0
    7.5337   -6.9256   16.9519 C   0  0  0  0  0  0  0  0  0  0  0  0
    9.6782    0.5671   23.5143 C   0  0  0  0  0  0  0  0  0  0  0  0
    8.4532    0.3482   26.0821 C   0  0  0  0  0  0  0  0  0  0  0  0
   10.4239   -1.7677   22.2230 N   0  0  0  0  0  0  0  0  0  0  0  0
    9.9468   -4.5953   20.1709 C   0  0  0  0  0  0  0  0  0  0  0  0
   10.0366   -3.0590   23.9864 N   0  0  0  0  0  0  0  0  0  0  0  0
    7.1191   -7.3636   15.7739 C   0  0  0  0  0  0  0  0  0  0  0  0
    5.9612   -8.3203   17.2732 N   0  0  0  0  0  0  0  0  0  0  0  0
    8.5296   -5.9814   17.1841 C   0  0  0  0  0  0  0  0  0  0  0  0
    9.1527   -5.2118   16.2116 C   0  0  0  0  0  0  0  0  0  0  0  0
   10.3364   -3.8368   22.9255 O   0  0  0  0  0  0  0  0  0  0  0  0
    9.6947   -4.8407   18.8534 C   0  0  0  0  0  0  0  0  0  0  0  0
    9.1596    1.7042   24.1381 C   0  0  0  0  0  0  0  0  0  0  0  0
   11.0456   -2.9774   18.2694 N   0  0  0  0  0  0  0  0  0  0  0  0
   10.4788   -3.0457   21.8593 C   0  0  0  0  0  0  0  0  0  0  0  0
    8.8693   -5.8099   18.4657 N   0  0  0  0  0  0  0  0  0  0  0  0
    8.9892   -0.7926   25.4573 C   0  0  0  0  0  0  0  0  0  0  0  0
   10.5677   -3.4462   20.5323 C   0  0  0  0  0  0  0  0  0  0  0  0
  1  8  1  0
  1 12  4  0
  1 14  4  0
  2  3  4  0
  2 18  4  0
  3 20  4  0
  3 22  4  0
  4 11  4  0
  4 21  4  0
  5  9  4  0
  5 16  4  0
  6 15  4  0
  6 16  4  0
  7 22  4  0
  7 26  4  0
  8 10  4  0
  8 25  4  0
  9 15  4  0
  9 17  1  0
 10 21  4  0
 11 25  4  0
 12 23  4  0
 13 20  4  0
 13 26  4  0
 14 19  4  0
 17 18  4  0
 17 24  4  0
 19 23  4  0
 20 24  4  0
 23 26  1  0
M  END
$$$$

 Created by Python create_sdf_string function

 26 30  0  0  0  0  0  0  0  0999 V2000
   10.0084   -1.8019   23.4945 C   0  0  0  0  0  0  0  0  0  0  0  0
   10.0005   -4.2520   16.5631 C   0  0  0  0  0  0  0  0  0  0  0  0
   10.2759   -4.0036   17.8845 C   0  0  0  0  0  0  0  0  0  0  0  0
    8.5652    1.5478   25.3778 N   0  0  0  0  0  0  0  0  0  0  0  0
    6.8048   -7.5457   17.8752 C   0  0  0  0  0  0  0  0  0  0  0  0
    6.1721   -8.2186   15.9886 N   0  0  0  0  0  0  0  0  0  0  0  0
   11.1764   -2.6600   19.5604 C   0  0  0  0  0  0  0  0  0  0  0  0
    9.5491   -0.6380   24.1912 C   0  0  0  0  0  0  0  0  0  0  0  0
    7.5337   -6.9256   16.9519 C   0  0  0  0  0  0  0  0  0  0  0  0
    9.6782    0.5671   23.5143 C   0  0  0  0  0  0  0  0  0  0  0  0
    8.4532    0.3482   26.0821 C   0  0  0  0  0  0  0  0  0  0  0  0
   10.4239   -1.7677   22.2230 N   0  0  0  0  0  0  0  0  0  0  0  0
    9.9468   -4.5953   20.1709 C   0  0  0  0  0  0  0  0  0  0  0  0
   10.0366   -3.0590   23.9864 N   0  0  0  0  0  0  0  0  0  0  0  0
    7.1191   -7.3636   15.7739 C   0  0  0  0  0  0  0  0  0  0  0  0
    5.9612   -8.3203   17.2732 N   0  0  0  0  0  0  0  0  0  0  0  0
    8.5296   -5.9814   17.1841 C   0  0  0  0  0  0  0  0  0  0  0  0
    9.1527   -5.2118   16.2116 C   0  0  0  0  0  0  0  0  0  0  0  0
   10.3364   -3.8368   22.9255 O   0  0  0  0  0  0  0  0  0  0  0  0
    9.6947   -4.8407   18.8534 C   0  0  0  0  0  0  0  0  0  0  0  0
    9.1596    1.7042   24.1381 C   0  0  0  0  0  0  0  0  0  0  0  0
   11.0456   -2.9774   18.2694 N   0  0  0  0  0  0  0  0  0  0  0  0
   10.4788   -3.0457   21.8593 C   0  0  0  0  0  0  0  0  0  0  0  0
    8.8693   -5.8099   18.4657 N   0  0  0  0  0  0  0  0  0  0  0  0
    8.9892   -0.7926   25.4573 C   0  0  0  0  0  0  0  0  0  0  0  0
   10.5677   -3.4462   20.5323 C   0  0  0  0  0  0  0  0  0  0  0  0
  1  8  1  0
  1 12  4  0
  1 14  4  0
  2  3  4  0
  2 18  4  0
  3 20  4  0
  3 22  4  0
  4 11  4  0
  4 21  4  0
  5  9  4  0
  5 16  4  0
  6 15  4  0
  6 16  4  0
  7 22  4  0
  7 26  4  0
  8 10  4  0
  8 25  4  0
  9 15  4  0
  9 17  1  0
 10 21  4  0
 11 25  4  0
 12 23  4  0
 13 20  4  0
 13 26  4  0
 14 19  4  0
 17 18  4  0
 17 24  4  0
 19 23  4  0
 20 24  4  0
 23 26  1  0
M  END
$$$$

 Created by Python create_sdf_string function

 26 30  0  0  0  0  0  0  0  0999 V2000
   10.0084   -1.8019   23.4945 C   0  0  0  0  0  0  0  0  0  0  0  0
   10.0005   -4.2520   16.5631 C   0  0  0  0  0  0  0  0  0  0  0  0
   10.2759   -4.0036   17.8845 C   0  0  0  0  0  0  0  0  0  0  0  0
    8.5652    1.5478   25.3778 N   0  0  0  0  0  0  0  0  0  0  0  0
    6.8048   -7.5457   17.8752 C   0  0  0  0  0  0  0  0  0  0  0  0
    6.1721   -8.2186   15.9886 N   0  0  0  0  0  0  0  0  0  0  0  0
   11.1764   -2.6600   19.5604 C   0  0  0  0  0  0  0  0  0  0  0  0
    9.5491   -0.6380   24.1912 C   0  0  0  0  0  0  0  0  0  0  0  0
    7.5337   -6.9256   16.9519 C   0  0  0  0  0  0  0  0  0  0  0  0
    9.6782    0.5671   23.5143 C   0  0  0  0  0  0  0  0  0  0  0  0
    8.4532    0.3482   26.0821 C   0  0  0  0  0  0  0  0  0  0  0  0
   10.4239   -1.7677   22.2230 N   0  0  0  0  0  0  0  0  0  0  0  0
    9.9468   -4.5953   20.1709 C   0  0  0  0  0  0  0  0  0  0  0  0
   10.0366   -3.0590   23.9864 N   0  0  0  0  0  0  0  0  0  0  0  0
    7.1191   -7.3636   15.7739 C   0  0  0  0  0  0  0  0  0  0  0  0
    5.9612   -8.3203   17.2732 N   0  0  0  0  0  0  0  0  0  0  0  0
    8.5296   -5.9814   17.1841 C   0  0  0  0  0  0  0  0  0  0  0  0
    9.1527   -5.2118   16.2116 C   0  0  0  0  0  0  0  0  0  0  0  0
   10.3364   -3.8368   22.9255 O   0  0  0  0  0  0  0  0  0  0  0  0
    9.6947   -4.8407   18.8534 C   0  0  0  0  0  0  0  0  0  0  0  0
    9.1596    1.7042   24.1381 C   0  0  0  0  0  0  0  0  0  0  0  0
   11.0456   -2.9774   18.2694 N   0  0  0  0  0  0  0  0  0  0  0  0
   10.4788   -3.0457   21.8593 C   0  0  0  0  0  0  0  0  0  0  0  0
    8.8693   -5.8099   18.4657 N   0  0  0  0  0  0  0  0  0  0  0  0
    8.9892   -0.7926   25.4573 C   0  0  0  0  0  0  0  0  0  0  0  0
   10.5677   -3.4462   20.5323 C   0  0  0  0  0  0  0  0  0  0  0  0
  1  8  1  0
  1 12  4  0
  1 14  4  0
  2  3  4  0
  2 18  4  0
  3 20  4  0
  3 22  4  0
  4 11  4  0
  4 21  4  0
  5  9  4  0
  5 16  4  0
  6 15  4  0
  6 16  4  0
  7 22  4  0
  7 26  4  0
  8 10  4  0
  8 25  4  0
  9 15  4  0
  9 17  1  0
 10 21  4  0
 11 25  4  0
 12 23  4  0
 13 20  4  0
 13 26  4  0
 14 19  4  0
 17 18  4  0
 17 24  4  0
 19 23  4  0
 20 24  4  0
 23 26  1  0
M  END
$$$$

 Created by Python create_sdf_string function

 26 30  0  0  0  0  0  0  0  0999 V2000
   10.0084   -1.8019   23.4945 C   0  0  0  0  0  0  0  0  0  0  0  0
   10.0005   -4.2520   16.5631 C   0  0  0  0  0  0  0  0  0  0  0  0
   10.2759   -4.0036   17.8845 C   0  0  0  0  0  0  0  0  0  0  0  0
    8.5652    1.5478   25.3778 N   0  0  0  0  0  0  0  0  0  0  0  0
    6.8048   -7.5457   17.8752 C   0  0  0  0  0  0  0  0  0  0  0  0
    6.1721   -8.2186   15.9886 N   0  0  0  0  0  0  0  0  0  0  0  0
   11.1764   -2.6600   19.5604 C   0  0  0  0  0  0  0  0  0  0  0  0
    9.5491   -0.6380   24.1912 C   0  0  0  0  0  0  0  0  0  0  0  0
    7.5337   -6.9256   16.9519 C   0  0  0  0  0  0  0  0  0  0  0  0
    9.6782    0.5671   23.5143 C   0  0  0  0  0  0  0  0  0  0  0  0
    8.4532    0.3482   26.0821 C   0  0  0  0  0  0  0  0  0  0  0  0
   10.4239   -1.7677   22.2230 N   0  0  0  0  0  0  0  0  0  0  0  0
    9.9468   -4.5953   20.1709 C   0  0  0  0  0  0  0  0  0  0  0  0
   10.0366   -3.0590   23.9864 N   0  0  0  0  0  0  0  0  0  0  0  0
    7.1191   -7.3636   15.7739 C   0  0  0  0  0  0  0  0  0  0  0  0
    5.9612   -8.3203   17.2732 N   0  0  0  0  0  0  0  0  0  0  0  0
    8.5296   -5.9814   17.1841 C   0  0  0  0  0  0  0  0  0  0  0  0
    9.1527   -5.2118   16.2116 C   0  0  0  0  0  0  0  0  0  0  0  0
   10.3364   -3.8368   22.9255 O   0  0  0  0  0  0  0  0  0  0  0  0
    9.6947   -4.8407   18.8534 C   0  0  0  0  0  0  0  0  0  0  0  0
    9.1596    1.7042   24.1381 C   0  0  0  0  0  0  0  0  0  0  0  0
   11.0456   -2.9774   18.2694 N   0  0  0  0  0  0  0  0  0  0  0  0
   10.4788   -3.0457   21.8593 C   0  0  0  0  0  0  0  0  0  0  0  0
    8.8693   -5.8099   18.4657 N   0  0  0  0  0  0  0  0  0  0  0  0
    8.9892   -0.7926   25.4573 C   0  0  0  0  0  0  0  0  0  0  0  0
   10.5677   -3.4462   20.5323 C   0  0  0  0  0  0  0  0  0  0  0  0
  1  8  1  0
  1 12  4  0
  1 14  4  0
  2  3  4  0
  2 18  4  0
  3 20  4  0
  3 22  4  0
  4 11  4  0
  4 21  4  0
  5  9  4  0
  5 16  4  0
  6 15  4  0
  6 16  4  0
  7 22  4  0
  7 26  4  0
  8 10  4  0
  8 25  4  0
  9 15  4  0
  9 17  1  0
 10 21  4  0
 11 25  4  0
 12 23  4  0
 13 20  4  0
 13 26  4  0
 14 19  4  0
 17 18  4  0
 17 24  4  0
 19 23  4  0
 20 24  4  0
 23 26  1  0
M  END
$$$$

 Created by Python create_sdf_string function

 26 30  0  0  0  0  0  0  0  0999 V2000
   10.0084   -1.8019   23.4945 C   0  0  0  0  0  0  0  0  0  0  0  0
   10.0005   -4.2520   16.5631 C   0  0  0  0  0  0  0  0  0  0  0  0
   10.2759   -4.0036   17.8845 C   0  0  0  0  0  0  0  0  0  0  0  0
    8.5652    1.5478   25.3778 N   0  0  0  0  0  0  0  0  0  0  0  0
    6.8048   -7.5457   17.8752 C   0  0  0  0  0  0  0  0  0  0  0  0
    6.1721   -8.2186   15.9886 N   0  0  0  0  0  0  0  0  0  0  0  0
   11.1764   -2.6600   19.5604 C   0  0  0  0  0  0  0  0  0  0  0  0
    9.5491   -0.6380   24.1912 C   0  0  0  0  0  0  0  0  0  0  0  0
    7.5337   -6.9256   16.9519 C   0  0  0  0  0  0  0  0  0  0  0  0
    9.6782    0.5671   23.5143 C   0  0  0  0  0  0  0  0  0  0  0  0
    8.4532    0.3482   26.0821 C   0  0  0  0  0  0  0  0  0  0  0  0
   10.4239   -1.7677   22.2230 N   0  0  0  0  0  0  0  0  0  0  0  0
    9.9468   -4.5953   20.1709 C   0  0  0  0  0  0  0  0  0  0  0  0
   10.0366   -3.0590   23.9864 N   0  0  0  0  0  0  0  0  0  0  0  0
    7.1191   -7.3636   15.7739 C   0  0  0  0  0  0  0  0  0  0  0  0
    5.9612   -8.3203   17.2732 N   0  0  0  0  0  0  0  0  0  0  0  0
    8.5296   -5.9814   17.1841 C   0  0  0  0  0  0  0  0  0  0  0  0
    9.1527   -5.2118   16.2116 C   0  0  0  0  0  0  0  0  0  0  0  0
   10.3364   -3.8368   22.9255 O   0  0  0  0  0  0  0  0  0  0  0  0
    9.6947   -4.8407   18.8534 C   0  0  0  0  0  0  0  0  0  0  0  0
    9.1596    1.7042   24.1381 C   0  0  0  0  0  0  0  0  0  0  0  0
   11.0456   -2.9774   18.2694 N   0  0  0  0  0  0  0  0  0  0  0  0
   10.4788   -3.0457   21.8593 C   0  0  0  0  0  0  0  0  0  0  0  0
    8.8693   -5.8099   18.4657 N   0  0  0  0  0  0  0  0  0  0  0  0
    8.9892   -0.7926   25.4573 C   0  0  0  0  0  0  0  0  0  0  0  0
   10.5677   -3.4462   20.5323 C   0  0  0  0  0  0  0  0  0  0  0  0
  1  8  1  0
  1 12  4  0
  1 14  4  0
  2  3  4  0
  2 18  4  0
  3 20  4  0
  3 22  4  0
  4 11  4  0
  4 21  4  0
  5  9  4  0
  5 16  4  0
  6 15  4  0
  6 16  4  0
  7 22  4  0
  7 26  4  0
  8 10  4  0
  8 25  4  0
  9 15  4  0
  9 17  1  0
 10 21  4  0
 11 25  4  0
 12 23  4  0
 13 20  4  0
 13 26  4  0
 14 19  4  0
 17 18  4  0
 17 24  4  0
 19 23  4  0
 20 24  4  0
 23 26  1  0
M  END
$$$$

 Created by Python create_sdf_string function

 26 30  0  0  0  0  0  0  0  0999 V2000
   10.0084   -1.8019   23.4945 C   0  0  0  0  0  0  0  0  0  0  0  0
   10.0005   -4.2520   16.5631 C   0  0  0  0  0  0  0  0  0  0  0  0
   10.2759   -4.0036   17.8845 C   0  0  0  0  0  0  0  0  0  0  0  0
    8.5652    1.5478   25.3778 N   0  0  0  0  0  0  0  0  0  0  0  0
    6.8048   -7.5457   17.8752 C   0  0  0  0  0  0  0  0  0  0  0  0
    6.1721   -8.2186   15.9886 N   0  0  0  0  0  0  0  0  0  0  0  0
   11.1764   -2.6600   19.5604 C   0  0  0  0  0  0  0  0  0  0  0  0
    9.5491   -0.6380   24.1912 C   0  0  0  0  0  0  0  0  0  0  0  0
    7.5337   -6.9256   16.9519 C   0  0  0  0  0  0  0  0  0  0  0  0
    9.6782    0.5671   23.5143 C   0  0  0  0  0  0  0  0  0  0  0  0
    8.4532    0.3482   26.0821 C   0  0  0  0  0  0  0  0  0  0  0  0
   10.4239   -1.7677   22.2230 N   0  0  0  0  0  0  0  0  0  0  0  0
    9.9468   -4.5953   20.1709 C   0  0  0  0  0  0  0  0  0  0  0  0
   10.0366   -3.0590   23.9864 N   0  0  0  0  0  0  0  0  0  0  0  0
    7.1191   -7.3636   15.7739 C   0  0  0  0  0  0  0  0  0  0  0  0
    5.9612   -8.3203   17.2732 N   0  0  0  0  0  0  0  0  0  0  0  0
    8.5296   -5.9814   17.1841 C   0  0  0  0  0  0  0  0  0  0  0  0
    9.1527   -5.2118   16.2116 C   0  0  0  0  0  0  0  0  0  0  0  0
   10.3364   -3.8368   22.9255 O   0  0  0  0  0  0  0  0  0  0  0  0
    9.6947   -4.8407   18.8534 C   0  0  0  0  0  0  0  0  0  0  0  0
    9.1596    1.7042   24.1381 C   0  0  0  0  0  0  0  0  0  0  0  0
   11.0456   -2.9774   18.2694 N   0  0  0  0  0  0  0  0  0  0  0  0
   10.4788   -3.0457   21.8593 C   0  0  0  0  0  0  0  0  0  0  0  0
    8.8693   -5.8099   18.4657 N   0  0  0  0  0  0  0  0  0  0  0  0
    8.9892   -0.7926   25.4573 C   0  0  0  0  0  0  0  0  0  0  0  0
   10.5677   -3.4462   20.5323 C   0  0  0  0  0  0  0  0  0  0  0  0
  1  8  1  0
  1 12  4  0
  1 14  4  0
  2  3  4  0
  2 18  4  0
  3 20  4  0
  3 22  4  0
  4 11  4  0
  4 21  4  0
  5  9  4  0
  5 16  4  0
  6 15  4  0
  6 16  4  0
  7 22  4  0
  7 26  4  0
  8 10  4  0
  8 25  4  0
  9 15  4  0
  9 17  1  0
 10 21  4  0
 11 25  4  0
 12 23  4  0
 13 20  4  0
 13 26  4  0
 14 19  4  0
 17 18  4  0
 17 24  4  0
 19 23  4  0
 20 24  4  0
 23 26  1  0
M  END
$$$$

 Created by Python create_sdf_string function

 26 30  0  0  0  0  0  0  0  0999 V2000
   10.0084   -1.8019   23.4945 C   0  0  0  0  0  0  0  0  0  0  0  0
   10.0005   -4.2520   16.5631 C   0  0  0  0  0  0  0  0  0  0  0  0
   10.2759   -4.0036   17.8845 C   0  0  0  0  0  0  0  0  0  0  0  0
    8.5652    1.5478   25.3778 N   0  0  0  0  0  0  0  0  0  0  0  0
    6.8048   -7.5457   17.8752 C   0  0  0  0  0  0  0  0  0  0  0  0
    6.1721   -8.2186   15.9886 N   0  0  0  0  0  0  0  0  0  0  0  0
   11.1764   -2.6600   19.5604 C   0  0  0  0  0  0  0  0  0  0  0  0
    9.5491   -0.6380   24.1912 C   0  0  0  0  0  0  0  0  0  0  0  0
    7.5337   -6.9256   16.9519 C   0  0  0  0  0  0  0  0  0  0  0  0
    9.6782    0.5671   23.5143 C   0  0  0  0  0  0  0  0  0  0  0  0
    8.4532    0.3482   26.0821 C   0  0  0  0  0  0  0  0  0  0  0  0
   10.4239   -1.7677   22.2230 N   0  0  0  0  0  0  0  0  0  0  0  0
    9.9468   -4.5953   20.1709 C   0  0  0  0  0  0  0  0  0  0  0  0
   10.0366   -3.0590   23.9864 N   0  0  0  0  0  0  0  0  0  0  0  0
    7.1191   -7.3636   15.7739 C   0  0  0  0  0  0  0  0  0  0  0  0
    5.9612   -8.3203   17.2732 N   0  0  0  0  0  0  0  0  0  0  0  0
    8.5296   -5.9814   17.1841 C   0  0  0  0  0  0  0  0  0  0  0  0
    9.1527   -5.2118   16.2116 C   0  0  0  0  0  0  0  0  0  0  0  0
   10.3364   -3.8368   22.9255 O   0  0  0  0  0  0  0  0  0  0  0  0
    9.6947   -4.8407   18.8534 C   0  0  0  0  0  0  0  0  0  0  0  0
    9.1596    1.7042   24.1381 C   0  0  0  0  0  0  0  0  0  0  0  0
   11.0456   -2.9774   18.2694 N   0  0  0  0  0  0  0  0  0  0  0  0
   10.4788   -3.0457   21.8593 C   0  0  0  0  0  0  0  0  0  0  0  0
    8.8693   -5.8099   18.4657 N   0  0  0  0  0  0  0  0  0  0  0  0
    8.9892   -0.7926   25.4573 C   0  0  0  0  0  0  0  0  0  0  0  0
   10.5677   -3.4462   20.5323 C   0  0  0  0  0  0  0  0  0  0  0  0
  1  8  1  0
  1 12  4  0
  1 14  4  0
  2  3  4  0
  2 18  4  0
  3 20  4  0
  3 22  4  0
  4 11  4  0
  4 21  4  0
  5  9  4  0
  5 16  4  0
  6 15  4  0
  6 16  4  0
  7 22  4  0
  7 26  4  0
  8 10  4  0
  8 25  4  0
  9 15  4  0
  9 17  1  0
 10 21  4  0
 11 25  4  0
 12 23  4  0
 13 20  4  0
 13 26  4  0
 14 19  4  0
 17 18  4  0
 17 24  4  0
 19 23  4  0
 20 24  4  0
 23 26  1  0
M  END
$$$$

 Created by Python create_sdf_string function

 26 30  0  0  0  0  0  0  0  0999 V2000
   10.0084   -1.8019   23.4945 C   0  0  0  0  0  0  0  0  0  0  0  0
   10.0005   -4.2520   16.5631 C   0  0  0  0  0  0  0  0  0  0  0  0
   10.2759   -4.0036   17.8845 C   0  0  0  0  0  0  0  0  0  0  0  0
    8.5652    1.5478   25.3778 N   0  0  0  0  0  0  0  0  0  0  0  0
    6.8048   -7.5457   17.8752 C   0  0  0  0  0  0  0  0  0  0  0  0
    6.1721   -8.2186   15.9886 N   0  0  0  0  0  0  0  0  0  0  0  0
   11.1764   -2.6600   19.5604 C   0  0  0  0  0  0  0  0  0  0  0  0
    9.5491   -0.6380   24.1912 C   0  0  0  0  0  0  0  0  0  0  0  0
    7.5337   -6.9256   16.9519 C   0  0  0  0  0  0  0  0  0  0  0  0
    9.6782    0.5671   23.5143 C   0  0  0  0  0  0  0  0  0  0  0  0
    8.4532    0.3482   26.0821 C   0  0  0  0  0  0  0  0  0  0  0  0
   10.4239   -1.7677   22.2230 N   0  0  0  0  0  0  0  0  0  0  0  0
    9.9468   -4.5953   20.1709 C   0  0  0  0  0  0  0  0  0  0  0  0
   10.0366   -3.0590   23.9864 N   0  0  0  0  0  0  0  0  0  0  0  0
    7.1191   -7.3636   15.7739 C   0  0  0  0  0  0  0  0  0  0  0  0
    5.9612   -8.3203   17.2732 N   0  0  0  0  0  0  0  0  0  0  0  0
    8.5296   -5.9814   17.1841 C   0  0  0  0  0  0  0  0  0  0  0  0
    9.1527   -5.2118   16.2116 C   0  0  0  0  0  0  0  0  0  0  0  0
   10.3364   -3.8368   22.9255 O   0  0  0  0  0  0  0  0  0  0  0  0
    9.6947   -4.8407   18.8534 C   0  0  0  0  0  0  0  0  0  0  0  0
    9.1596    1.7042   24.1381 C   0  0  0  0  0  0  0  0  0  0  0  0
   11.0456   -2.9774   18.2694 N   0  0  0  0  0  0  0  0  0  0  0  0
   10.4788   -3.0457   21.8593 C   0  0  0  0  0  0  0  0  0  0  0  0
    8.8693   -5.8099   18.4657 N   0  0  0  0  0  0  0  0  0  0  0  0
    8.9892   -0.7926   25.4573 C   0  0  0  0  0  0  0  0  0  0  0  0
   10.5677   -3.4462   20.5323 C   0  0  0  0  0  0  0  0  0  0  0  0
  1  8  1  0
  1 12  4  0
  1 14  4  0
  2  3  4  0
  2 18  4  0
  3 20  4  0
  3 22  4  0
  4 11  4  0
  4 21  4  0
  5  9  4  0
  5 16  4  0
  6 15  4  0
  6 16  4  0
  7 22  4  0
  7 26  4  0
  8 10  4  0
  8 25  4  0
  9 15  4  0
  9 17  1  0
 10 21  4  0
 11 25  4  0
 12 23  4  0
 13 20  4  0
 13 26  4  0
 14 19  4  0
 17 18  4  0
 17 24  4  0
 19 23  4  0
 20 24  4  0
 23 26  1  0
M  END
$$$$

 Created by Python create_sdf_string function

 26 30  0  0  0  0  0  0  0  0999 V2000
   10.0084   -1.8019   23.4945 C   0  0  0  0  0  0  0  0  0  0  0  0
   10.0005   -4.2520   16.5631 C   0  0  0  0  0  0  0  0  0  0  0  0
   10.2759   -4.0036   17.8845 C   0  0  0  0  0  0  0  0  0  0  0  0
    8.5652    1.5478   25.3778 N   0  0  0  0  0  0  0  0  0  0  0  0
    6.8048   -7.5457   17.8752 C   0  0  0  0  0  0  0  0  0  0  0  0
    6.1721   -8.2186   15.9886 N   0  0  0  0  0  0  0  0  0  0  0  0
   11.1764   -2.6600   19.5604 C   0  0  0  0  0  0  0  0  0  0  0  0
    9.5491   -0.6380   24.1912 C   0  0  0  0  0  0  0  0  0  0  0  0
    7.5337   -6.9256   16.9519 C   0  0  0  0  0  0  0  0  0  0  0  0
    9.6782    0.5671   23.5143 C   0  0  0  0  0  0  0  0  0  0  0  0
    8.4532    0.3482   26.0821 C   0  0  0  0  0  0  0  0  0  0  0  0
   10.4239   -1.7677   22.2230 N   0  0  0  0  0  0  0  0  0  0  0  0
    9.9468   -4.5953   20.1709 C   0  0  0  0  0  0  0  0  0  0  0  0
   10.0366   -3.0590   23.9864 N   0  0  0  0  0  0  0  0  0  0  0  0
    7.1191   -7.3636   15.7739 C   0  0  0  0  0  0  0  0  0  0  0  0
    5.9612   -8.3203   17.2732 N   0  0  0  0  0  0  0  0  0  0  0  0
    8.5296   -5.9814   17.1841 C   0  0  0  0  0  0  0  0  0  0  0  0
    9.1527   -5.2118   16.2116 C   0  0  0  0  0  0  0  0  0  0  0  0
   10.3364   -3.8368   22.9255 O   0  0  0  0  0  0  0  0  0  0  0  0
    9.6947   -4.8407   18.8534 C   0  0  0  0  0  0  0  0  0  0  0  0
    9.1596    1.7042   24.1381 C   0  0  0  0  0  0  0  0  0  0  0  0
   11.0456   -2.9774   18.2694 N   0  0  0  0  0  0  0  0  0  0  0  0
   10.4788   -3.0457   21.8593 C   0  0  0  0  0  0  0  0  0  0  0  0
    8.8693   -5.8099   18.4657 N   0  0  0  0  0  0  0  0  0  0  0  0
    8.9892   -0.7926   25.4573 C   0  0  0  0  0  0  0  0  0  0  0  0
   10.5677   -3.4462   20.5323 C   0  0  0  0  0  0  0  0  0  0  0  0
  1  8  1  0
  1 12  4  0
  1 14  4  0
  2  3  4  0
  2 18  4  0
  3 20  4  0
  3 22  4  0
  4 11  4  0
  4 21  4  0
  5  9  4  0
  5 16  4  0
  6 15  4  0
  6 16  4  0
  7 22  4  0
  7 26  4  0
  8 10  4  0
  8 25  4  0
  9 15  4  0
  9 17  1  0
 10 21  4  0
 11 25  4  0
 12 23  4  0
 13 20  4  0
 13 26  4  0
 14 19  4  0
 17 18  4  0
 17 24  4  0
 19 23  4  0
 20 24  4  0
 23 26  1  0
M  END
$$$$

 Created by Python create_sdf_string function

 26 30  0  0  0  0  0  0  0  0999 V2000
   10.0084   -1.8019   23.4945 C   0  0  0  0  0  0  0  0  0  0  0  0
   10.0005   -4.2520   16.5631 C   0  0  0  0  0  0  0  0  0  0  0  0
   10.2759   -4.0036   17.8845 C   0  0  0  0  0  0  0  0  0  0  0  0
    8.5652    1.5478   25.3778 N   0  0  0  0  0  0  0  0  0  0  0  0
    6.8048   -7.5457   17.8752 C   0  0  0  0  0  0  0  0  0  0  0  0
    6.1721   -8.2186   15.9886 N   0  0  0  0  0  0  0  0  0  0  0  0
   11.1764   -2.6600   19.5604 C   0  0  0  0  0  0  0  0  0  0  0  0
    9.5491   -0.6380   24.1912 C   0  0  0  0  0  0  0  0  0  0  0  0
    7.5337   -6.9256   16.9519 C   0  0  0  0  0  0  0  0  0  0  0  0
    9.6782    0.5671   23.5143 C   0  0  0  0  0  0  0  0  0  0  0  0
    8.4532    0.3482   26.0821 C   0  0  0  0  0  0  0  0  0  0  0  0
   10.4239   -1.7677   22.2230 N   0  0  0  0  0  0  0  0  0  0  0  0
    9.9468   -4.5953   20.1709 C   0  0  0  0  0  0  0  0  0  0  0  0
   10.0366   -3.0590   23.9864 N   0  0  0  0  0  0  0  0  0  0  0  0
    7.1191   -7.3636   15.7739 C   0  0  0  0  0  0  0  0  0  0  0  0
    5.9612   -8.3203   17.2732 N   0  0  0  0  0  0  0  0  0  0  0  0
    8.5296   -5.9814   17.1841 C   0  0  0  0  0  0  0  0  0  0  0  0
    9.1527   -5.2118   16.2116 C   0  0  0  0  0  0  0  0  0  0  0  0
   10.3364   -3.8368   22.9255 O   0  0  0  0  0  0  0  0  0  0  0  0
    9.6947   -4.8407   18.8534 C   0  0  0  0  0  0  0  0  0  0  0  0
    9.1596    1.7042   24.1381 C   0  0  0  0  0  0  0  0  0  0  0  0
   11.0456   -2.9774   18.2694 N   0  0  0  0  0  0  0  0  0  0  0  0
   10.4788   -3.0457   21.8593 C   0  0  0  0  0  0  0  0  0  0  0  0
    8.8693   -5.8099   18.4657 N   0  0  0  0  0  0  0  0  0  0  0  0
    8.9892   -0.7926   25.4573 C   0  0  0  0  0  0  0  0  0  0  0  0
   10.5677   -3.4462   20.5323 C   0  0  0  0  0  0  0  0  0  0  0  0
  1  8  1  0
  1 12  4  0
  1 14  4  0
  2  3  4  0
  2 18  4  0
  3 20  4  0
  3 22  4  0
  4 11  4  0
  4 21  4  0
  5  9  4  0
  5 16  4  0
  6 15  4  0
  6 16  4  0
  7 22  4  0
  7 26  4  0
  8 10  4  0
  8 25  4  0
  9 15  4  0
  9 17  1  0
 10 21  4  0
 11 25  4  0
 12 23  4  0
 13 20  4  0
 13 26  4  0
 14 19  4  0
 17 18  4  0
 17 24  4  0
 19 23  4  0
 20 24  4  0
 23 26  1  0
M  END
$$$$

 Created by Python create_sdf_string function

 26 30  0  0  0  0  0  0  0  0999 V2000
   10.0084   -1.8019   23.4945 C   0  0  0  0  0  0  0  0  0  0  0  0
   10.0005   -4.2520   16.5631 C   0  0  0  0  0  0  0  0  0  0  0  0
   10.2759   -4.0036   17.8845 C   0  0  0  0  0  0  0  0  0  0  0  0
    8.5652    1.5478   25.3778 N   0  0  0  0  0  0  0  0  0  0  0  0
    6.8048   -7.5457   17.8752 C   0  0  0  0  0  0  0  0  0  0  0  0
    6.1721   -8.2186   15.9886 N   0  0  0  0  0  0  0  0  0  0  0  0
   11.1764   -2.6600   19.5604 C   0  0  0  0  0  0  0  0  0  0  0  0
    9.5491   -0.6380   24.1912 C   0  0  0  0  0  0  0  0  0  0  0  0
    7.5337   -6.9256   16.9519 C   0  0  0  0  0  0  0  0  0  0  0  0
    9.6782    0.5671   23.5143 C   0  0  0  0  0  0  0  0  0  0  0  0
    8.4532    0.3482   26.0821 C   0  0  0  0  0  0  0  0  0  0  0  0
   10.4239   -1.7677   22.2230 N   0  0  0  0  0  0  0  0  0  0  0  0
    9.9468   -4.5953   20.1709 C   0  0  0  0  0  0  0  0  0  0  0  0
   10.0366   -3.0590   23.9864 N   0  0  0  0  0  0  0  0  0  0  0  0
    7.1191   -7.3636   15.7739 C   0  0  0  0  0  0  0  0  0  0  0  0
    5.9612   -8.3203   17.2732 N   0  0  0  0  0  0  0  0  0  0  0  0
    8.5296   -5.9814   17.1841 C   0  0  0  0  0  0  0  0  0  0  0  0
    9.1527   -5.2118   16.2116 C   0  0  0  0  0  0  0  0  0  0  0  0
   10.3364   -3.8368   22.9255 O   0  0  0  0  0  0  0  0  0  0  0  0
    9.6947   -4.8407   18.8534 C   0  0  0  0  0  0  0  0  0  0  0  0
    9.1596    1.7042   24.1381 C   0  0  0  0  0  0  0  0  0  0  0  0
   11.0456   -2.9774   18.2694 N   0  0  0  0  0  0  0  0  0  0  0  0
   10.4788   -3.0457   21.8593 C   0  0  0  0  0  0  0  0  0  0  0  0
    8.8693   -5.8099   18.4657 N   0  0  0  0  0  0  0  0  0  0  0  0
    8.9892   -0.7926   25.4573 C   0  0  0  0  0  0  0  0  0  0  0  0
   10.5677   -3.4462   20.5323 C   0  0  0  0  0  0  0  0  0  0  0  0
  1  8  1  0
  1 12  4  0
  1 14  4  0
  2  3  4  0
  2 18  4  0
  3 20  4  0
  3 22  4  0
  4 11  4  0
  4 21  4  0
  5  9  4  0
  5 16  4  0
  6 15  4  0
  6 16  4  0
  7 22  4  0
  7 26  4  0
  8 10  4  0
  8 25  4  0
  9 15  4  0
  9 17  1  0
 10 21  4  0
 11 25  4  0
 12 23  4  0
 13 20  4  0
 13 26  4  0
 14 19  4  0
 17 18  4  0
 17 24  4  0
 19 23  4  0
 20 24  4  0
 23 26  1  0
M  END
$$$$

 Created by Python create_sdf_string function

 26 30  0  0  0  0  0  0  0  0999 V2000
   10.0084   -1.8019   23.4945 C   0  0  0  0  0  0  0  0  0  0  0  0
   10.0005   -4.2520   16.5631 C   0  0  0  0  0  0  0  0  0  0  0  0
   10.2759   -4.0036   17.8845 C   0  0  0  0  0  0  0  0  0  0  0  0
    8.5652    1.5478   25.3778 N   0  0  0  0  0  0  0  0  0  0  0  0
    6.8048   -7.5457   17.8752 C   0  0  0  0  0  0  0  0  0  0  0  0
    6.1721   -8.2186   15.9886 N   0  0  0  0  0  0  0  0  0  0  0  0
   11.1764   -2.6600   19.5604 C   0  0  0  0  0  0  0  0  0  0  0  0
    9.5491   -0.6380   24.1912 C   0  0  0  0  0  0  0  0  0  0  0  0
    7.5337   -6.9256   16.9519 C   0  0  0  0  0  0  0  0  0  0  0  0
    9.6782    0.5671   23.5143 C   0  0  0  0  0  0  0  0  0  0  0  0
    8.4532    0.3482   26.0821 C   0  0  0  0  0  0  0  0  0  0  0  0
   10.4239   -1.7677   22.2230 N   0  0  0  0  0  0  0  0  0  0  0  0
    9.9468   -4.5953   20.1709 C   0  0  0  0  0  0  0  0  0  0  0  0
   10.0366   -3.0590   23.9864 N   0  0  0  0  0  0  0  0  0  0  0  0
    7.1191   -7.3636   15.7739 C   0  0  0  0  0  0  0  0  0  0  0  0
    5.9612   -8.3203   17.2732 N   0  0  0  0  0  0  0  0  0  0  0  0
    8.5296   -5.9814   17.1841 C   0  0  0  0  0  0  0  0  0  0  0  0
    9.1527   -5.2118   16.2116 C   0  0  0  0  0  0  0  0  0  0  0  0
   10.3364   -3.8368   22.9255 O   0  0  0  0  0  0  0  0  0  0  0  0
    9.6947   -4.8407   18.8534 C   0  0  0  0  0  0  0  0  0  0  0  0
    9.1596    1.7042   24.1381 C   0  0  0  0  0  0  0  0  0  0  0  0
   11.0456   -2.9774   18.2694 N   0  0  0  0  0  0  0  0  0  0  0  0
   10.4788   -3.0457   21.8593 C   0  0  0  0  0  0  0  0  0  0  0  0
    8.8693   -5.8099   18.4657 N   0  0  0  0  0  0  0  0  0  0  0  0
    8.9892   -0.7926   25.4573 C   0  0  0  0  0  0  0  0  0  0  0  0
   10.5677   -3.4462   20.5323 C   0  0  0  0  0  0  0  0  0  0  0  0
  1  8  1  0
  1 12  4  0
  1 14  4  0
  2  3  4  0
  2 18  4  0
  3 20  4  0
  3 22  4  0
  4 11  4  0
  4 21  4  0
  5  9  4  0
  5 16  4  0
  6 15  4  0
  6 16  4  0
  7 22  4  0
  7 26  4  0
  8 10  4  0
  8 25  4  0
  9 15  4  0
  9 17  1  0
 10 21  4  0
 11 25  4  0
 12 23  4  0
 13 20  4  0
 13 26  4  0
 14 19  4  0
 17 18  4  0
 17 24  4  0
 19 23  4  0
 20 24  4  0
 23 26  1  0
M  END
$$$$

 Created by Python create_sdf_string function

 26 30  0  0  0  0  0  0  0  0999 V2000
   10.0084   -1.8019   23.4945 C   0  0  0  0  0  0  0  0  0  0  0  0
   10.0005   -4.2520   16.5631 C   0  0  0  0  0  0  0  0  0  0  0  0
   10.2759   -4.0036   17.8845 C   0  0  0  0  0  0  0  0  0  0  0  0
    8.5652    1.5478   25.3778 N   0  0  0  0  0  0  0  0  0  0  0  0
    6.8048   -7.5457   17.8752 C   0  0  0  0  0  0  0  0  0  0  0  0
    6.1721   -8.2186   15.9886 N   0  0  0  0  0  0  0  0  0  0  0  0
   11.1764   -2.6600   19.5604 C   0  0  0  0  0  0  0  0  0  0  0  0
    9.5491   -0.6380   24.1912 C   0  0  0  0  0  0  0  0  0  0  0  0
    7.5337   -6.9256   16.9519 C   0  0  0  0  0  0  0  0  0  0  0  0
    9.6782    0.5671   23.5143 C   0  0  0  0  0  0  0  0  0  0  0  0
    8.4532    0.3482   26.0821 C   0  0  0  0  0  0  0  0  0  0  0  0
   10.4239   -1.7677   22.2230 N   0  0  0  0  0  0  0  0  0  0  0  0
    9.9468   -4.5953   20.1709 C   0  0  0  0  0  0  0  0  0  0  0  0
   10.0366   -3.0590   23.9864 N   0  0  0  0  0  0  0  0  0  0  0  0
    7.1191   -7.3636   15.7739 C   0  0  0  0  0  0  0  0  0  0  0  0
    5.9612   -8.3203   17.2732 N   0  0  0  0  0  0  0  0  0  0  0  0
    8.5296   -5.9814   17.1841 C   0  0  0  0  0  0  0  0  0  0  0  0
    9.1527   -5.2118   16.2116 C   0  0  0  0  0  0  0  0  0  0  0  0
   10.3364   -3.8368   22.9255 O   0  0  0  0  0  0  0  0  0  0  0  0
    9.6947   -4.8407   18.8534 C   0  0  0  0  0  0  0  0  0  0  0  0
    9.1596    1.7042   24.1381 C   0  0  0  0  0  0  0  0  0  0  0  0
   11.0456   -2.9774   18.2694 N   0  0  0  0  0  0  0  0  0  0  0  0
   10.4788   -3.0457   21.8593 C   0  0  0  0  0  0  0  0  0  0  0  0
    8.8693   -5.8099   18.4657 N   0  0  0  0  0  0  0  0  0  0  0  0
    8.9892   -0.7926   25.4573 C   0  0  0  0  0  0  0  0  0  0  0  0
   10.5677   -3.4462   20.5323 C   0  0  0  0  0  0  0  0  0  0  0  0
  1  8  1  0
  1 12  4  0
  1 14  4  0
  2  3  4  0
  2 18  4  0
  3 20  4  0
  3 22  4  0
  4 11  4  0
  4 21  4  0
  5  9  4  0
  5 16  4  0
  6 15  4  0
  6 16  4  0
  7 22  4  0
  7 26  4  0
  8 10  4  0
  8 25  4  0
  9 15  4  0
  9 17  1  0
 10 21  4  0
 11 25  4  0
 12 23  4  0
 13 20  4  0
 13 26  4  0
 14 19  4  0
 17 18  4  0
 17 24  4  0
 19 23  4  0
 20 24  4  0
 23 26  1  0
M  END
$$$$

 Created by Python create_sdf_string function

 26 30  0  0  0  0  0  0  0  0999 V2000
   10.0084   -1.8019   23.4945 C   0  0  0  0  0  0  0  0  0  0  0  0
   10.0005   -4.2520   16.5631 C   0  0  0  0  0  0  0  0  0  0  0  0
   10.2759   -4.0036   17.8845 C   0  0  0  0  0  0  0  0  0  0  0  0
    8.5652    1.5478   25.3778 N   0  0  0  0  0  0  0  0  0  0  0  0
    6.8048   -7.5457   17.8752 C   0  0  0  0  0  0  0  0  0  0  0  0
    6.1721   -8.2186   15.9886 N   0  0  0  0  0  0  0  0  0  0  0  0
   11.1764   -2.6600   19.5604 C   0  0  0  0  0  0  0  0  0  0  0  0
    9.5491   -0.6380   24.1912 C   0  0  0  0  0  0  0  0  0  0  0  0
    7.5337   -6.9256   16.9519 C   0  0  0  0  0  0  0  0  0  0  0  0
    9.6782    0.5671   23.5143 C   0  0  0  0  0  0  0  0  0  0  0  0
    8.4532    0.3482   26.0821 C   0  0  0  0  0  0  0  0  0  0  0  0
   10.4239   -1.7677   22.2230 N   0  0  0  0  0  0  0  0  0  0  0  0
    9.9468   -4.5953   20.1709 C   0  0  0  0  0  0  0  0  0  0  0  0
   10.0366   -3.0590   23.9864 N   0  0  0  0  0  0  0  0  0  0  0  0
    7.1191   -7.3636   15.7739 C   0  0  0  0  0  0  0  0  0  0  0  0
    5.9612   -8.3203   17.2732 N   0  0  0  0  0  0  0  0  0  0  0  0
    8.5296   -5.9814   17.1841 C   0  0  0  0  0  0  0  0  0  0  0  0
    9.1527   -5.2118   16.2116 C   0  0  0  0  0  0  0  0  0  0  0  0
   10.3364   -3.8368   22.9255 O   0  0  0  0  0  0  0  0  0  0  0  0
    9.6947   -4.8407   18.8534 C   0  0  0  0  0  0  0  0  0  0  0  0
    9.1596    1.7042   24.1381 C   0  0  0  0  0  0  0  0  0  0  0  0
   11.0456   -2.9774   18.2694 N   0  0  0  0  0  0  0  0  0  0  0  0
   10.4788   -3.0457   21.8593 C   0  0  0  0  0  0  0  0  0  0  0  0
    8.8693   -5.8099   18.4657 N   0  0  0  0  0  0  0  0  0  0  0  0
    8.9892   -0.7926   25.4573 C   0  0  0  0  0  0  0  0  0  0  0  0
   10.5677   -3.4462   20.5323 C   0  0  0  0  0  0  0  0  0  0  0  0
  1  8  1  0
  1 12  4  0
  1 14  4  0
  2  3  4  0
  2 18  4  0
  3 20  4  0
  3 22  4  0
  4 11  4  0
  4 21  4  0
  5  9  4  0
  5 16  4  0
  6 15  4  0
  6 16  4  0
  7 22  4  0
  7 26  4  0
  8 10  4  0
  8 25  4  0
  9 15  4  0
  9 17  1  0
 10 21  4  0
 11 25  4  0
 12 23  4  0
 13 20  4  0
 13 26  4  0
 14 19  4  0
 17 18  4  0
 17 24  4  0
 19 23  4  0
 20 24  4  0
 23 26  1  0
M  END
$$$$

 Created by Python create_sdf_string function

 26 30  0  0  0  0  0  0  0  0999 V2000
   10.0084   -1.8019   23.4945 C   0  0  0  0  0  0  0  0  0  0  0  0
   10.0005   -4.2520   16.5631 C   0  0  0  0  0  0  0  0  0  0  0  0
   10.2759   -4.0036   17.8845 C   0  0  0  0  0  0  0  0  0  0  0  0
    8.5652    1.5478   25.3778 N   0  0  0  0  0  0  0  0  0  0  0  0
    6.8048   -7.5457   17.8752 C   0  0  0  0  0  0  0  0  0  0  0  0
    6.1721   -8.2186   15.9886 N   0  0  0  0  0  0  0  0  0  0  0  0
   11.1764   -2.6600   19.5604 C   0  0  0  0  0  0  0  0  0  0  0  0
    9.5491   -0.6380   24.1912 C   0  0  0  0  0  0  0  0  0  0  0  0
    7.5337   -6.9256   16.9519 C   0  0  0  0  0  0  0  0  0  0  0  0
    9.6782    0.5671   23.5143 C   0  0  0  0  0  0  0  0  0  0  0  0
    8.4532    0.3482   26.0821 C   0  0  0  0  0  0  0  0  0  0  0  0
   10.4239   -1.7677   22.2230 N   0  0  0  0  0  0  0  0  0  0  0  0
    9.9468   -4.5953   20.1709 C   0  0  0  0  0  0  0  0  0  0  0  0
   10.0366   -3.0590   23.9864 N   0  0  0  0  0  0  0  0  0  0  0  0
    7.1191   -7.3636   15.7739 C   0  0  0  0  0  0  0  0  0  0  0  0
    5.9612   -8.3203   17.2732 N   0  0  0  0  0  0  0  0  0  0  0  0
    8.5296   -5.9814   17.1841 C   0  0  0  0  0  0  0  0  0  0  0  0
    9.1527   -5.2118   16.2116 C   0  0  0  0  0  0  0  0  0  0  0  0
   10.3364   -3.8368   22.9255 O   0  0  0  0  0  0  0  0  0  0  0  0
    9.6947   -4.8407   18.8534 C   0  0  0  0  0  0  0  0  0  0  0  0
    9.1596    1.7042   24.1381 C   0  0  0  0  0  0  0  0  0  0  0  0
   11.0456   -2.9774   18.2694 N   0  0  0  0  0  0  0  0  0  0  0  0
   10.4788   -3.0457   21.8593 C   0  0  0  0  0  0  0  0  0  0  0  0
    8.8693   -5.8099   18.4657 N   0  0  0  0  0  0  0  0  0  0  0  0
    8.9892   -0.7926   25.4573 C   0  0  0  0  0  0  0  0  0  0  0  0
   10.5677   -3.4462   20.5323 C   0  0  0  0  0  0  0  0  0  0  0  0
  1  8  1  0
  1 12  4  0
  1 14  4  0
  2  3  4  0
  2 18  4  0
  3 20  4  0
  3 22  4  0
  4 11  4  0
  4 21  4  0
  5  9  4  0
  5 16  4  0
  6 15  4  0
  6 16  4  0
  7 22  4  0
  7 26  4  0
  8 10  4  0
  8 25  4  0
  9 15  4  0
  9 17  1  0
 10 21  4  0
 11 25  4  0
 12 23  4  0
 13 20  4  0
 13 26  4  0
 14 19  4  0
 17 18  4  0
 17 24  4  0
 19 23  4  0
 20 24  4  0
 23 26  1  0
M  END
$$$$

 Created by Python create_sdf_string function

 26 30  0  0  0  0  0  0  0  0999 V2000
   10.0084   -1.8019   23.4945 C   0  0  0  0  0  0  0  0  0  0  0  0
   10.0005   -4.2520   16.5631 C   0  0  0  0  0  0  0  0  0  0  0  0
   10.2759   -4.0036   17.8845 C   0  0  0  0  0  0  0  0  0  0  0  0
    8.5652    1.5478   25.3778 N   0  0  0  0  0  0  0  0  0  0  0  0
    6.8048   -7.5457   17.8752 C   0  0  0  0  0  0  0  0  0  0  0  0
    6.1721   -8.2186   15.9886 N   0  0  0  0  0  0  0  0  0  0  0  0
   11.1764   -2.6600   19.5604 C   0  0  0  0  0  0  0  0  0  0  0  0
    9.5491   -0.6380   24.1912 C   0  0  0  0  0  0  0  0  0  0  0  0
    7.5337   -6.9256   16.9519 C   0  0  0  0  0  0  0  0  0  0  0  0
    9.6782    0.5671   23.5143 C   0  0  0  0  0  0  0  0  0  0  0  0
    8.4532    0.3482   26.0821 C   0  0  0  0  0  0  0  0  0  0  0  0
   10.4239   -1.7677   22.2230 N   0  0  0  0  0  0  0  0  0  0  0  0
    9.9468   -4.5953   20.1709 C   0  0  0  0  0  0  0  0  0  0  0  0
   10.0366   -3.0590   23.9864 N   0  0  0  0  0  0  0  0  0  0  0  0
    7.1191   -7.3636   15.7739 C   0  0  0  0  0  0  0  0  0  0  0  0
    5.9612   -8.3203   17.2732 N   0  0  0  0  0  0  0  0  0  0  0  0
    8.5296   -5.9814   17.1841 C   0  0  0  0  0  0  0  0  0  0  0  0
    9.1527   -5.2118   16.2116 C   0  0  0  0  0  0  0  0  0  0  0  0
   10.3364   -3.8368   22.9255 O   0  0  0  0  0  0  0  0  0  0  0  0
    9.6947   -4.8407   18.8534 C   0  0  0  0  0  0  0  0  0  0  0  0
    9.1596    1.7042   24.1381 C   0  0  0  0  0  0  0  0  0  0  0  0
   11.0456   -2.9774   18.2694 N   0  0  0  0  0  0  0  0  0  0  0  0
   10.4788   -3.0457   21.8593 C   0  0  0  0  0  0  0  0  0  0  0  0
    8.8693   -5.8099   18.4657 N   0  0  0  0  0  0  0  0  0  0  0  0
    8.9892   -0.7926   25.4573 C   0  0  0  0  0  0  0  0  0  0  0  0
   10.5677   -3.4462   20.5323 C   0  0  0  0  0  0  0  0  0  0  0  0
  1  8  1  0
  1 12  4  0
  1 14  4  0
  2  3  4  0
  2 18  4  0
  3 20  4  0
  3 22  4  0
  4 11  4  0
  4 21  4  0
  5  9  4  0
  5 16  4  0
  6 15  4  0
  6 16  4  0
  7 22  4  0
  7 26  4  0
  8 10  4  0
  8 25  4  0
  9 15  4  0
  9 17  1  0
 10 21  4  0
 11 25  4  0
 12 23  4  0
 13 20  4  0
 13 26  4  0
 14 19  4  0
 17 18  4  0
 17 24  4  0
 19 23  4  0
 20 24  4  0
 23 26  1  0
M  END
$$$$

 Created by Python create_sdf_string function

 26 30  0  0  0  0  0  0  0  0999 V2000
   10.0084   -1.8019   23.4945 C   0  0  0  0  0  0  0  0  0  0  0  0
   10.0005   -4.2520   16.5631 C   0  0  0  0  0  0  0  0  0  0  0  0
   10.2759   -4.0036   17.8845 C   0  0  0  0  0  0  0  0  0  0  0  0
    8.5652    1.5478   25.3778 N   0  0  0  0  0  0  0  0  0  0  0  0
    6.8048   -7.5457   17.8752 C   0  0  0  0  0  0  0  0  0  0  0  0
    6.1721   -8.2186   15.9886 N   0  0  0  0  0  0  0  0  0  0  0  0
   11.1764   -2.6600   19.5604 C   0  0  0  0  0  0  0  0  0  0  0  0
    9.5491   -0.6380   24.1912 C   0  0  0  0  0  0  0  0  0  0  0  0
    7.5337   -6.9256   16.9519 C   0  0  0  0  0  0  0  0  0  0  0  0
    9.6782    0.5671   23.5143 C   0  0  0  0  0  0  0  0  0  0  0  0
    8.4532    0.3482   26.0821 C   0  0  0  0  0  0  0  0  0  0  0  0
   10.4239   -1.7677   22.2230 N   0  0  0  0  0  0  0  0  0  0  0  0
    9.9468   -4.5953   20.1709 C   0  0  0  0  0  0  0  0  0  0  0  0
   10.0366   -3.0590   23.9864 N   0  0  0  0  0  0  0  0  0  0  0  0
    7.1191   -7.3636   15.7739 C   0  0  0  0  0  0  0  0  0  0  0  0
    5.9612   -8.3203   17.2732 N   0  0  0  0  0  0  0  0  0  0  0  0
    8.5296   -5.9814   17.1841 C   0  0  0  0  0  0  0  0  0  0  0  0
    9.1527   -5.2118   16.2116 C   0  0  0  0  0  0  0  0  0  0  0  0
   10.3364   -3.8368   22.9255 O   0  0  0  0  0  0  0  0  0  0  0  0
    9.6947   -4.8407   18.8534 C   0  0  0  0  0  0  0  0  0  0  0  0
    9.1596    1.7042   24.1381 C   0  0  0  0  0  0  0  0  0  0  0  0
   11.0456   -2.9774   18.2694 N   0  0  0  0  0  0  0  0  0  0  0  0
   10.4788   -3.0457   21.8593 C   0  0  0  0  0  0  0  0  0  0  0  0
    8.8693   -5.8099   18.4657 N   0  0  0  0  0  0  0  0  0  0  0  0
    8.9892   -0.7926   25.4573 C   0  0  0  0  0  0  0  0  0  0  0  0
   10.5677   -3.4462   20.5323 C   0  0  0  0  0  0  0  0  0  0  0  0
  1  8  1  0
  1 12  4  0
  1 14  4  0
  2  3  4  0
  2 18  4  0
  3 20  4  0
  3 22  4  0
  4 11  4  0
  4 21  4  0
  5  9  4  0
  5 16  4  0
  6 15  4  0
  6 16  4  0
  7 22  4  0
  7 26  4  0
  8 10  4  0
  8 25  4  0
  9 15  4  0
  9 17  1  0
 10 21  4  0
 11 25  4  0
 12 23  4  0
 13 20  4  0
 13 26  4  0
 14 19  4  0
 17 18  4  0
 17 24  4  0
 19 23  4  0
 20 24  4  0
 23 26  1  0
M  END
$$$$

 Created by Python create_sdf_string function

 26 30  0  0  0  0  0  0  0  0999 V2000
   10.0084   -1.8019   23.4945 C   0  0  0  0  0  0  0  0  0  0  0  0
   10.0005   -4.2520   16.5631 C   0  0  0  0  0  0  0  0  0  0  0  0
   10.2759   -4.0036   17.8845 C   0  0  0  0  0  0  0  0  0  0  0  0
    8.5652    1.5478   25.3778 N   0  0  0  0  0  0  0  0  0  0  0  0
    6.8048   -7.5457   17.8752 C   0  0  0  0  0  0  0  0  0  0  0  0
    6.1721   -8.2186   15.9886 N   0  0  0  0  0  0  0  0  0  0  0  0
   11.1764   -2.6600   19.5604 C   0  0  0  0  0  0  0  0  0  0  0  0
    9.5491   -0.6380   24.1912 C   0  0  0  0  0  0  0  0  0  0  0  0
    7.5337   -6.9256   16.9519 C   0  0  0  0  0  0  0  0  0  0  0  0
    9.6782    0.5671   23.5143 C   0  0  0  0  0  0  0  0  0  0  0  0
    8.4532    0.3482   26.0821 C   0  0  0  0  0  0  0  0  0  0  0  0
   10.4239   -1.7677   22.2230 N   0  0  0  0  0  0  0  0  0  0  0  0
    9.9468   -4.5953   20.1709 C   0  0  0  0  0  0  0  0  0  0  0  0
   10.0366   -3.0590   23.9864 N   0  0  0  0  0  0  0  0  0  0  0  0
    7.1191   -7.3636   15.7739 C   0  0  0  0  0  0  0  0  0  0  0  0
    5.9612   -8.3203   17.2732 N   0  0  0  0  0  0  0  0  0  0  0  0
    8.5296   -5.9814   17.1841 C   0  0  0  0  0  0  0  0  0  0  0  0
    9.1527   -5.2118   16.2116 C   0  0  0  0  0  0  0  0  0  0  0  0
   10.3364   -3.8368   22.9255 O   0  0  0  0  0  0  0  0  0  0  0  0
    9.6947   -4.8407   18.8534 C   0  0  0  0  0  0  0  0  0  0  0  0
    9.1596    1.7042   24.1381 C   0  0  0  0  0  0  0  0  0  0  0  0
   11.0456   -2.9774   18.2694 N   0  0  0  0  0  0  0  0  0  0  0  0
   10.4788   -3.0457   21.8593 C   0  0  0  0  0  0  0  0  0  0  0  0
    8.8693   -5.8099   18.4657 N   0  0  0  0  0  0  0  0  0  0  0  0
    8.9892   -0.7926   25.4573 C   0  0  0  0  0  0  0  0  0  0  0  0
   10.5677   -3.4462   20.5323 C   0  0  0  0  0  0  0  0  0  0  0  0
  1  8  1  0
  1 12  4  0
  1 14  4  0
  2  3  4  0
  2 18  4  0
  3 20  4  0
  3 22  4  0
  4 11  4  0
  4 21  4  0
  5  9  4  0
  5 16  4  0
  6 15  4  0
  6 16  4  0
  7 22  4  0
  7 26  4  0
  8 10  4  0
  8 25  4  0
  9 15  4  0
  9 17  1  0
 10 21  4  0
 11 25  4  0
 12 23  4  0
 13 20  4  0
 13 26  4  0
 14 19  4  0
 17 18  4  0
 17 24  4  0
 19 23  4  0
 20 24  4  0
 23 26  1  0
M  END
$$$$

 Created by Python create_sdf_string function

 26 30  0  0  0  0  0  0  0  0999 V2000
   10.0084   -1.8019   23.4945 C   0  0  0  0  0  0  0  0  0  0  0  0
   10.0005   -4.2520   16.5631 C   0  0  0  0  0  0  0  0  0  0  0  0
   10.2759   -4.0036   17.8845 C   0  0  0  0  0  0  0  0  0  0  0  0
    8.5652    1.5478   25.3778 N   0  0  0  0  0  0  0  0  0  0  0  0
    6.8048   -7.5457   17.8752 C   0  0  0  0  0  0  0  0  0  0  0  0
    6.1721   -8.2186   15.9886 N   0  0  0  0  0  0  0  0  0  0  0  0
   11.1764   -2.6600   19.5604 C   0  0  0  0  0  0  0  0  0  0  0  0
    9.5491   -0.6380   24.1912 C   0  0  0  0  0  0  0  0  0  0  0  0
    7.5337   -6.9256   16.9519 C   0  0  0  0  0  0  0  0  0  0  0  0
    9.6782    0.5671   23.5143 C   0  0  0  0  0  0  0  0  0  0  0  0
    8.4532    0.3482   26.0821 C   0  0  0  0  0  0  0  0  0  0  0  0
   10.4239   -1.7677   22.2230 N   0  0  0  0  0  0  0  0  0  0  0  0
    9.9468   -4.5953   20.1709 C   0  0  0  0  0  0  0  0  0  0  0  0
   10.0366   -3.0590   23.9864 N   0  0  0  0  0  0  0  0  0  0  0  0
    7.1191   -7.3636   15.7739 C   0  0  0  0  0  0  0  0  0  0  0  0
    5.9612   -8.3203   17.2732 N   0  0  0  0  0  0  0  0  0  0  0  0
    8.5296   -5.9814   17.1841 C   0  0  0  0  0  0  0  0  0  0  0  0
    9.1527   -5.2118   16.2116 C   0  0  0  0  0  0  0  0  0  0  0  0
   10.3364   -3.8368   22.9255 O   0  0  0  0  0  0  0  0  0  0  0  0
    9.6947   -4.8407   18.8534 C   0  0  0  0  0  0  0  0  0  0  0  0
    9.1596    1.7042   24.1381 C   0  0  0  0  0  0  0  0  0  0  0  0
   11.0456   -2.9774   18.2694 N   0  0  0  0  0  0  0  0  0  0  0  0
   10.4788   -3.0457   21.8593 C   0  0  0  0  0  0  0  0  0  0  0  0
    8.8693   -5.8099   18.4657 N   0  0  0  0  0  0  0  0  0  0  0  0
    8.9892   -0.7926   25.4573 C   0  0  0  0  0  0  0  0  0  0  0  0
   10.5677   -3.4462   20.5323 C   0  0  0  0  0  0  0  0  0  0  0  0
  1  8  1  0
  1 12  4  0
  1 14  4  0
  2  3  4  0
  2 18  4  0
  3 20  4  0
  3 22  4  0
  4 11  4  0
  4 21  4  0
  5  9  4  0
  5 16  4  0
  6 15  4  0
  6 16  4  0
  7 22  4  0
  7 26  4  0
  8 10  4  0
  8 25  4  0
  9 15  4  0
  9 17  1  0
 10 21  4  0
 11 25  4  0
 12 23  4  0
 13 20  4  0
 13 26  4  0
 14 19  4  0
 17 18  4  0
 17 24  4  0
 19 23  4  0
 20 24  4  0
 23 26  1  0
M  END
$$$$

 Created by Python create_sdf_string function

 26 30  0  0  0  0  0  0  0  0999 V2000
   10.0084   -1.8019   23.4945 C   0  0  0  0  0  0  0  0  0  0  0  0
   10.0005   -4.2520   16.5631 C   0  0  0  0  0  0  0  0  0  0  0  0
   10.2759   -4.0036   17.8845 C   0  0  0  0  0  0  0  0  0  0  0  0
    8.5652    1.5478   25.3778 N   0  0  0  0  0  0  0  0  0  0  0  0
    6.8048   -7.5457   17.8752 C   0  0  0  0  0  0  0  0  0  0  0  0
    6.1721   -8.2186   15.9886 N   0  0  0  0  0  0  0  0  0  0  0  0
   11.1764   -2.6600   19.5604 C   0  0  0  0  0  0  0  0  0  0  0  0
    9.5491   -0.6380   24.1912 C   0  0  0  0  0  0  0  0  0  0  0  0
    7.5337   -6.9256   16.9519 C   0  0  0  0  0  0  0  0  0  0  0  0
    9.6782    0.5671   23.5143 C   0  0  0  0  0  0  0  0  0  0  0  0
    8.4532    0.3482   26.0821 C   0  0  0  0  0  0  0  0  0  0  0  0
   10.4239   -1.7677   22.2230 N   0  0  0  0  0  0  0  0  0  0  0  0
    9.9468   -4.5953   20.1709 C   0  0  0  0  0  0  0  0  0  0  0  0
   10.0366   -3.0590   23.9864 N   0  0  0  0  0  0  0  0  0  0  0  0
    7.1191   -7.3636   15.7739 C   0  0  0  0  0  0  0  0  0  0  0  0
    5.9612   -8.3203   17.2732 N   0  0  0  0  0  0  0  0  0  0  0  0
    8.5296   -5.9814   17.1841 C   0  0  0  0  0  0  0  0  0  0  0  0
    9.1527   -5.2118   16.2116 C   0  0  0  0  0  0  0  0  0  0  0  0
   10.3364   -3.8368   22.9255 O   0  0  0  0  0  0  0  0  0  0  0  0
    9.6947   -4.8407   18.8534 C   0  0  0  0  0  0  0  0  0  0  0  0
    9.1596    1.7042   24.1381 C   0  0  0  0  0  0  0  0  0  0  0  0
   11.0456   -2.9774   18.2694 N   0  0  0  0  0  0  0  0  0  0  0  0
   10.4788   -3.0457   21.8593 C   0  0  0  0  0  0  0  0  0  0  0  0
    8.8693   -5.8099   18.4657 N   0  0  0  0  0  0  0  0  0  0  0  0
    8.9892   -0.7926   25.4573 C   0  0  0  0  0  0  0  0  0  0  0  0
   10.5677   -3.4462   20.5323 C   0  0  0  0  0  0  0  0  0  0  0  0
  1  8  1  0
  1 12  4  0
  1 14  4  0
  2  3  4  0
  2 18  4  0
  3 20  4  0
  3 22  4  0
  4 11  4  0
  4 21  4  0
  5  9  4  0
  5 16  4  0
  6 15  4  0
  6 16  4  0
  7 22  4  0
  7 26  4  0
  8 10  4  0
  8 25  4  0
  9 15  4  0
  9 17  1  0
 10 21  4  0
 11 25  4  0
 12 23  4  0
 13 20  4  0
 13 26  4  0
 14 19  4  0
 17 18  4  0
 17 24  4  0
 19 23  4  0
 20 24  4  0
 23 26  1  0
M  END
$$$$

 Created by Python create_sdf_string function

 26 30  0  0  0  0  0  0  0  0999 V2000
   10.0084   -1.8019   23.4945 C   0  0  0  0  0  0  0  0  0  0  0  0
   10.0005   -4.2520   16.5631 C   0  0  0  0  0  0  0  0  0  0  0  0
   10.2759   -4.0036   17.8845 C   0  0  0  0  0  0  0  0  0  0  0  0
    8.5652    1.5478   25.3778 N   0  0  0  0  0  0  0  0  0  0  0  0
    6.8048   -7.5457   17.8752 C   0  0  0  0  0  0  0  0  0  0  0  0
    6.1721   -8.2186   15.9886 N   0  0  0  0  0  0  0  0  0  0  0  0
   11.1764   -2.6600   19.5604 C   0  0  0  0  0  0  0  0  0  0  0  0
    9.5491   -0.6380   24.1912 C   0  0  0  0  0  0  0  0  0  0  0  0
    7.5337   -6.9256   16.9519 C   0  0  0  0  0  0  0  0  0  0  0  0
    9.6782    0.5671   23.5143 C   0  0  0  0  0  0  0  0  0  0  0  0
    8.4532    0.3482   26.0821 C   0  0  0  0  0  0  0  0  0  0  0  0
   10.4239   -1.7677   22.2230 N   0  0  0  0  0  0  0  0  0  0  0  0
    9.9468   -4.5953   20.1709 C   0  0  0  0  0  0  0  0  0  0  0  0
   10.0366   -3.0590   23.9864 N   0  0  0  0  0  0  0  0  0  0  0  0
    7.1191   -7.3636   15.7739 C   0  0  0  0  0  0  0  0  0  0  0  0
    5.9612   -8.3203   17.2732 N   0  0  0  0  0  0  0  0  0  0  0  0
    8.5296   -5.9814   17.1841 C   0  0  0  0  0  0  0  0  0  0  0  0
    9.1527   -5.2118   16.2116 C   0  0  0  0  0  0  0  0  0  0  0  0
   10.3364   -3.8368   22.9255 O   0  0  0  0  0  0  0  0  0  0  0  0
    9.6947   -4.8407   18.8534 C   0  0  0  0  0  0  0  0  0  0  0  0
    9.1596    1.7042   24.1381 C   0  0  0  0  0  0  0  0  0  0  0  0
   11.0456   -2.9774   18.2694 N   0  0  0  0  0  0  0  0  0  0  0  0
   10.4788   -3.0457   21.8593 C   0  0  0  0  0  0  0  0  0  0  0  0
    8.8693   -5.8099   18.4657 N   0  0  0  0  0  0  0  0  0  0  0  0
    8.9892   -0.7926   25.4573 C   0  0  0  0  0  0  0  0  0  0  0  0
   10.5677   -3.4462   20.5323 C   0  0  0  0  0  0  0  0  0  0  0  0
  1  8  1  0
  1 12  4  0
  1 14  4  0
  2  3  4  0
  2 18  4  0
  3 20  4  0
  3 22  4  0
  4 11  4  0
  4 21  4  0
  5  9  4  0
  5 16  4  0
  6 15  4  0
  6 16  4  0
  7 22  4  0
  7 26  4  0
  8 10  4  0
  8 25  4  0
  9 15  4  0
  9 17  1  0
 10 21  4  0
 11 25  4  0
 12 23  4  0
 13 20  4  0
 13 26  4  0
 14 19  4  0
 17 18  4  0
 17 24  4  0
 19 23  4  0
 20 24  4  0
 23 26  1  0
M  END
$$$$

 Created by Python create_sdf_string function

 26 30  0  0  0  0  0  0  0  0999 V2000
   10.0084   -1.8019   23.4945 C   0  0  0  0  0  0  0  0  0  0  0  0
   10.0005   -4.2520   16.5631 C   0  0  0  0  0  0  0  0  0  0  0  0
   10.2759   -4.0036   17.8845 C   0  0  0  0  0  0  0  0  0  0  0  0
    8.5652    1.5478   25.3778 N   0  0  0  0  0  0  0  0  0  0  0  0
    6.8048   -7.5457   17.8752 C   0  0  0  0  0  0  0  0  0  0  0  0
    6.1721   -8.2186   15.9886 N   0  0  0  0  0  0  0  0  0  0  0  0
   11.1764   -2.6600   19.5604 C   0  0  0  0  0  0  0  0  0  0  0  0
    9.5491   -0.6380   24.1912 C   0  0  0  0  0  0  0  0  0  0  0  0
    7.5337   -6.9256   16.9519 C   0  0  0  0  0  0  0  0  0  0  0  0
    9.6782    0.5671   23.5143 C   0  0  0  0  0  0  0  0  0  0  0  0
    8.4532    0.3482   26.0821 C   0  0  0  0  0  0  0  0  0  0  0  0
   10.4239   -1.7677   22.2230 N   0  0  0  0  0  0  0  0  0  0  0  0
    9.9468   -4.5953   20.1709 C   0  0  0  0  0  0  0  0  0  0  0  0
   10.0366   -3.0590   23.9864 N   0  0  0  0  0  0  0  0  0  0  0  0
    7.1191   -7.3636   15.7739 C   0  0  0  0  0  0  0  0  0  0  0  0
    5.9612   -8.3203   17.2732 N   0  0  0  0  0  0  0  0  0  0  0  0
    8.5296   -5.9814   17.1841 C   0  0  0  0  0  0  0  0  0  0  0  0
    9.1527   -5.2118   16.2116 C   0  0  0  0  0  0  0  0  0  0  0  0
   10.3364   -3.8368   22.9255 O   0  0  0  0  0  0  0  0  0  0  0  0
    9.6947   -4.8407   18.8534 C   0  0  0  0  0  0  0  0  0  0  0  0
    9.1596    1.7042   24.1381 C   0  0  0  0  0  0  0  0  0  0  0  0
   11.0456   -2.9774   18.2694 N   0  0  0  0  0  0  0  0  0  0  0  0
   10.4788   -3.0457   21.8593 C   0  0  0  0  0  0  0  0  0  0  0  0
    8.8693   -5.8099   18.4657 N   0  0  0  0  0  0  0  0  0  0  0  0
    8.9892   -0.7926   25.4573 C   0  0  0  0  0  0  0  0  0  0  0  0
   10.5677   -3.4462   20.5323 C   0  0  0  0  0  0  0  0  0  0  0  0
  1  8  1  0
  1 12  4  0
  1 14  4  0
  2  3  4  0
  2 18  4  0
  3 20  4  0
  3 22  4  0
  4 11  4  0
  4 21  4  0
  5  9  4  0
  5 16  4  0
  6 15  4  0
  6 16  4  0
  7 22  4  0
  7 26  4  0
  8 10  4  0
  8 25  4  0
  9 15  4  0
  9 17  1  0
 10 21  4  0
 11 25  4  0
 12 23  4  0
 13 20  4  0
 13 26  4  0
 14 19  4  0
 17 18  4  0
 17 24  4  0
 19 23  4  0
 20 24  4  0
 23 26  1  0
M  END
$$$$

 Created by Python create_sdf_string function

 26 30  0  0  0  0  0  0  0  0999 V2000
   10.0084   -1.8019   23.4945 C   0  0  0  0  0  0  0  0  0  0  0  0
   10.0005   -4.2520   16.5631 C   0  0  0  0  0  0  0  0  0  0  0  0
   10.2759   -4.0036   17.8845 C   0  0  0  0  0  0  0  0  0  0  0  0
    8.5652    1.5478   25.3778 N   0  0  0  0  0  0  0  0  0  0  0  0
    6.8048   -7.5457   17.8752 C   0  0  0  0  0  0  0  0  0  0  0  0
    6.1721   -8.2186   15.9886 N   0  0  0  0  0  0  0  0  0  0  0  0
   11.1764   -2.6600   19.5604 C   0  0  0  0  0  0  0  0  0  0  0  0
    9.5491   -0.6380   24.1912 C   0  0  0  0  0  0  0  0  0  0  0  0
    7.5337   -6.9256   16.9519 C   0  0  0  0  0  0  0  0  0  0  0  0
    9.6782    0.5671   23.5143 C   0  0  0  0  0  0  0  0  0  0  0  0
    8.4532    0.3482   26.0821 C   0  0  0  0  0  0  0  0  0  0  0  0
   10.4239   -1.7677   22.2230 N   0  0  0  0  0  0  0  0  0  0  0  0
    9.9468   -4.5953   20.1709 C   0  0  0  0  0  0  0  0  0  0  0  0
   10.0366   -3.0590   23.9864 N   0  0  0  0  0  0  0  0  0  0  0  0
    7.1191   -7.3636   15.7739 C   0  0  0  0  0  0  0  0  0  0  0  0
    5.9612   -8.3203   17.2732 N   0  0  0  0  0  0  0  0  0  0  0  0
    8.5296   -5.9814   17.1841 C   0  0  0  0  0  0  0  0  0  0  0  0
    9.1527   -5.2118   16.2116 C   0  0  0  0  0  0  0  0  0  0  0  0
   10.3364   -3.8368   22.9255 O   0  0  0  0  0  0  0  0  0  0  0  0
    9.6947   -4.8407   18.8534 C   0  0  0  0  0  0  0  0  0  0  0  0
    9.1596    1.7042   24.1381 C   0  0  0  0  0  0  0  0  0  0  0  0
   11.0456   -2.9774   18.2694 N   0  0  0  0  0  0  0  0  0  0  0  0
   10.4788   -3.0457   21.8593 C   0  0  0  0  0  0  0  0  0  0  0  0
    8.8693   -5.8099   18.4657 N   0  0  0  0  0  0  0  0  0  0  0  0
    8.9892   -0.7926   25.4573 C   0  0  0  0  0  0  0  0  0  0  0  0
   10.5677   -3.4462   20.5323 C   0  0  0  0  0  0  0  0  0  0  0  0
  1  8  1  0
  1 12  4  0
  1 14  4  0
  2  3  4  0
  2 18  4  0
  3 20  4  0
  3 22  4  0
  4 11  4  0
  4 21  4  0
  5  9  4  0
  5 16  4  0
  6 15  4  0
  6 16  4  0
  7 22  4  0
  7 26  4  0
  8 10  4  0
  8 25  4  0
  9 15  4  0
  9 17  1  0
 10 21  4  0
 11 25  4  0
 12 23  4  0
 13 20  4  0
 13 26  4  0
 14 19  4  0
 17 18  4  0
 17 24  4  0
 19 23  4  0
 20 24  4  0
 23 26  1  0
M  END
$$$$

 Created by Python create_sdf_string function

 26 30  0  0  0  0  0  0  0  0999 V2000
   10.0084   -1.8019   23.4945 C   0  0  0  0  0  0  0  0  0  0  0  0
   10.0005   -4.2520   16.5631 C   0  0  0  0  0  0  0  0  0  0  0  0
   10.2759   -4.0036   17.8845 C   0  0  0  0  0  0  0  0  0  0  0  0
    8.5652    1.5478   25.3778 N   0  0  0  0  0  0  0  0  0  0  0  0
    6.8048   -7.5457   17.8752 C   0  0  0  0  0  0  0  0  0  0  0  0
    6.1721   -8.2186   15.9886 N   0  0  0  0  0  0  0  0  0  0  0  0
   11.1764   -2.6600   19.5604 C   0  0  0  0  0  0  0  0  0  0  0  0
    9.5491   -0.6380   24.1912 C   0  0  0  0  0  0  0  0  0  0  0  0
    7.5337   -6.9256   16.9519 C   0  0  0  0  0  0  0  0  0  0  0  0
    9.6782    0.5671   23.5143 C   0  0  0  0  0  0  0  0  0  0  0  0
    8.4532    0.3482   26.0821 C   0  0  0  0  0  0  0  0  0  0  0  0
   10.4239   -1.7677   22.2230 N   0  0  0  0  0  0  0  0  0  0  0  0
    9.9468   -4.5953   20.1709 C   0  0  0  0  0  0  0  0  0  0  0  0
   10.0366   -3.0590   23.9864 N   0  0  0  0  0  0  0  0  0  0  0  0
    7.1191   -7.3636   15.7739 C   0  0  0  0  0  0  0  0  0  0  0  0
    5.9612   -8.3203   17.2732 N   0  0  0  0  0  0  0  0  0  0  0  0
    8.5296   -5.9814   17.1841 C   0  0  0  0  0  0  0  0  0  0  0  0
    9.1527   -5.2118   16.2116 C   0  0  0  0  0  0  0  0  0  0  0  0
   10.3364   -3.8368   22.9255 O   0  0  0  0  0  0  0  0  0  0  0  0
    9.6947   -4.8407   18.8534 C   0  0  0  0  0  0  0  0  0  0  0  0
    9.1596    1.7042   24.1381 C   0  0  0  0  0  0  0  0  0  0  0  0
   11.0456   -2.9774   18.2694 N   0  0  0  0  0  0  0  0  0  0  0  0
   10.4788   -3.0457   21.8593 C   0  0  0  0  0  0  0  0  0  0  0  0
    8.8693   -5.8099   18.4657 N   0  0  0  0  0  0  0  0  0  0  0  0
    8.9892   -0.7926   25.4573 C   0  0  0  0  0  0  0  0  0  0  0  0
   10.5677   -3.4462   20.5323 C   0  0  0  0  0  0  0  0  0  0  0  0
  1  8  1  0
  1 12  4  0
  1 14  4  0
  2  3  4  0
  2 18  4  0
  3 20  4  0
  3 22  4  0
  4 11  4  0
  4 21  4  0
  5  9  4  0
  5 16  4  0
  6 15  4  0
  6 16  4  0
  7 22  4  0
  7 26  4  0
  8 10  4  0
  8 25  4  0
  9 15  4  0
  9 17  1  0
 10 21  4  0
 11 25  4  0
 12 23  4  0
 13 20  4  0
 13 26  4  0
 14 19  4  0
 17 18  4  0
 17 24  4  0
 19 23  4  0
 20 24  4  0
 23 26  1  0
M  END
$$$$

 Created by Python create_sdf_string function

 26 30  0  0  0  0  0  0  0  0999 V2000
   10.0084   -1.8019   23.4945 C   0  0  0  0  0  0  0  0  0  0  0  0
   10.0005   -4.2520   16.5631 C   0  0  0  0  0  0  0  0  0  0  0  0
   10.2759   -4.0036   17.8845 C   0  0  0  0  0  0  0  0  0  0  0  0
    8.5652    1.5478   25.3778 N   0  0  0  0  0  0  0  0  0  0  0  0
    6.8048   -7.5457   17.8752 C   0  0  0  0  0  0  0  0  0  0  0  0
    6.1721   -8.2186   15.9886 N   0  0  0  0  0  0  0  0  0  0  0  0
   11.1764   -2.6600   19.5604 C   0  0  0  0  0  0  0  0  0  0  0  0
    9.5491   -0.6380   24.1912 C   0  0  0  0  0  0  0  0  0  0  0  0
    7.5337   -6.9256   16.9519 C   0  0  0  0  0  0  0  0  0  0  0  0
    9.6782    0.5671   23.5143 C   0  0  0  0  0  0  0  0  0  0  0  0
    8.4532    0.3482   26.0821 C   0  0  0  0  0  0  0  0  0  0  0  0
   10.4239   -1.7677   22.2230 N   0  0  0  0  0  0  0  0  0  0  0  0
    9.9468   -4.5953   20.1709 C   0  0  0  0  0  0  0  0  0  0  0  0
   10.0366   -3.0590   23.9864 N   0  0  0  0  0  0  0  0  0  0  0  0
    7.1191   -7.3636   15.7739 C   0  0  0  0  0  0  0  0  0  0  0  0
    5.9612   -8.3203   17.2732 N   0  0  0  0  0  0  0  0  0  0  0  0
    8.5296   -5.9814   17.1841 C   0  0  0  0  0  0  0  0  0  0  0  0
    9.1527   -5.2118   16.2116 C   0  0  0  0  0  0  0  0  0  0  0  0
   10.3364   -3.8368   22.9255 O   0  0  0  0  0  0  0  0  0  0  0  0
    9.6947   -4.8407   18.8534 C   0  0  0  0  0  0  0  0  0  0  0  0
    9.1596    1.7042   24.1381 C   0  0  0  0  0  0  0  0  0  0  0  0
   11.0456   -2.9774   18.2694 N   0  0  0  0  0  0  0  0  0  0  0  0
   10.4788   -3.0457   21.8593 C   0  0  0  0  0  0  0  0  0  0  0  0
    8.8693   -5.8099   18.4657 N   0  0  0  0  0  0  0  0  0  0  0  0
    8.9892   -0.7926   25.4573 C   0  0  0  0  0  0  0  0  0  0  0  0
   10.5677   -3.4462   20.5323 C   0  0  0  0  0  0  0  0  0  0  0  0
  1  8  1  0
  1 12  4  0
  1 14  4  0
  2  3  4  0
  2 18  4  0
  3 20  4  0
  3 22  4  0
  4 11  4  0
  4 21  4  0
  5  9  4  0
  5 16  4  0
  6 15  4  0
  6 16  4  0
  7 22  4  0
  7 26  4  0
  8 10  4  0
  8 25  4  0
  9 15  4  0
  9 17  1  0
 10 21  4  0
 11 25  4  0
 12 23  4  0
 13 20  4  0
 13 26  4  0
 14 19  4  0
 17 18  4  0
 17 24  4  0
 19 23  4  0
 20 24  4  0
 23 26  1  0
M  END
$$$$

 Created by Python create_sdf_string function

 26 30  0  0  0  0  0  0  0  0999 V2000
   10.0084   -1.8019   23.4945 C   0  0  0  0  0  0  0  0  0  0  0  0
   10.0005   -4.2520   16.5631 C   0  0  0  0  0  0  0  0  0  0  0  0
   10.2759   -4.0036   17.8845 C   0  0  0  0  0  0  0  0  0  0  0  0
    8.5652    1.5478   25.3778 N   0  0  0  0  0  0  0  0  0  0  0  0
    6.8048   -7.5457   17.8752 C   0  0  0  0  0  0  0  0  0  0  0  0
    6.1721   -8.2186   15.9886 N   0  0  0  0  0  0  0  0  0  0  0  0
   11.1764   -2.6600   19.5604 C   0  0  0  0  0  0  0  0  0  0  0  0
    9.5491   -0.6380   24.1912 C   0  0  0  0  0  0  0  0  0  0  0  0
    7.5337   -6.9256   16.9519 C   0  0  0  0  0  0  0  0  0  0  0  0
    9.6782    0.5671   23.5143 C   0  0  0  0  0  0  0  0  0  0  0  0
    8.4532    0.3482   26.0821 C   0  0  0  0  0  0  0  0  0  0  0  0
   10.4239   -1.7677   22.2230 N   0  0  0  0  0  0  0  0  0  0  0  0
    9.9468   -4.5953   20.1709 C   0  0  0  0  0  0  0  0  0  0  0  0
   10.0366   -3.0590   23.9864 N   0  0  0  0  0  0  0  0  0  0  0  0
    7.1191   -7.3636   15.7739 C   0  0  0  0  0  0  0  0  0  0  0  0
    5.9612   -8.3203   17.2732 N   0  0  0  0  0  0  0  0  0  0  0  0
    8.5296   -5.9814   17.1841 C   0  0  0  0  0  0  0  0  0  0  0  0
    9.1527   -5.2118   16.2116 C   0  0  0  0  0  0  0  0  0  0  0  0
   10.3364   -3.8368   22.9255 O   0  0  0  0  0  0  0  0  0  0  0  0
    9.6947   -4.8407   18.8534 C   0  0  0  0  0  0  0  0  0  0  0  0
    9.1596    1.7042   24.1381 C   0  0  0  0  0  0  0  0  0  0  0  0
   11.0456   -2.9774   18.2694 N   0  0  0  0  0  0  0  0  0  0  0  0
   10.4788   -3.0457   21.8593 C   0  0  0  0  0  0  0  0  0  0  0  0
    8.8693   -5.8099   18.4657 N   0  0  0  0  0  0  0  0  0  0  0  0
    8.9892   -0.7926   25.4573 C   0  0  0  0  0  0  0  0  0  0  0  0
   10.5677   -3.4462   20.5323 C   0  0  0  0  0  0  0  0  0  0  0  0
  1  8  1  0
  1 12  4  0
  1 14  4  0
  2  3  4  0
  2 18  4  0
  3 20  4  0
  3 22  4  0
  4 11  4  0
  4 21  4  0
  5  9  4  0
  5 16  4  0
  6 15  4  0
  6 16  4  0
  7 22  4  0
  7 26  4  0
  8 10  4  0
  8 25  4  0
  9 15  4  0
  9 17  1  0
 10 21  4  0
 11 25  4  0
 12 23  4  0
 13 20  4  0
 13 26  4  0
 14 19  4  0
 17 18  4  0
 17 24  4  0
 19 23  4  0
 20 24  4  0
 23 26  1  0
M  END
$$$$

 Created by Python create_sdf_string function

 26 30  0  0  0  0  0  0  0  0999 V2000
   10.0084   -1.8019   23.4945 C   0  0  0  0  0  0  0  0  0  0  0  0
   10.0005   -4.2520   16.5631 C   0  0  0  0  0  0  0  0  0  0  0  0
   10.2759   -4.0036   17.8845 C   0  0  0  0  0  0  0  0  0  0  0  0
    8.5652    1.5478   25.3778 N   0  0  0  0  0  0  0  0  0  0  0  0
    6.8048   -7.5457   17.8752 C   0  0  0  0  0  0  0  0  0  0  0  0
    6.1721   -8.2186   15.9886 N   0  0  0  0  0  0  0  0  0  0  0  0
   11.1764   -2.6600   19.5604 C   0  0  0  0  0  0  0  0  0  0  0  0
    9.5491   -0.6380   24.1912 C   0  0  0  0  0  0  0  0  0  0  0  0
    7.5337   -6.9256   16.9519 C   0  0  0  0  0  0  0  0  0  0  0  0
    9.6782    0.5671   23.5143 C   0  0  0  0  0  0  0  0  0  0  0  0
    8.4532    0.3482   26.0821 C   0  0  0  0  0  0  0  0  0  0  0  0
   10.4239   -1.7677   22.2230 N   0  0  0  0  0  0  0  0  0  0  0  0
    9.9468   -4.5953   20.1709 C   0  0  0  0  0  0  0  0  0  0  0  0
   10.0366   -3.0590   23.9864 N   0  0  0  0  0  0  0  0  0  0  0  0
    7.1191   -7.3636   15.7739 C   0  0  0  0  0  0  0  0  0  0  0  0
    5.9612   -8.3203   17.2732 N   0  0  0  0  0  0  0  0  0  0  0  0
    8.5296   -5.9814   17.1841 C   0  0  0  0  0  0  0  0  0  0  0  0
    9.1527   -5.2118   16.2116 C   0  0  0  0  0  0  0  0  0  0  0  0
   10.3364   -3.8368   22.9255 O   0  0  0  0  0  0  0  0  0  0  0  0
    9.6947   -4.8407   18.8534 C   0  0  0  0  0  0  0  0  0  0  0  0
    9.1596    1.7042   24.1381 C   0  0  0  0  0  0  0  0  0  0  0  0
   11.0456   -2.9774   18.2694 N   0  0  0  0  0  0  0  0  0  0  0  0
   10.4788   -3.0457   21.8593 C   0  0  0  0  0  0  0  0  0  0  0  0
    8.8693   -5.8099   18.4657 N   0  0  0  0  0  0  0  0  0  0  0  0
    8.9892   -0.7926   25.4573 C   0  0  0  0  0  0  0  0  0  0  0  0
   10.5677   -3.4462   20.5323 C   0  0  0  0  0  0  0  0  0  0  0  0
  1  8  1  0
  1 12  4  0
  1 14  4  0
  2  3  4  0
  2 18  4  0
  3 20  4  0
  3 22  4  0
  4 11  4  0
  4 21  4  0
  5  9  4  0
  5 16  4  0
  6 15  4  0
  6 16  4  0
  7 22  4  0
  7 26  4  0
  8 10  4  0
  8 25  4  0
  9 15  4  0
  9 17  1  0
 10 21  4  0
 11 25  4  0
 12 23  4  0
 13 20  4  0
 13 26  4  0
 14 19  4  0
 17 18  4  0
 17 24  4  0
 19 23  4  0
 20 24  4  0
 23 26  1  0
M  END
$$$$

 Created by Python create_sdf_string function

 26 30  0  0  0  0  0  0  0  0999 V2000
   10.0084   -1.8019   23.4945 C   0  0  0  0  0  0  0  0  0  0  0  0
   10.0005   -4.2520   16.5631 C   0  0  0  0  0  0  0  0  0  0  0  0
   10.2759   -4.0036   17.8845 C   0  0  0  0  0  0  0  0  0  0  0  0
    8.5652    1.5478   25.3778 N   0  0  0  0  0  0  0  0  0  0  0  0
    6.8048   -7.5457   17.8752 C   0  0  0  0  0  0  0  0  0  0  0  0
    6.1721   -8.2186   15.9886 N   0  0  0  0  0  0  0  0  0  0  0  0
   11.1764   -2.6600   19.5604 C   0  0  0  0  0  0  0  0  0  0  0  0
    9.5491   -0.6380   24.1912 C   0  0  0  0  0  0  0  0  0  0  0  0
    7.5337   -6.9256   16.9519 C   0  0  0  0  0  0  0  0  0  0  0  0
    9.6782    0.5671   23.5143 C   0  0  0  0  0  0  0  0  0  0  0  0
    8.4532    0.3482   26.0821 C   0  0  0  0  0  0  0  0  0  0  0  0
   10.4239   -1.7677   22.2230 N   0  0  0  0  0  0  0  0  0  0  0  0
    9.9468   -4.5953   20.1709 C   0  0  0  0  0  0  0  0  0  0  0  0
   10.0366   -3.0590   23.9864 N   0  0  0  0  0  0  0  0  0  0  0  0
    7.1191   -7.3636   15.7739 C   0  0  0  0  0  0  0  0  0  0  0  0
    5.9612   -8.3203   17.2732 N   0  0  0  0  0  0  0  0  0  0  0  0
    8.5296   -5.9814   17.1841 C   0  0  0  0  0  0  0  0  0  0  0  0
    9.1527   -5.2118   16.2116 C   0  0  0  0  0  0  0  0  0  0  0  0
   10.3364   -3.8368   22.9255 O   0  0  0  0  0  0  0  0  0  0  0  0
    9.6947   -4.8407   18.8534 C   0  0  0  0  0  0  0  0  0  0  0  0
    9.1596    1.7042   24.1381 C   0  0  0  0  0  0  0  0  0  0  0  0
   11.0456   -2.9774   18.2694 N   0  0  0  0  0  0  0  0  0  0  0  0
   10.4788   -3.0457   21.8593 C   0  0  0  0  0  0  0  0  0  0  0  0
    8.8693   -5.8099   18.4657 N   0  0  0  0  0  0  0  0  0  0  0  0
    8.9892   -0.7926   25.4573 C   0  0  0  0  0  0  0  0  0  0  0  0
   10.5677   -3.4462   20.5323 C   0  0  0  0  0  0  0  0  0  0  0  0
  1  8  1  0
  1 12  4  0
  1 14  4  0
  2  3  4  0
  2 18  4  0
  3 20  4  0
  3 22  4  0
  4 11  4  0
  4 21  4  0
  5  9  4  0
  5 16  4  0
  6 15  4  0
  6 16  4  0
  7 22  4  0
  7 26  4  0
  8 10  4  0
  8 25  4  0
  9 15  4  0
  9 17  1  0
 10 21  4  0
 11 25  4  0
 12 23  4  0
 13 20  4  0
 13 26  4  0
 14 19  4  0
 17 18  4  0
 17 24  4  0
 19 23  4  0
 20 24  4  0
 23 26  1  0
M  END
$$$$

 Created by Python create_sdf_string function

 26 30  0  0  0  0  0  0  0  0999 V2000
   10.0084   -1.8019   23.4945 C   0  0  0  0  0  0  0  0  0  0  0  0
   10.0005   -4.2520   16.5631 C   0  0  0  0  0  0  0  0  0  0  0  0
   10.2759   -4.0036   17.8845 C   0  0  0  0  0  0  0  0  0  0  0  0
    8.5652    1.5478   25.3778 N   0  0  0  0  0  0  0  0  0  0  0  0
    6.8048   -7.5457   17.8752 C   0  0  0  0  0  0  0  0  0  0  0  0
    6.1721   -8.2186   15.9886 N   0  0  0  0  0  0  0  0  0  0  0  0
   11.1764   -2.6600   19.5604 C   0  0  0  0  0  0  0  0  0  0  0  0
    9.5491   -0.6380   24.1912 C   0  0  0  0  0  0  0  0  0  0  0  0
    7.5337   -6.9256   16.9519 C   0  0  0  0  0  0  0  0  0  0  0  0
    9.6782    0.5671   23.5143 C   0  0  0  0  0  0  0  0  0  0  0  0
    8.4532    0.3482   26.0821 C   0  0  0  0  0  0  0  0  0  0  0  0
   10.4239   -1.7677   22.2230 N   0  0  0  0  0  0  0  0  0  0  0  0
    9.9468   -4.5953   20.1709 C   0  0  0  0  0  0  0  0  0  0  0  0
   10.0366   -3.0590   23.9864 N   0  0  0  0  0  0  0  0  0  0  0  0
    7.1191   -7.3636   15.7739 C   0  0  0  0  0  0  0  0  0  0  0  0
    5.9612   -8.3203   17.2732 N   0  0  0  0  0  0  0  0  0  0  0  0
    8.5296   -5.9814   17.1841 C   0  0  0  0  0  0  0  0  0  0  0  0
    9.1527   -5.2118   16.2116 C   0  0  0  0  0  0  0  0  0  0  0  0
   10.3364   -3.8368   22.9255 O   0  0  0  0  0  0  0  0  0  0  0  0
    9.6947   -4.8407   18.8534 C   0  0  0  0  0  0  0  0  0  0  0  0
    9.1596    1.7042   24.1381 C   0  0  0  0  0  0  0  0  0  0  0  0
   11.0456   -2.9774   18.2694 N   0  0  0  0  0  0  0  0  0  0  0  0
   10.4788   -3.0457   21.8593 C   0  0  0  0  0  0  0  0  0  0  0  0
    8.8693   -5.8099   18.4657 N   0  0  0  0  0  0  0  0  0  0  0  0
    8.9892   -0.7926   25.4573 C   0  0  0  0  0  0  0  0  0  0  0  0
   10.5677   -3.4462   20.5323 C   0  0  0  0  0  0  0  0  0  0  0  0
  1  8  1  0
  1 12  4  0
  1 14  4  0
  2  3  4  0
  2 18  4  0
  3 20  4  0
  3 22  4  0
  4 11  4  0
  4 21  4  0
  5  9  4  0
  5 16  4  0
  6 15  4  0
  6 16  4  0
  7 22  4  0
  7 26  4  0
  8 10  4  0
  8 25  4  0
  9 15  4  0
  9 17  1  0
 10 21  4  0
 11 25  4  0
 12 23  4  0
 13 20  4  0
 13 26  4  0
 14 19  4  0
 17 18  4  0
 17 24  4  0
 19 23  4  0
 20 24  4  0
 23 26  1  0
M  END
$$$$

 Created by Python create_sdf_string function

 26 30  0  0  0  0  0  0  0  0999 V2000
   10.0084   -1.8019   23.4945 C   0  0  0  0  0  0  0  0  0  0  0  0
   10.0005   -4.2520   16.5631 C   0  0  0  0  0  0  0  0  0  0  0  0
   10.2759   -4.0036   17.8845 C   0  0  0  0  0  0  0  0  0  0  0  0
    8.5652    1.5478   25.3778 N   0  0  0  0  0  0  0  0  0  0  0  0
    6.8048   -7.5457   17.8752 C   0  0  0  0  0  0  0  0  0  0  0  0
    6.1721   -8.2186   15.9886 N   0  0  0  0  0  0  0  0  0  0  0  0
   11.1764   -2.6600   19.5604 C   0  0  0  0  0  0  0  0  0  0  0  0
    9.5491   -0.6380   24.1912 C   0  0  0  0  0  0  0  0  0  0  0  0
    7.5337   -6.9256   16.9519 C   0  0  0  0  0  0  0  0  0  0  0  0
    9.6782    0.5671   23.5143 C   0  0  0  0  0  0  0  0  0  0  0  0
    8.4532    0.3482   26.0821 C   0  0  0  0  0  0  0  0  0  0  0  0
   10.4239   -1.7677   22.2230 N   0  0  0  0  0  0  0  0  0  0  0  0
    9.9468   -4.5953   20.1709 C   0  0  0  0  0  0  0  0  0  0  0  0
   10.0366   -3.0590   23.9864 N   0  0  0  0  0  0  0  0  0  0  0  0
    7.1191   -7.3636   15.7739 C   0  0  0  0  0  0  0  0  0  0  0  0
    5.9612   -8.3203   17.2732 N   0  0  0  0  0  0  0  0  0  0  0  0
    8.5296   -5.9814   17.1841 C   0  0  0  0  0  0  0  0  0  0  0  0
    9.1527   -5.2118   16.2116 C   0  0  0  0  0  0  0  0  0  0  0  0
   10.3364   -3.8368   22.9255 O   0  0  0  0  0  0  0  0  0  0  0  0
    9.6947   -4.8407   18.8534 C   0  0  0  0  0  0  0  0  0  0  0  0
    9.1596    1.7042   24.1381 C   0  0  0  0  0  0  0  0  0  0  0  0
   11.0456   -2.9774   18.2694 N   0  0  0  0  0  0  0  0  0  0  0  0
   10.4788   -3.0457   21.8593 C   0  0  0  0  0  0  0  0  0  0  0  0
    8.8693   -5.8099   18.4657 N   0  0  0  0  0  0  0  0  0  0  0  0
    8.9892   -0.7926   25.4573 C   0  0  0  0  0  0  0  0  0  0  0  0
   10.5677   -3.4462   20.5323 C   0  0  0  0  0  0  0  0  0  0  0  0
  1  8  1  0
  1 12  4  0
  1 14  4  0
  2  3  4  0
  2 18  4  0
  3 20  4  0
  3 22  4  0
  4 11  4  0
  4 21  4  0
  5  9  4  0
  5 16  4  0
  6 15  4  0
  6 16  4  0
  7 22  4  0
  7 26  4  0
  8 10  4  0
  8 25  4  0
  9 15  4  0
  9 17  1  0
 10 21  4  0
 11 25  4  0
 12 23  4  0
 13 20  4  0
 13 26  4  0
 14 19  4  0
 17 18  4  0
 17 24  4  0
 19 23  4  0
 20 24  4  0
 23 26  1  0
M  END
$$$$

 Created by Python create_sdf_string function

 26 30  0  0  0  0  0  0  0  0999 V2000
   10.0084   -1.8019   23.4945 C   0  0  0  0  0  0  0  0  0  0  0  0
   10.0005   -4.2520   16.5631 C   0  0  0  0  0  0  0  0  0  0  0  0
   10.2759   -4.0036   17.8845 C   0  0  0  0  0  0  0  0  0  0  0  0
    8.5652    1.5478   25.3778 N   0  0  0  0  0  0  0  0  0  0  0  0
    6.8048   -7.5457   17.8752 C   0  0  0  0  0  0  0  0  0  0  0  0
    6.1721   -8.2186   15.9886 N   0  0  0  0  0  0  0  0  0  0  0  0
   11.1764   -2.6600   19.5604 C   0  0  0  0  0  0  0  0  0  0  0  0
    9.5491   -0.6380   24.1912 C   0  0  0  0  0  0  0  0  0  0  0  0
    7.5337   -6.9256   16.9519 C   0  0  0  0  0  0  0  0  0  0  0  0
    9.6782    0.5671   23.5143 C   0  0  0  0  0  0  0  0  0  0  0  0
    8.4532    0.3482   26.0821 C   0  0  0  0  0  0  0  0  0  0  0  0
   10.4239   -1.7677   22.2230 N   0  0  0  0  0  0  0  0  0  0  0  0
    9.9468   -4.5953   20.1709 C   0  0  0  0  0  0  0  0  0  0  0  0
   10.0366   -3.0590   23.9864 N   0  0  0  0  0  0  0  0  0  0  0  0
    7.1191   -7.3636   15.7739 C   0  0  0  0  0  0  0  0  0  0  0  0
    5.9612   -8.3203   17.2732 N   0  0  0  0  0  0  0  0  0  0  0  0
    8.5296   -5.9814   17.1841 C   0  0  0  0  0  0  0  0  0  0  0  0
    9.1527   -5.2118   16.2116 C   0  0  0  0  0  0  0  0  0  0  0  0
   10.3364   -3.8368   22.9255 O   0  0  0  0  0  0  0  0  0  0  0  0
    9.6947   -4.8407   18.8534 C   0  0  0  0  0  0  0  0  0  0  0  0
    9.1596    1.7042   24.1381 C   0  0  0  0  0  0  0  0  0  0  0  0
   11.0456   -2.9774   18.2694 N   0  0  0  0  0  0  0  0  0  0  0  0
   10.4788   -3.0457   21.8593 C   0  0  0  0  0  0  0  0  0  0  0  0
    8.8693   -5.8099   18.4657 N   0  0  0  0  0  0  0  0  0  0  0  0
    8.9892   -0.7926   25.4573 C   0  0  0  0  0  0  0  0  0  0  0  0
   10.5677   -3.4462   20.5323 C   0  0  0  0  0  0  0  0  0  0  0  0
  1  8  1  0
  1 12  4  0
  1 14  4  0
  2  3  4  0
  2 18  4  0
  3 20  4  0
  3 22  4  0
  4 11  4  0
  4 21  4  0
  5  9  4  0
  5 16  4  0
  6 15  4  0
  6 16  4  0
  7 22  4  0
  7 26  4  0
  8 10  4  0
  8 25  4  0
  9 15  4  0
  9 17  1  0
 10 21  4  0
 11 25  4  0
 12 23  4  0
 13 20  4  0
 13 26  4  0
 14 19  4  0
 17 18  4  0
 17 24  4  0
 19 23  4  0
 20 24  4  0
 23 26  1  0
M  END
$$$$

 Created by Python create_sdf_string function

 26 30  0  0  0  0  0  0  0  0999 V2000
   10.0084   -1.8019   23.4945 C   0  0  0  0  0  0  0  0  0  0  0  0
   10.0005   -4.2520   16.5631 C   0  0  0  0  0  0  0  0  0  0  0  0
   10.2759   -4.0036   17.8845 C   0  0  0  0  0  0  0  0  0  0  0  0
    8.5652    1.5478   25.3778 N   0  0  0  0  0  0  0  0  0  0  0  0
    6.8048   -7.5457   17.8752 C   0  0  0  0  0  0  0  0  0  0  0  0
    6.1721   -8.2186   15.9886 N   0  0  0  0  0  0  0  0  0  0  0  0
   11.1764   -2.6600   19.5604 C   0  0  0  0  0  0  0  0  0  0  0  0
    9.5491   -0.6380   24.1912 C   0  0  0  0  0  0  0  0  0  0  0  0
    7.5337   -6.9256   16.9519 C   0  0  0  0  0  0  0  0  0  0  0  0
    9.6782    0.5671   23.5143 C   0  0  0  0  0  0  0  0  0  0  0  0
    8.4532    0.3482   26.0821 C   0  0  0  0  0  0  0  0  0  0  0  0
   10.4239   -1.7677   22.2230 N   0  0  0  0  0  0  0  0  0  0  0  0
    9.9468   -4.5953   20.1709 C   0  0  0  0  0  0  0  0  0  0  0  0
   10.0366   -3.0590   23.9864 N   0  0  0  0  0  0  0  0  0  0  0  0
    7.1191   -7.3636   15.7739 C   0  0  0  0  0  0  0  0  0  0  0  0
    5.9612   -8.3203   17.2732 N   0  0  0  0  0  0  0  0  0  0  0  0
    8.5296   -5.9814   17.1841 C   0  0  0  0  0  0  0  0  0  0  0  0
    9.1527   -5.2118   16.2116 C   0  0  0  0  0  0  0  0  0  0  0  0
   10.3364   -3.8368   22.9255 O   0  0  0  0  0  0  0  0  0  0  0  0
    9.6947   -4.8407   18.8534 C   0  0  0  0  0  0  0  0  0  0  0  0
    9.1596    1.7042   24.1381 C   0  0  0  0  0  0  0  0  0  0  0  0
   11.0456   -2.9774   18.2694 N   0  0  0  0  0  0  0  0  0  0  0  0
   10.4788   -3.0457   21.8593 C   0  0  0  0  0  0  0  0  0  0  0  0
    8.8693   -5.8099   18.4657 N   0  0  0  0  0  0  0  0  0  0  0  0
    8.9892   -0.7926   25.4573 C   0  0  0  0  0  0  0  0  0  0  0  0
   10.5677   -3.4462   20.5323 C   0  0  0  0  0  0  0  0  0  0  0  0
  1  8  1  0
  1 12  4  0
  1 14  4  0
  2  3  4  0
  2 18  4  0
  3 20  4  0
  3 22  4  0
  4 11  4  0
  4 21  4  0
  5  9  4  0
  5 16  4  0
  6 15  4  0
  6 16  4  0
  7 22  4  0
  7 26  4  0
  8 10  4  0
  8 25  4  0
  9 15  4  0
  9 17  1  0
 10 21  4  0
 11 25  4  0
 12 23  4  0
 13 20  4  0
 13 26  4  0
 14 19  4  0
 17 18  4  0
 17 24  4  0
 19 23  4  0
 20 24  4  0
 23 26  1  0
M  END
$$$$

 Created by Python create_sdf_string function

 26 30  0  0  0  0  0  0  0  0999 V2000
   10.0084   -1.8019   23.4945 C   0  0  0  0  0  0  0  0  0  0  0  0
   10.0005   -4.2520   16.5631 C   0  0  0  0  0  0  0  0  0  0  0  0
   10.2759   -4.0036   17.8845 C   0  0  0  0  0  0  0  0  0  0  0  0
    8.5652    1.5478   25.3778 N   0  0  0  0  0  0  0  0  0  0  0  0
    6.8048   -7.5457   17.8752 C   0  0  0  0  0  0  0  0  0  0  0  0
    6.1721   -8.2186   15.9886 N   0  0  0  0  0  0  0  0  0  0  0  0
   11.1764   -2.6600   19.5604 C   0  0  0  0  0  0  0  0  0  0  0  0
    9.5491   -0.6380   24.1912 C   0  0  0  0  0  0  0  0  0  0  0  0
    7.5337   -6.9256   16.9519 C   0  0  0  0  0  0  0  0  0  0  0  0
    9.6782    0.5671   23.5143 C   0  0  0  0  0  0  0  0  0  0  0  0
    8.4532    0.3482   26.0821 C   0  0  0  0  0  0  0  0  0  0  0  0
   10.4239   -1.7677   22.2230 N   0  0  0  0  0  0  0  0  0  0  0  0
    9.9468   -4.5953   20.1709 C   0  0  0  0  0  0  0  0  0  0  0  0
   10.0366   -3.0590   23.9864 N   0  0  0  0  0  0  0  0  0  0  0  0
    7.1191   -7.3636   15.7739 C   0  0  0  0  0  0  0  0  0  0  0  0
    5.9612   -8.3203   17.2732 N   0  0  0  0  0  0  0  0  0  0  0  0
    8.5296   -5.9814   17.1841 C   0  0  0  0  0  0  0  0  0  0  0  0
    9.1527   -5.2118   16.2116 C   0  0  0  0  0  0  0  0  0  0  0  0
   10.3364   -3.8368   22.9255 O   0  0  0  0  0  0  0  0  0  0  0  0
    9.6947   -4.8407   18.8534 C   0  0  0  0  0  0  0  0  0  0  0  0
    9.1596    1.7042   24.1381 C   0  0  0  0  0  0  0  0  0  0  0  0
   11.0456   -2.9774   18.2694 N   0  0  0  0  0  0  0  0  0  0  0  0
   10.4788   -3.0457   21.8593 C   0  0  0  0  0  0  0  0  0  0  0  0
    8.8693   -5.8099   18.4657 N   0  0  0  0  0  0  0  0  0  0  0  0
    8.9892   -0.7926   25.4573 C   0  0  0  0  0  0  0  0  0  0  0  0
   10.5677   -3.4462   20.5323 C   0  0  0  0  0  0  0  0  0  0  0  0
  1  8  1  0
  1 12  4  0
  1 14  4  0
  2  3  4  0
  2 18  4  0
  3 20  4  0
  3 22  4  0
  4 11  4  0
  4 21  4  0
  5  9  4  0
  5 16  4  0
  6 15  4  0
  6 16  4  0
  7 22  4  0
  7 26  4  0
  8 10  4  0
  8 25  4  0
  9 15  4  0
  9 17  1  0
 10 21  4  0
 11 25  4  0
 12 23  4  0
 13 20  4  0
 13 26  4  0
 14 19  4  0
 17 18  4  0
 17 24  4  0
 19 23  4  0
 20 24  4  0
 23 26  1  0
M  END
$$$$

 Created by Python create_sdf_string function

 26 30  0  0  0  0  0  0  0  0999 V2000
   10.0084   -1.8019   23.4945 C   0  0  0  0  0  0  0  0  0  0  0  0
   10.0005   -4.2520   16.5631 C   0  0  0  0  0  0  0  0  0  0  0  0
   10.2759   -4.0036   17.8845 C   0  0  0  0  0  0  0  0  0  0  0  0
    8.5652    1.5478   25.3778 N   0  0  0  0  0  0  0  0  0  0  0  0
    6.8048   -7.5457   17.8752 C   0  0  0  0  0  0  0  0  0  0  0  0
    6.1721   -8.2186   15.9886 N   0  0  0  0  0  0  0  0  0  0  0  0
   11.1764   -2.6600   19.5604 C   0  0  0  0  0  0  0  0  0  0  0  0
    9.5491   -0.6380   24.1912 C   0  0  0  0  0  0  0  0  0  0  0  0
    7.5337   -6.9256   16.9519 C   0  0  0  0  0  0  0  0  0  0  0  0
    9.6782    0.5671   23.5143 C   0  0  0  0  0  0  0  0  0  0  0  0
    8.4532    0.3482   26.0821 C   0  0  0  0  0  0  0  0  0  0  0  0
   10.4239   -1.7677   22.2230 N   0  0  0  0  0  0  0  0  0  0  0  0
    9.9468   -4.5953   20.1709 C   0  0  0  0  0  0  0  0  0  0  0  0
   10.0366   -3.0590   23.9864 N   0  0  0  0  0  0  0  0  0  0  0  0
    7.1191   -7.3636   15.7739 C   0  0  0  0  0  0  0  0  0  0  0  0
    5.9612   -8.3203   17.2732 N   0  0  0  0  0  0  0  0  0  0  0  0
    8.5296   -5.9814   17.1841 C   0  0  0  0  0  0  0  0  0  0  0  0
    9.1527   -5.2118   16.2116 C   0  0  0  0  0  0  0  0  0  0  0  0
   10.3364   -3.8368   22.9255 O   0  0  0  0  0  0  0  0  0  0  0  0
    9.6947   -4.8407   18.8534 C   0  0  0  0  0  0  0  0  0  0  0  0
    9.1596    1.7042   24.1381 C   0  0  0  0  0  0  0  0  0  0  0  0
   11.0456   -2.9774   18.2694 N   0  0  0  0  0  0  0  0  0  0  0  0
   10.4788   -3.0457   21.8593 C   0  0  0  0  0  0  0  0  0  0  0  0
    8.8693   -5.8099   18.4657 N   0  0  0  0  0  0  0  0  0  0  0  0
    8.9892   -0.7926   25.4573 C   0  0  0  0  0  0  0  0  0  0  0  0
   10.5677   -3.4462   20.5323 C   0  0  0  0  0  0  0  0  0  0  0  0
  1  8  1  0
  1 12  4  0
  1 14  4  0
  2  3  4  0
  2 18  4  0
  3 20  4  0
  3 22  4  0
  4 11  4  0
  4 21  4  0
  5  9  4  0
  5 16  4  0
  6 15  4  0
  6 16  4  0
  7 22  4  0
  7 26  4  0
  8 10  4  0
  8 25  4  0
  9 15  4  0
  9 17  1  0
 10 21  4  0
 11 25  4  0
 12 23  4  0
 13 20  4  0
 13 26  4  0
 14 19  4  0
 17 18  4  0
 17 24  4  0
 19 23  4  0
 20 24  4  0
 23 26  1  0
M  END
$$$$

 Created by Python create_sdf_string function

 26 30  0  0  0  0  0  0  0  0999 V2000
   10.0084   -1.8019   23.4945 C   0  0  0  0  0  0  0  0  0  0  0  0
   10.0005   -4.2520   16.5631 C   0  0  0  0  0  0  0  0  0  0  0  0
   10.2759   -4.0036   17.8845 C   0  0  0  0  0  0  0  0  0  0  0  0
    8.5652    1.5478   25.3778 N   0  0  0  0  0  0  0  0  0  0  0  0
    6.8048   -7.5457   17.8752 C   0  0  0  0  0  0  0  0  0  0  0  0
    6.1721   -8.2186   15.9886 N   0  0  0  0  0  0  0  0  0  0  0  0
   11.1764   -2.6600   19.5604 C   0  0  0  0  0  0  0  0  0  0  0  0
    9.5491   -0.6380   24.1912 C   0  0  0  0  0  0  0  0  0  0  0  0
    7.5337   -6.9256   16.9519 C   0  0  0  0  0  0  0  0  0  0  0  0
    9.6782    0.5671   23.5143 C   0  0  0  0  0  0  0  0  0  0  0  0
    8.4532    0.3482   26.0821 C   0  0  0  0  0  0  0  0  0  0  0  0
   10.4239   -1.7677   22.2230 N   0  0  0  0  0  0  0  0  0  0  0  0
    9.9468   -4.5953   20.1709 C   0  0  0  0  0  0  0  0  0  0  0  0
   10.0366   -3.0590   23.9864 N   0  0  0  0  0  0  0  0  0  0  0  0
    7.1191   -7.3636   15.7739 C   0  0  0  0  0  0  0  0  0  0  0  0
    5.9612   -8.3203   17.2732 N   0  0  0  0  0  0  0  0  0  0  0  0
    8.5296   -5.9814   17.1841 C   0  0  0  0  0  0  0  0  0  0  0  0
    9.1527   -5.2118   16.2116 C   0  0  0  0  0  0  0  0  0  0  0  0
   10.3364   -3.8368   22.9255 O   0  0  0  0  0  0  0  0  0  0  0  0
    9.6947   -4.8407   18.8534 C   0  0  0  0  0  0  0  0  0  0  0  0
    9.1596    1.7042   24.1381 C   0  0  0  0  0  0  0  0  0  0  0  0
   11.0456   -2.9774   18.2694 N   0  0  0  0  0  0  0  0  0  0  0  0
   10.4788   -3.0457   21.8593 C   0  0  0  0  0  0  0  0  0  0  0  0
    8.8693   -5.8099   18.4657 N   0  0  0  0  0  0  0  0  0  0  0  0
    8.9892   -0.7926   25.4573 C   0  0  0  0  0  0  0  0  0  0  0  0
   10.5677   -3.4462   20.5323 C   0  0  0  0  0  0  0  0  0  0  0  0
  1  8  1  0
  1 12  4  0
  1 14  4  0
  2  3  4  0
  2 18  4  0
  3 20  4  0
  3 22  4  0
  4 11  4  0
  4 21  4  0
  5  9  4  0
  5 16  4  0
  6 15  4  0
  6 16  4  0
  7 22  4  0
  7 26  4  0
  8 10  4  0
  8 25  4  0
  9 15  4  0
  9 17  1  0
 10 21  4  0
 11 25  4  0
 12 23  4  0
 13 20  4  0
 13 26  4  0
 14 19  4  0
 17 18  4  0
 17 24  4  0
 19 23  4  0
 20 24  4  0
 23 26  1  0
M  END
$$$$

 Created by Python create_sdf_string function

 26 30  0  0  0  0  0  0  0  0999 V2000
   10.0084   -1.8019   23.4945 C   0  0  0  0  0  0  0  0  0  0  0  0
   10.0005   -4.2520   16.5631 C   0  0  0  0  0  0  0  0  0  0  0  0
   10.2759   -4.0036   17.8845 C   0  0  0  0  0  0  0  0  0  0  0  0
    8.5652    1.5478   25.3778 N   0  0  0  0  0  0  0  0  0  0  0  0
    6.8048   -7.5457   17.8752 C   0  0  0  0  0  0  0  0  0  0  0  0
    6.1721   -8.2186   15.9886 N   0  0  0  0  0  0  0  0  0  0  0  0
   11.1764   -2.6600   19.5604 C   0  0  0  0  0  0  0  0  0  0  0  0
    9.5491   -0.6380   24.1912 C   0  0  0  0  0  0  0  0  0  0  0  0
    7.5337   -6.9256   16.9519 C   0  0  0  0  0  0  0  0  0  0  0  0
    9.6782    0.5671   23.5143 C   0  0  0  0  0  0  0  0  0  0  0  0
    8.4532    0.3482   26.0821 C   0  0  0  0  0  0  0  0  0  0  0  0
   10.4239   -1.7677   22.2230 N   0  0  0  0  0  0  0  0  0  0  0  0
    9.9468   -4.5953   20.1709 C   0  0  0  0  0  0  0  0  0  0  0  0
   10.0366   -3.0590   23.9864 N   0  0  0  0  0  0  0  0  0  0  0  0
    7.1191   -7.3636   15.7739 C   0  0  0  0  0  0  0  0  0  0  0  0
    5.9612   -8.3203   17.2732 N   0  0  0  0  0  0  0  0  0  0  0  0
    8.5296   -5.9814   17.1841 C   0  0  0  0  0  0  0  0  0  0  0  0
    9.1527   -5.2118   16.2116 C   0  0  0  0  0  0  0  0  0  0  0  0
   10.3364   -3.8368   22.9255 O   0  0  0  0  0  0  0  0  0  0  0  0
    9.6947   -4.8407   18.8534 C   0  0  0  0  0  0  0  0  0  0  0  0
    9.1596    1.7042   24.1381 C   0  0  0  0  0  0  0  0  0  0  0  0
   11.0456   -2.9774   18.2694 N   0  0  0  0  0  0  0  0  0  0  0  0
   10.4788   -3.0457   21.8593 C   0  0  0  0  0  0  0  0  0  0  0  0
    8.8693   -5.8099   18.4657 N   0  0  0  0  0  0  0  0  0  0  0  0
    8.9892   -0.7926   25.4573 C   0  0  0  0  0  0  0  0  0  0  0  0
   10.5677   -3.4462   20.5323 C   0  0  0  0  0  0  0  0  0  0  0  0
  1  8  1  0
  1 12  4  0
  1 14  4  0
  2  3  4  0
  2 18  4  0
  3 20  4  0
  3 22  4  0
  4 11  4  0
  4 21  4  0
  5  9  4  0
  5 16  4  0
  6 15  4  0
  6 16  4  0
  7 22  4  0
  7 26  4  0
  8 10  4  0
  8 25  4  0
  9 15  4  0
  9 17  1  0
 10 21  4  0
 11 25  4  0
 12 23  4  0
 13 20  4  0
 13 26  4  0
 14 19  4  0
 17 18  4  0
 17 24  4  0
 19 23  4  0
 20 24  4  0
 23 26  1  0
M  END
$$$$

 Created by Python create_sdf_string function

 26 30  0  0  0  0  0  0  0  0999 V2000
   10.0084   -1.8019   23.4945 C   0  0  0  0  0  0  0  0  0  0  0  0
   10.0005   -4.2520   16.5631 C   0  0  0  0  0  0  0  0  0  0  0  0
   10.2759   -4.0036   17.8845 C   0  0  0  0  0  0  0  0  0  0  0  0
    8.5652    1.5478   25.3778 N   0  0  0  0  0  0  0  0  0  0  0  0
    6.8048   -7.5457   17.8752 C   0  0  0  0  0  0  0  0  0  0  0  0
    6.1721   -8.2186   15.9886 N   0  0  0  0  0  0  0  0  0  0  0  0
   11.1764   -2.6600   19.5604 C   0  0  0  0  0  0  0  0  0  0  0  0
    9.5491   -0.6380   24.1912 C   0  0  0  0  0  0  0  0  0  0  0  0
    7.5337   -6.9256   16.9519 C   0  0  0  0  0  0  0  0  0  0  0  0
    9.6782    0.5671   23.5143 C   0  0  0  0  0  0  0  0  0  0  0  0
    8.4532    0.3482   26.0821 C   0  0  0  0  0  0  0  0  0  0  0  0
   10.4239   -1.7677   22.2230 N   0  0  0  0  0  0  0  0  0  0  0  0
    9.9468   -4.5953   20.1709 C   0  0  0  0  0  0  0  0  0  0  0  0
   10.0366   -3.0590   23.9864 N   0  0  0  0  0  0  0  0  0  0  0  0
    7.1191   -7.3636   15.7739 C   0  0  0  0  0  0  0  0  0  0  0  0
    5.9612   -8.3203   17.2732 N   0  0  0  0  0  0  0  0  0  0  0  0
    8.5296   -5.9814   17.1841 C   0  0  0  0  0  0  0  0  0  0  0  0
    9.1527   -5.2118   16.2116 C   0  0  0  0  0  0  0  0  0  0  0  0
   10.3364   -3.8368   22.9255 O   0  0  0  0  0  0  0  0  0  0  0  0
    9.6947   -4.8407   18.8534 C   0  0  0  0  0  0  0  0  0  0  0  0
    9.1596    1.7042   24.1381 C   0  0  0  0  0  0  0  0  0  0  0  0
   11.0456   -2.9774   18.2694 N   0  0  0  0  0  0  0  0  0  0  0  0
   10.4788   -3.0457   21.8593 C   0  0  0  0  0  0  0  0  0  0  0  0
    8.8693   -5.8099   18.4657 N   0  0  0  0  0  0  0  0  0  0  0  0
    8.9892   -0.7926   25.4573 C   0  0  0  0  0  0  0  0  0  0  0  0
   10.5677   -3.4462   20.5323 C   0  0  0  0  0  0  0  0  0  0  0  0
  1  8  1  0
  1 12  4  0
  1 14  4  0
  2  3  4  0
  2 18  4  0
  3 20  4  0
  3 22  4  0
  4 11  4  0
  4 21  4  0
  5  9  4  0
  5 16  4  0
  6 15  4  0
  6 16  4  0
  7 22  4  0
  7 26  4  0
  8 10  4  0
  8 25  4  0
  9 15  4  0
  9 17  1  0
 10 21  4  0
 11 25  4  0
 12 23  4  0
 13 20  4  0
 13 26  4  0
 14 19  4  0
 17 18  4  0
 17 24  4  0
 19 23  4  0
 20 24  4  0
 23 26  1  0
M  END
$$$$

 Created by Python create_sdf_string function

 26 30  0  0  0  0  0  0  0  0999 V2000
   10.0084   -1.8019   23.4945 C   0  0  0  0  0  0  0  0  0  0  0  0
   10.0005   -4.2520   16.5631 C   0  0  0  0  0  0  0  0  0  0  0  0
   10.2759   -4.0036   17.8845 C   0  0  0  0  0  0  0  0  0  0  0  0
    8.5652    1.5478   25.3778 N   0  0  0  0  0  0  0  0  0  0  0  0
    6.8048   -7.5457   17.8752 C   0  0  0  0  0  0  0  0  0  0  0  0
    6.1721   -8.2186   15.9886 N   0  0  0  0  0  0  0  0  0  0  0  0
   11.1764   -2.6600   19.5604 C   0  0  0  0  0  0  0  0  0  0  0  0
    9.5491   -0.6380   24.1912 C   0  0  0  0  0  0  0  0  0  0  0  0
    7.5337   -6.9256   16.9519 C   0  0  0  0  0  0  0  0  0  0  0  0
    9.6782    0.5671   23.5143 C   0  0  0  0  0  0  0  0  0  0  0  0
    8.4532    0.3482   26.0821 C   0  0  0  0  0  0  0  0  0  0  0  0
   10.4239   -1.7677   22.2230 N   0  0  0  0  0  0  0  0  0  0  0  0
    9.9468   -4.5953   20.1709 C   0  0  0  0  0  0  0  0  0  0  0  0
   10.0366   -3.0590   23.9864 N   0  0  0  0  0  0  0  0  0  0  0  0
    7.1191   -7.3636   15.7739 C   0  0  0  0  0  0  0  0  0  0  0  0
    5.9612   -8.3203   17.2732 N   0  0  0  0  0  0  0  0  0  0  0  0
    8.5296   -5.9814   17.1841 C   0  0  0  0  0  0  0  0  0  0  0  0
    9.1527   -5.2118   16.2116 C   0  0  0  0  0  0  0  0  0  0  0  0
   10.3364   -3.8368   22.9255 O   0  0  0  0  0  0  0  0  0  0  0  0
    9.6947   -4.8407   18.8534 C   0  0  0  0  0  0  0  0  0  0  0  0
    9.1596    1.7042   24.1381 C   0  0  0  0  0  0  0  0  0  0  0  0
   11.0456   -2.9774   18.2694 N   0  0  0  0  0  0  0  0  0  0  0  0
   10.4788   -3.0457   21.8593 C   0  0  0  0  0  0  0  0  0  0  0  0
    8.8693   -5.8099   18.4657 N   0  0  0  0  0  0  0  0  0  0  0  0
    8.9892   -0.7926   25.4573 C   0  0  0  0  0  0  0  0  0  0  0  0
   10.5677   -3.4462   20.5323 C   0  0  0  0  0  0  0  0  0  0  0  0
  1  8  1  0
  1 12  4  0
  1 14  4  0
  2  3  4  0
  2 18  4  0
  3 20  4  0
  3 22  4  0
  4 11  4  0
  4 21  4  0
  5  9  4  0
  5 16  4  0
  6 15  4  0
  6 16  4  0
  7 22  4  0
  7 26  4  0
  8 10  4  0
  8 25  4  0
  9 15  4  0
  9 17  1  0
 10 21  4  0
 11 25  4  0
 12 23  4  0
 13 20  4  0
 13 26  4  0
 14 19  4  0
 17 18  4  0
 17 24  4  0
 19 23  4  0
 20 24  4  0
 23 26  1  0
M  END
$$$$

 Created by Python create_sdf_string function

 26 30  0  0  0  0  0  0  0  0999 V2000
   10.0084   -1.8019   23.4945 C   0  0  0  0  0  0  0  0  0  0  0  0
   10.0005   -4.2520   16.5631 C   0  0  0  0  0  0  0  0  0  0  0  0
   10.2759   -4.0036   17.8845 C   0  0  0  0  0  0  0  0  0  0  0  0
    8.5652    1.5478   25.3778 N   0  0  0  0  0  0  0  0  0  0  0  0
    6.8048   -7.5457   17.8752 C   0  0  0  0  0  0  0  0  0  0  0  0
    6.1721   -8.2186   15.9886 N   0  0  0  0  0  0  0  0  0  0  0  0
   11.1764   -2.6600   19.5604 C   0  0  0  0  0  0  0  0  0  0  0  0
    9.5491   -0.6380   24.1912 C   0  0  0  0  0  0  0  0  0  0  0  0
    7.5337   -6.9256   16.9519 C   0  0  0  0  0  0  0  0  0  0  0  0
    9.6782    0.5671   23.5143 C   0  0  0  0  0  0  0  0  0  0  0  0
    8.4532    0.3482   26.0821 C   0  0  0  0  0  0  0  0  0  0  0  0
   10.4239   -1.7677   22.2230 N   0  0  0  0  0  0  0  0  0  0  0  0
    9.9468   -4.5953   20.1709 C   0  0  0  0  0  0  0  0  0  0  0  0
   10.0366   -3.0590   23.9864 N   0  0  0  0  0  0  0  0  0  0  0  0
    7.1191   -7.3636   15.7739 C   0  0  0  0  0  0  0  0  0  0  0  0
    5.9612   -8.3203   17.2732 N   0  0  0  0  0  0  0  0  0  0  0  0
    8.5296   -5.9814   17.1841 C   0  0  0  0  0  0  0  0  0  0  0  0
    9.1527   -5.2118   16.2116 C   0  0  0  0  0  0  0  0  0  0  0  0
   10.3364   -3.8368   22.9255 O   0  0  0  0  0  0  0  0  0  0  0  0
    9.6947   -4.8407   18.8534 C   0  0  0  0  0  0  0  0  0  0  0  0
    9.1596    1.7042   24.1381 C   0  0  0  0  0  0  0  0  0  0  0  0
   11.0456   -2.9774   18.2694 N   0  0  0  0  0  0  0  0  0  0  0  0
   10.4788   -3.0457   21.8593 C   0  0  0  0  0  0  0  0  0  0  0  0
    8.8693   -5.8099   18.4657 N   0  0  0  0  0  0  0  0  0  0  0  0
    8.9892   -0.7926   25.4573 C   0  0  0  0  0  0  0  0  0  0  0  0
   10.5677   -3.4462   20.5323 C   0  0  0  0  0  0  0  0  0  0  0  0
  1  8  1  0
  1 12  4  0
  1 14  4  0
  2  3  4  0
  2 18  4  0
  3 20  4  0
  3 22  4  0
  4 11  4  0
  4 21  4  0
  5  9  4  0
  5 16  4  0
  6 15  4  0
  6 16  4  0
  7 22  4  0
  7 26  4  0
  8 10  4  0
  8 25  4  0
  9 15  4  0
  9 17  1  0
 10 21  4  0
 11 25  4  0
 12 23  4  0
 13 20  4  0
 13 26  4  0
 14 19  4  0
 17 18  4  0
 17 24  4  0
 19 23  4  0
 20 24  4  0
 23 26  1  0
M  END
$$$$

 Created by Python create_sdf_string function

 26 30  0  0  0  0  0  0  0  0999 V2000
   10.0084   -1.8019   23.4945 C   0  0  0  0  0  0  0  0  0  0  0  0
   10.0005   -4.2520   16.5631 C   0  0  0  0  0  0  0  0  0  0  0  0
   10.2759   -4.0036   17.8845 C   0  0  0  0  0  0  0  0  0  0  0  0
    8.5652    1.5478   25.3778 N   0  0  0  0  0  0  0  0  0  0  0  0
    6.8048   -7.5457   17.8752 C   0  0  0  0  0  0  0  0  0  0  0  0
    6.1721   -8.2186   15.9886 N   0  0  0  0  0  0  0  0  0  0  0  0
   11.1764   -2.6600   19.5604 C   0  0  0  0  0  0  0  0  0  0  0  0
    9.5491   -0.6380   24.1912 C   0  0  0  0  0  0  0  0  0  0  0  0
    7.5337   -6.9256   16.9519 C   0  0  0  0  0  0  0  0  0  0  0  0
    9.6782    0.5671   23.5143 C   0  0  0  0  0  0  0  0  0  0  0  0
    8.4532    0.3482   26.0821 C   0  0  0  0  0  0  0  0  0  0  0  0
   10.4239   -1.7677   22.2230 N   0  0  0  0  0  0  0  0  0  0  0  0
    9.9468   -4.5953   20.1709 C   0  0  0  0  0  0  0  0  0  0  0  0
   10.0366   -3.0590   23.9864 N   0  0  0  0  0  0  0  0  0  0  0  0
    7.1191   -7.3636   15.7739 C   0  0  0  0  0  0  0  0  0  0  0  0
    5.9612   -8.3203   17.2732 N   0  0  0  0  0  0  0  0  0  0  0  0
    8.5296   -5.9814   17.1841 C   0  0  0  0  0  0  0  0  0  0  0  0
    9.1527   -5.2118   16.2116 C   0  0  0  0  0  0  0  0  0  0  0  0
   10.3364   -3.8368   22.9255 O   0  0  0  0  0  0  0  0  0  0  0  0
    9.6947   -4.8407   18.8534 C   0  0  0  0  0  0  0  0  0  0  0  0
    9.1596    1.7042   24.1381 C   0  0  0  0  0  0  0  0  0  0  0  0
   11.0456   -2.9774   18.2694 N   0  0  0  0  0  0  0  0  0  0  0  0
   10.4788   -3.0457   21.8593 C   0  0  0  0  0  0  0  0  0  0  0  0
    8.8693   -5.8099   18.4657 N   0  0  0  0  0  0  0  0  0  0  0  0
    8.9892   -0.7926   25.4573 C   0  0  0  0  0  0  0  0  0  0  0  0
   10.5677   -3.4462   20.5323 C   0  0  0  0  0  0  0  0  0  0  0  0
  1  8  1  0
  1 12  4  0
  1 14  4  0
  2  3  4  0
  2 18  4  0
  3 20  4  0
  3 22  4  0
  4 11  4  0
  4 21  4  0
  5  9  4  0
  5 16  4  0
  6 15  4  0
  6 16  4  0
  7 22  4  0
  7 26  4  0
  8 10  4  0
  8 25  4  0
  9 15  4  0
  9 17  1  0
 10 21  4  0
 11 25  4  0
 12 23  4  0
 13 20  4  0
 13 26  4  0
 14 19  4  0
 17 18  4  0
 17 24  4  0
 19 23  4  0
 20 24  4  0
 23 26  1  0
M  END
$$$$

 Created by Python create_sdf_string function

 26 30  0  0  0  0  0  0  0  0999 V2000
   10.0084   -1.8019   23.4945 C   0  0  0  0  0  0  0  0  0  0  0  0
   10.0005   -4.2520   16.5631 C   0  0  0  0  0  0  0  0  0  0  0  0
   10.2759   -4.0036   17.8845 C   0  0  0  0  0  0  0  0  0  0  0  0
    8.5652    1.5478   25.3778 N   0  0  0  0  0  0  0  0  0  0  0  0
    6.8048   -7.5457   17.8752 C   0  0  0  0  0  0  0  0  0  0  0  0
    6.1721   -8.2186   15.9886 N   0  0  0  0  0  0  0  0  0  0  0  0
   11.1764   -2.6600   19.5604 C   0  0  0  0  0  0  0  0  0  0  0  0
    9.5491   -0.6380   24.1912 C   0  0  0  0  0  0  0  0  0  0  0  0
    7.5337   -6.9256   16.9519 C   0  0  0  0  0  0  0  0  0  0  0  0
    9.6782    0.5671   23.5143 C   0  0  0  0  0  0  0  0  0  0  0  0
    8.4532    0.3482   26.0821 C   0  0  0  0  0  0  0  0  0  0  0  0
   10.4239   -1.7677   22.2230 N   0  0  0  0  0  0  0  0  0  0  0  0
    9.9468   -4.5953   20.1709 C   0  0  0  0  0  0  0  0  0  0  0  0
   10.0366   -3.0590   23.9864 N   0  0  0  0  0  0  0  0  0  0  0  0
    7.1191   -7.3636   15.7739 C   0  0  0  0  0  0  0  0  0  0  0  0
    5.9612   -8.3203   17.2732 N   0  0  0  0  0  0  0  0  0  0  0  0
    8.5296   -5.9814   17.1841 C   0  0  0  0  0  0  0  0  0  0  0  0
    9.1527   -5.2118   16.2116 C   0  0  0  0  0  0  0  0  0  0  0  0
   10.3364   -3.8368   22.9255 O   0  0  0  0  0  0  0  0  0  0  0  0
    9.6947   -4.8407   18.8534 C   0  0  0  0  0  0  0  0  0  0  0  0
    9.1596    1.7042   24.1381 C   0  0  0  0  0  0  0  0  0  0  0  0
   11.0456   -2.9774   18.2694 N   0  0  0  0  0  0  0  0  0  0  0  0
   10.4788   -3.0457   21.8593 C   0  0  0  0  0  0  0  0  0  0  0  0
    8.8693   -5.8099   18.4657 N   0  0  0  0  0  0  0  0  0  0  0  0
    8.9892   -0.7926   25.4573 C   0  0  0  0  0  0  0  0  0  0  0  0
   10.5677   -3.4462   20.5323 C   0  0  0  0  0  0  0  0  0  0  0  0
  1  8  1  0
  1 12  4  0
  1 14  4  0
  2  3  4  0
  2 18  4  0
  3 20  4  0
  3 22  4  0
  4 11  4  0
  4 21  4  0
  5  9  4  0
  5 16  4  0
  6 15  4  0
  6 16  4  0
  7 22  4  0
  7 26  4  0
  8 10  4  0
  8 25  4  0
  9 15  4  0
  9 17  1  0
 10 21  4  0
 11 25  4  0
 12 23  4  0
 13 20  4  0
 13 26  4  0
 14 19  4  0
 17 18  4  0
 17 24  4  0
 19 23  4  0
 20 24  4  0
 23 26  1  0
M  END
$$$$

 Created by Python create_sdf_string function

 26 30  0  0  0  0  0  0  0  0999 V2000
   10.0084   -1.8019   23.4945 C   0  0  0  0  0  0  0  0  0  0  0  0
   10.0005   -4.2520   16.5631 C   0  0  0  0  0  0  0  0  0  0  0  0
   10.2759   -4.0036   17.8845 C   0  0  0  0  0  0  0  0  0  0  0  0
    8.5652    1.5478   25.3778 N   0  0  0  0  0  0  0  0  0  0  0  0
    6.8048   -7.5457   17.8752 C   0  0  0  0  0  0  0  0  0  0  0  0
    6.1721   -8.2186   15.9886 N   0  0  0  0  0  0  0  0  0  0  0  0
   11.1764   -2.6600   19.5604 C   0  0  0  0  0  0  0  0  0  0  0  0
    9.5491   -0.6380   24.1912 C   0  0  0  0  0  0  0  0  0  0  0  0
    7.5337   -6.9256   16.9519 C   0  0  0  0  0  0  0  0  0  0  0  0
    9.6782    0.5671   23.5143 C   0  0  0  0  0  0  0  0  0  0  0  0
    8.4532    0.3482   26.0821 C   0  0  0  0  0  0  0  0  0  0  0  0
   10.4239   -1.7677   22.2230 N   0  0  0  0  0  0  0  0  0  0  0  0
    9.9468   -4.5953   20.1709 C   0  0  0  0  0  0  0  0  0  0  0  0
   10.0366   -3.0590   23.9864 N   0  0  0  0  0  0  0  0  0  0  0  0
    7.1191   -7.3636   15.7739 C   0  0  0  0  0  0  0  0  0  0  0  0
    5.9612   -8.3203   17.2732 N   0  0  0  0  0  0  0  0  0  0  0  0
    8.5296   -5.9814   17.1841 C   0  0  0  0  0  0  0  0  0  0  0  0
    9.1527   -5.2118   16.2116 C   0  0  0  0  0  0  0  0  0  0  0  0
   10.3364   -3.8368   22.9255 O   0  0  0  0  0  0  0  0  0  0  0  0
    9.6947   -4.8407   18.8534 C   0  0  0  0  0  0  0  0  0  0  0  0
    9.1596    1.7042   24.1381 C   0  0  0  0  0  0  0  0  0  0  0  0
   11.0456   -2.9774   18.2694 N   0  0  0  0  0  0  0  0  0  0  0  0
   10.4788   -3.0457   21.8593 C   0  0  0  0  0  0  0  0  0  0  0  0
    8.8693   -5.8099   18.4657 N   0  0  0  0  0  0  0  0  0  0  0  0
    8.9892   -0.7926   25.4573 C   0  0  0  0  0  0  0  0  0  0  0  0
   10.5677   -3.4462   20.5323 C   0  0  0  0  0  0  0  0  0  0  0  0
  1  8  1  0
  1 12  4  0
  1 14  4  0
  2  3  4  0
  2 18  4  0
  3 20  4  0
  3 22  4  0
  4 11  4  0
  4 21  4  0
  5  9  4  0
  5 16  4  0
  6 15  4  0
  6 16  4  0
  7 22  4  0
  7 26  4  0
  8 10  4  0
  8 25  4  0
  9 15  4  0
  9 17  1  0
 10 21  4  0
 11 25  4  0
 12 23  4  0
 13 20  4  0
 13 26  4  0
 14 19  4  0
 17 18  4  0
 17 24  4  0
 19 23  4  0
 20 24  4  0
 23 26  1  0
M  END
$$$$

 Created by Python create_sdf_string function

 26 30  0  0  0  0  0  0  0  0999 V2000
   10.0084   -1.8019   23.4945 C   0  0  0  0  0  0  0  0  0  0  0  0
   10.0005   -4.2520   16.5631 C   0  0  0  0  0  0  0  0  0  0  0  0
   10.2759   -4.0036   17.8845 C   0  0  0  0  0  0  0  0  0  0  0  0
    8.5652    1.5478   25.3778 N   0  0  0  0  0  0  0  0  0  0  0  0
    6.8048   -7.5457   17.8752 C   0  0  0  0  0  0  0  0  0  0  0  0
    6.1721   -8.2186   15.9886 N   0  0  0  0  0  0  0  0  0  0  0  0
   11.1764   -2.6600   19.5604 C   0  0  0  0  0  0  0  0  0  0  0  0
    9.5491   -0.6380   24.1912 C   0  0  0  0  0  0  0  0  0  0  0  0
    7.5337   -6.9256   16.9519 C   0  0  0  0  0  0  0  0  0  0  0  0
    9.6782    0.5671   23.5143 C   0  0  0  0  0  0  0  0  0  0  0  0
    8.4532    0.3482   26.0821 C   0  0  0  0  0  0  0  0  0  0  0  0
   10.4239   -1.7677   22.2230 N   0  0  0  0  0  0  0  0  0  0  0  0
    9.9468   -4.5953   20.1709 C   0  0  0  0  0  0  0  0  0  0  0  0
   10.0366   -3.0590   23.9864 N   0  0  0  0  0  0  0  0  0  0  0  0
    7.1191   -7.3636   15.7739 C   0  0  0  0  0  0  0  0  0  0  0  0
    5.9612   -8.3203   17.2732 N   0  0  0  0  0  0  0  0  0  0  0  0
    8.5296   -5.9814   17.1841 C   0  0  0  0  0  0  0  0  0  0  0  0
    9.1527   -5.2118   16.2116 C   0  0  0  0  0  0  0  0  0  0  0  0
   10.3364   -3.8368   22.9255 O   0  0  0  0  0  0  0  0  0  0  0  0
    9.6947   -4.8407   18.8534 C   0  0  0  0  0  0  0  0  0  0  0  0
    9.1596    1.7042   24.1381 C   0  0  0  0  0  0  0  0  0  0  0  0
   11.0456   -2.9774   18.2694 N   0  0  0  0  0  0  0  0  0  0  0  0
   10.4788   -3.0457   21.8593 C   0  0  0  0  0  0  0  0  0  0  0  0
    8.8693   -5.8099   18.4657 N   0  0  0  0  0  0  0  0  0  0  0  0
    8.9892   -0.7926   25.4573 C   0  0  0  0  0  0  0  0  0  0  0  0
   10.5677   -3.4462   20.5323 C   0  0  0  0  0  0  0  0  0  0  0  0
  1  8  1  0
  1 12  4  0
  1 14  4  0
  2  3  4  0
  2 18  4  0
  3 20  4  0
  3 22  4  0
  4 11  4  0
  4 21  4  0
  5  9  4  0
  5 16  4  0
  6 15  4  0
  6 16  4  0
  7 22  4  0
  7 26  4  0
  8 10  4  0
  8 25  4  0
  9 15  4  0
  9 17  1  0
 10 21  4  0
 11 25  4  0
 12 23  4  0
 13 20  4  0
 13 26  4  0
 14 19  4  0
 17 18  4  0
 17 24  4  0
 19 23  4  0
 20 24  4  0
 23 26  1  0
M  END
$$$$

 Created by Python create_sdf_string function

 26 30  0  0  0  0  0  0  0  0999 V2000
   10.0084   -1.8019   23.4945 C   0  0  0  0  0  0  0  0  0  0  0  0
   10.0005   -4.2520   16.5631 C   0  0  0  0  0  0  0  0  0  0  0  0
   10.2759   -4.0036   17.8845 C   0  0  0  0  0  0  0  0  0  0  0  0
    8.5652    1.5478   25.3778 N   0  0  0  0  0  0  0  0  0  0  0  0
    6.8048   -7.5457   17.8752 C   0  0  0  0  0  0  0  0  0  0  0  0
    6.1721   -8.2186   15.9886 N   0  0  0  0  0  0  0  0  0  0  0  0
   11.1764   -2.6600   19.5604 C   0  0  0  0  0  0  0  0  0  0  0  0
    9.5491   -0.6380   24.1912 C   0  0  0  0  0  0  0  0  0  0  0  0
    7.5337   -6.9256   16.9519 C   0  0  0  0  0  0  0  0  0  0  0  0
    9.6782    0.5671   23.5143 C   0  0  0  0  0  0  0  0  0  0  0  0
    8.4532    0.3482   26.0821 C   0  0  0  0  0  0  0  0  0  0  0  0
   10.4239   -1.7677   22.2230 N   0  0  0  0  0  0  0  0  0  0  0  0
    9.9468   -4.5953   20.1709 C   0  0  0  0  0  0  0  0  0  0  0  0
   10.0366   -3.0590   23.9864 N   0  0  0  0  0  0  0  0  0  0  0  0
    7.1191   -7.3636   15.7739 C   0  0  0  0  0  0  0  0  0  0  0  0
    5.9612   -8.3203   17.2732 N   0  0  0  0  0  0  0  0  0  0  0  0
    8.5296   -5.9814   17.1841 C   0  0  0  0  0  0  0  0  0  0  0  0
    9.1527   -5.2118   16.2116 C   0  0  0  0  0  0  0  0  0  0  0  0
   10.3364   -3.8368   22.9255 O   0  0  0  0  0  0  0  0  0  0  0  0
    9.6947   -4.8407   18.8534 C   0  0  0  0  0  0  0  0  0  0  0  0
    9.1596    1.7042   24.1381 C   0  0  0  0  0  0  0  0  0  0  0  0
   11.0456   -2.9774   18.2694 N   0  0  0  0  0  0  0  0  0  0  0  0
   10.4788   -3.0457   21.8593 C   0  0  0  0  0  0  0  0  0  0  0  0
    8.8693   -5.8099   18.4657 N   0  0  0  0  0  0  0  0  0  0  0  0
    8.9892   -0.7926   25.4573 C   0  0  0  0  0  0  0  0  0  0  0  0
   10.5677   -3.4462   20.5323 C   0  0  0  0  0  0  0  0  0  0  0  0
  1  8  1  0
  1 12  4  0
  1 14  4  0
  2  3  4  0
  2 18  4  0
  3 20  4  0
  3 22  4  0
  4 11  4  0
  4 21  4  0
  5  9  4  0
  5 16  4  0
  6 15  4  0
  6 16  4  0
  7 22  4  0
  7 26  4  0
  8 10  4  0
  8 25  4  0
  9 15  4  0
  9 17  1  0
 10 21  4  0
 11 25  4  0
 12 23  4  0
 13 20  4  0
 13 26  4  0
 14 19  4  0
 17 18  4  0
 17 24  4  0
 19 23  4  0
 20 24  4  0
 23 26  1  0
M  END
$$$$

 Created by Python create_sdf_string function

 26 30  0  0  0  0  0  0  0  0999 V2000
   10.0084   -1.8019   23.4945 C   0  0  0  0  0  0  0  0  0  0  0  0
   10.0005   -4.2520   16.5631 C   0  0  0  0  0  0  0  0  0  0  0  0
   10.2759   -4.0036   17.8845 C   0  0  0  0  0  0  0  0  0  0  0  0
    8.5652    1.5478   25.3778 N   0  0  0  0  0  0  0  0  0  0  0  0
    6.8048   -7.5457   17.8752 C   0  0  0  0  0  0  0  0  0  0  0  0
    6.1721   -8.2186   15.9886 N   0  0  0  0  0  0  0  0  0  0  0  0
   11.1764   -2.6600   19.5604 C   0  0  0  0  0  0  0  0  0  0  0  0
    9.5491   -0.6380   24.1912 C   0  0  0  0  0  0  0  0  0  0  0  0
    7.5337   -6.9256   16.9519 C   0  0  0  0  0  0  0  0  0  0  0  0
    9.6782    0.5671   23.5143 C   0  0  0  0  0  0  0  0  0  0  0  0
    8.4532    0.3482   26.0821 C   0  0  0  0  0  0  0  0  0  0  0  0
   10.4239   -1.7677   22.2230 N   0  0  0  0  0  0  0  0  0  0  0  0
    9.9468   -4.5953   20.1709 C   0  0  0  0  0  0  0  0  0  0  0  0
   10.0366   -3.0590   23.9864 N   0  0  0  0  0  0  0  0  0  0  0  0
    7.1191   -7.3636   15.7739 C   0  0  0  0  0  0  0  0  0  0  0  0
    5.9612   -8.3203   17.2732 N   0  0  0  0  0  0  0  0  0  0  0  0
    8.5296   -5.9814   17.1841 C   0  0  0  0  0  0  0  0  0  0  0  0
    9.1527   -5.2118   16.2116 C   0  0  0  0  0  0  0  0  0  0  0  0
   10.3364   -3.8368   22.9255 O   0  0  0  0  0  0  0  0  0  0  0  0
    9.6947   -4.8407   18.8534 C   0  0  0  0  0  0  0  0  0  0  0  0
    9.1596    1.7042   24.1381 C   0  0  0  0  0  0  0  0  0  0  0  0
   11.0456   -2.9774   18.2694 N   0  0  0  0  0  0  0  0  0  0  0  0
   10.4788   -3.0457   21.8593 C   0  0  0  0  0  0  0  0  0  0  0  0
    8.8693   -5.8099   18.4657 N   0  0  0  0  0  0  0  0  0  0  0  0
    8.9892   -0.7926   25.4573 C   0  0  0  0  0  0  0  0  0  0  0  0
   10.5677   -3.4462   20.5323 C   0  0  0  0  0  0  0  0  0  0  0  0
  1  8  1  0
  1 12  4  0
  1 14  4  0
  2  3  4  0
  2 18  4  0
  3 20  4  0
  3 22  4  0
  4 11  4  0
  4 21  4  0
  5  9  4  0
  5 16  4  0
  6 15  4  0
  6 16  4  0
  7 22  4  0
  7 26  4  0
  8 10  4  0
  8 25  4  0
  9 15  4  0
  9 17  1  0
 10 21  4  0
 11 25  4  0
 12 23  4  0
 13 20  4  0
 13 26  4  0
 14 19  4  0
 17 18  4  0
 17 24  4  0
 19 23  4  0
 20 24  4  0
 23 26  1  0
M  END
$$$$

 Created by Python create_sdf_string function

 26 30  0  0  0  0  0  0  0  0999 V2000
   10.0084   -1.8019   23.4945 C   0  0  0  0  0  0  0  0  0  0  0  0
   10.0005   -4.2520   16.5631 C   0  0  0  0  0  0  0  0  0  0  0  0
   10.2759   -4.0036   17.8845 C   0  0  0  0  0  0  0  0  0  0  0  0
    8.5652    1.5478   25.3778 N   0  0  0  0  0  0  0  0  0  0  0  0
    6.8048   -7.5457   17.8752 C   0  0  0  0  0  0  0  0  0  0  0  0
    6.1721   -8.2186   15.9886 N   0  0  0  0  0  0  0  0  0  0  0  0
   11.1764   -2.6600   19.5604 C   0  0  0  0  0  0  0  0  0  0  0  0
    9.5491   -0.6380   24.1912 C   0  0  0  0  0  0  0  0  0  0  0  0
    7.5337   -6.9256   16.9519 C   0  0  0  0  0  0  0  0  0  0  0  0
    9.6782    0.5671   23.5143 C   0  0  0  0  0  0  0  0  0  0  0  0
    8.4532    0.3482   26.0821 C   0  0  0  0  0  0  0  0  0  0  0  0
   10.4239   -1.7677   22.2230 N   0  0  0  0  0  0  0  0  0  0  0  0
    9.9468   -4.5953   20.1709 C   0  0  0  0  0  0  0  0  0  0  0  0
   10.0366   -3.0590   23.9864 N   0  0  0  0  0  0  0  0  0  0  0  0
    7.1191   -7.3636   15.7739 C   0  0  0  0  0  0  0  0  0  0  0  0
    5.9612   -8.3203   17.2732 N   0  0  0  0  0  0  0  0  0  0  0  0
    8.5296   -5.9814   17.1841 C   0  0  0  0  0  0  0  0  0  0  0  0
    9.1527   -5.2118   16.2116 C   0  0  0  0  0  0  0  0  0  0  0  0
   10.3364   -3.8368   22.9255 O   0  0  0  0  0  0  0  0  0  0  0  0
    9.6947   -4.8407   18.8534 C   0  0  0  0  0  0  0  0  0  0  0  0
    9.1596    1.7042   24.1381 C   0  0  0  0  0  0  0  0  0  0  0  0
   11.0456   -2.9774   18.2694 N   0  0  0  0  0  0  0  0  0  0  0  0
   10.4788   -3.0457   21.8593 C   0  0  0  0  0  0  0  0  0  0  0  0
    8.8693   -5.8099   18.4657 N   0  0  0  0  0  0  0  0  0  0  0  0
    8.9892   -0.7926   25.4573 C   0  0  0  0  0  0  0  0  0  0  0  0
   10.5677   -3.4462   20.5323 C   0  0  0  0  0  0  0  0  0  0  0  0
  1  8  1  0
  1 12  4  0
  1 14  4  0
  2  3  4  0
  2 18  4  0
  3 20  4  0
  3 22  4  0
  4 11  4  0
  4 21  4  0
  5  9  4  0
  5 16  4  0
  6 15  4  0
  6 16  4  0
  7 22  4  0
  7 26  4  0
  8 10  4  0
  8 25  4  0
  9 15  4  0
  9 17  1  0
 10 21  4  0
 11 25  4  0
 12 23  4  0
 13 20  4  0
 13 26  4  0
 14 19  4  0
 17 18  4  0
 17 24  4  0
 19 23  4  0
 20 24  4  0
 23 26  1  0
M  END
$$$$

 Created by Python create_sdf_string function

 26 30  0  0  0  0  0  0  0  0999 V2000
   10.0084   -1.8019   23.4945 C   0  0  0  0  0  0  0  0  0  0  0  0
   10.0005   -4.2520   16.5631 C   0  0  0  0  0  0  0  0  0  0  0  0
   10.2759   -4.0036   17.8845 C   0  0  0  0  0  0  0  0  0  0  0  0
    8.5652    1.5478   25.3778 N   0  0  0  0  0  0  0  0  0  0  0  0
    6.8048   -7.5457   17.8752 C   0  0  0  0  0  0  0  0  0  0  0  0
    6.1721   -8.2186   15.9886 N   0  0  0  0  0  0  0  0  0  0  0  0
   11.1764   -2.6600   19.5604 C   0  0  0  0  0  0  0  0  0  0  0  0
    9.5491   -0.6380   24.1912 C   0  0  0  0  0  0  0  0  0  0  0  0
    7.5337   -6.9256   16.9519 C   0  0  0  0  0  0  0  0  0  0  0  0
    9.6782    0.5671   23.5143 C   0  0  0  0  0  0  0  0  0  0  0  0
    8.4532    0.3482   26.0821 C   0  0  0  0  0  0  0  0  0  0  0  0
   10.4239   -1.7677   22.2230 N   0  0  0  0  0  0  0  0  0  0  0  0
    9.9468   -4.5953   20.1709 C   0  0  0  0  0  0  0  0  0  0  0  0
   10.0366   -3.0590   23.9864 N   0  0  0  0  0  0  0  0  0  0  0  0
    7.1191   -7.3636   15.7739 C   0  0  0  0  0  0  0  0  0  0  0  0
    5.9612   -8.3203   17.2732 N   0  0  0  0  0  0  0  0  0  0  0  0
    8.5296   -5.9814   17.1841 C   0  0  0  0  0  0  0  0  0  0  0  0
    9.1527   -5.2118   16.2116 C   0  0  0  0  0  0  0  0  0  0  0  0
   10.3364   -3.8368   22.9255 O   0  0  0  0  0  0  0  0  0  0  0  0
    9.6947   -4.8407   18.8534 C   0  0  0  0  0  0  0  0  0  0  0  0
    9.1596    1.7042   24.1381 C   0  0  0  0  0  0  0  0  0  0  0  0
   11.0456   -2.9774   18.2694 N   0  0  0  0  0  0  0  0  0  0  0  0
   10.4788   -3.0457   21.8593 C   0  0  0  0  0  0  0  0  0  0  0  0
    8.8693   -5.8099   18.4657 N   0  0  0  0  0  0  0  0  0  0  0  0
    8.9892   -0.7926   25.4573 C   0  0  0  0  0  0  0  0  0  0  0  0
   10.5677   -3.4462   20.5323 C   0  0  0  0  0  0  0  0  0  0  0  0
  1  8  1  0
  1 12  4  0
  1 14  4  0
  2  3  4  0
  2 18  4  0
  3 20  4  0
  3 22  4  0
  4 11  4  0
  4 21  4  0
  5  9  4  0
  5 16  4  0
  6 15  4  0
  6 16  4  0
  7 22  4  0
  7 26  4  0
  8 10  4  0
  8 25  4  0
  9 15  4  0
  9 17  1  0
 10 21  4  0
 11 25  4  0
 12 23  4  0
 13 20  4  0
 13 26  4  0
 14 19  4  0
 17 18  4  0
 17 24  4  0
 19 23  4  0
 20 24  4  0
 23 26  1  0
M  END
$$$$

 Created by Python create_sdf_string function

 26 30  0  0  0  0  0  0  0  0999 V2000
   10.0084   -1.8019   23.4945 C   0  0  0  0  0  0  0  0  0  0  0  0
   10.0005   -4.2520   16.5631 C   0  0  0  0  0  0  0  0  0  0  0  0
   10.2759   -4.0036   17.8845 C   0  0  0  0  0  0  0  0  0  0  0  0
    8.5652    1.5478   25.3778 N   0  0  0  0  0  0  0  0  0  0  0  0
    6.8048   -7.5457   17.8752 C   0  0  0  0  0  0  0  0  0  0  0  0
    6.1721   -8.2186   15.9886 N   0  0  0  0  0  0  0  0  0  0  0  0
   11.1764   -2.6600   19.5604 C   0  0  0  0  0  0  0  0  0  0  0  0
    9.5491   -0.6380   24.1912 C   0  0  0  0  0  0  0  0  0  0  0  0
    7.5337   -6.9256   16.9519 C   0  0  0  0  0  0  0  0  0  0  0  0
    9.6782    0.5671   23.5143 C   0  0  0  0  0  0  0  0  0  0  0  0
    8.4532    0.3482   26.0821 C   0  0  0  0  0  0  0  0  0  0  0  0
   10.4239   -1.7677   22.2230 N   0  0  0  0  0  0  0  0  0  0  0  0
    9.9468   -4.5953   20.1709 C   0  0  0  0  0  0  0  0  0  0  0  0
   10.0366   -3.0590   23.9864 N   0  0  0  0  0  0  0  0  0  0  0  0
    7.1191   -7.3636   15.7739 C   0  0  0  0  0  0  0  0  0  0  0  0
    5.9612   -8.3203   17.2732 N   0  0  0  0  0  0  0  0  0  0  0  0
    8.5296   -5.9814   17.1841 C   0  0  0  0  0  0  0  0  0  0  0  0
    9.1527   -5.2118   16.2116 C   0  0  0  0  0  0  0  0  0  0  0  0
   10.3364   -3.8368   22.9255 O   0  0  0  0  0  0  0  0  0  0  0  0
    9.6947   -4.8407   18.8534 C   0  0  0  0  0  0  0  0  0  0  0  0
    9.1596    1.7042   24.1381 C   0  0  0  0  0  0  0  0  0  0  0  0
   11.0456   -2.9774   18.2694 N   0  0  0  0  0  0  0  0  0  0  0  0
   10.4788   -3.0457   21.8593 C   0  0  0  0  0  0  0  0  0  0  0  0
    8.8693   -5.8099   18.4657 N   0  0  0  0  0  0  0  0  0  0  0  0
    8.9892   -0.7926   25.4573 C   0  0  0  0  0  0  0  0  0  0  0  0
   10.5677   -3.4462   20.5323 C   0  0  0  0  0  0  0  0  0  0  0  0
  1  8  1  0
  1 12  4  0
  1 14  4  0
  2  3  4  0
  2 18  4  0
  3 20  4  0
  3 22  4  0
  4 11  4  0
  4 21  4  0
  5  9  4  0
  5 16  4  0
  6 15  4  0
  6 16  4  0
  7 22  4  0
  7 26  4  0
  8 10  4  0
  8 25  4  0
  9 15  4  0
  9 17  1  0
 10 21  4  0
 11 25  4  0
 12 23  4  0
 13 20  4  0
 13 26  4  0
 14 19  4  0
 17 18  4  0
 17 24  4  0
 19 23  4  0
 20 24  4  0
 23 26  1  0
M  END
$$$$

 Created by Python create_sdf_string function

 26 30  0  0  0  0  0  0  0  0999 V2000
   10.0084   -1.8019   23.4945 C   0  0  0  0  0  0  0  0  0  0  0  0
   10.0005   -4.2520   16.5631 C   0  0  0  0  0  0  0  0  0  0  0  0
   10.2759   -4.0036   17.8845 C   0  0  0  0  0  0  0  0  0  0  0  0
    8.5652    1.5478   25.3778 N   0  0  0  0  0  0  0  0  0  0  0  0
    6.8048   -7.5457   17.8752 C   0  0  0  0  0  0  0  0  0  0  0  0
    6.1721   -8.2186   15.9886 N   0  0  0  0  0  0  0  0  0  0  0  0
   11.1764   -2.6600   19.5604 C   0  0  0  0  0  0  0  0  0  0  0  0
    9.5491   -0.6380   24.1912 C   0  0  0  0  0  0  0  0  0  0  0  0
    7.5337   -6.9256   16.9519 C   0  0  0  0  0  0  0  0  0  0  0  0
    9.6782    0.5671   23.5143 C   0  0  0  0  0  0  0  0  0  0  0  0
    8.4532    0.3482   26.0821 C   0  0  0  0  0  0  0  0  0  0  0  0
   10.4239   -1.7677   22.2230 N   0  0  0  0  0  0  0  0  0  0  0  0
    9.9468   -4.5953   20.1709 C   0  0  0  0  0  0  0  0  0  0  0  0
   10.0366   -3.0590   23.9864 N   0  0  0  0  0  0  0  0  0  0  0  0
    7.1191   -7.3636   15.7739 C   0  0  0  0  0  0  0  0  0  0  0  0
    5.9612   -8.3203   17.2732 N   0  0  0  0  0  0  0  0  0  0  0  0
    8.5296   -5.9814   17.1841 C   0  0  0  0  0  0  0  0  0  0  0  0
    9.1527   -5.2118   16.2116 C   0  0  0  0  0  0  0  0  0  0  0  0
   10.3364   -3.8368   22.9255 O   0  0  0  0  0  0  0  0  0  0  0  0
    9.6947   -4.8407   18.8534 C   0  0  0  0  0  0  0  0  0  0  0  0
    9.1596    1.7042   24.1381 C   0  0  0  0  0  0  0  0  0  0  0  0
   11.0456   -2.9774   18.2694 N   0  0  0  0  0  0  0  0  0  0  0  0
   10.4788   -3.0457   21.8593 C   0  0  0  0  0  0  0  0  0  0  0  0
    8.8693   -5.8099   18.4657 N   0  0  0  0  0  0  0  0  0  0  0  0
    8.9892   -0.7926   25.4573 C   0  0  0  0  0  0  0  0  0  0  0  0
   10.5677   -3.4462   20.5323 C   0  0  0  0  0  0  0  0  0  0  0  0
  1  8  1  0
  1 12  4  0
  1 14  4  0
  2  3  4  0
  2 18  4  0
  3 20  4  0
  3 22  4  0
  4 11  4  0
  4 21  4  0
  5  9  4  0
  5 16  4  0
  6 15  4  0
  6 16  4  0
  7 22  4  0
  7 26  4  0
  8 10  4  0
  8 25  4  0
  9 15  4  0
  9 17  1  0
 10 21  4  0
 11 25  4  0
 12 23  4  0
 13 20  4  0
 13 26  4  0
 14 19  4  0
 17 18  4  0
 17 24  4  0
 19 23  4  0
 20 24  4  0
 23 26  1  0
M  END
$$$$

 Created by Python create_sdf_string function

 26 30  0  0  0  0  0  0  0  0999 V2000
   10.0084   -1.8019   23.4945 C   0  0  0  0  0  0  0  0  0  0  0  0
   10.0005   -4.2520   16.5631 C   0  0  0  0  0  0  0  0  0  0  0  0
   10.2759   -4.0036   17.8845 C   0  0  0  0  0  0  0  0  0  0  0  0
    8.5652    1.5478   25.3778 N   0  0  0  0  0  0  0  0  0  0  0  0
    6.8048   -7.5457   17.8752 C   0  0  0  0  0  0  0  0  0  0  0  0
    6.1721   -8.2186   15.9886 N   0  0  0  0  0  0  0  0  0  0  0  0
   11.1764   -2.6600   19.5604 C   0  0  0  0  0  0  0  0  0  0  0  0
    9.5491   -0.6380   24.1912 C   0  0  0  0  0  0  0  0  0  0  0  0
    7.5337   -6.9256   16.9519 C   0  0  0  0  0  0  0  0  0  0  0  0
    9.6782    0.5671   23.5143 C   0  0  0  0  0  0  0  0  0  0  0  0
    8.4532    0.3482   26.0821 C   0  0  0  0  0  0  0  0  0  0  0  0
   10.4239   -1.7677   22.2230 N   0  0  0  0  0  0  0  0  0  0  0  0
    9.9468   -4.5953   20.1709 C   0  0  0  0  0  0  0  0  0  0  0  0
   10.0366   -3.0590   23.9864 N   0  0  0  0  0  0  0  0  0  0  0  0
    7.1191   -7.3636   15.7739 C   0  0  0  0  0  0  0  0  0  0  0  0
    5.9612   -8.3203   17.2732 N   0  0  0  0  0  0  0  0  0  0  0  0
    8.5296   -5.9814   17.1841 C   0  0  0  0  0  0  0  0  0  0  0  0
    9.1527   -5.2118   16.2116 C   0  0  0  0  0  0  0  0  0  0  0  0
   10.3364   -3.8368   22.9255 O   0  0  0  0  0  0  0  0  0  0  0  0
    9.6947   -4.8407   18.8534 C   0  0  0  0  0  0  0  0  0  0  0  0
    9.1596    1.7042   24.1381 C   0  0  0  0  0  0  0  0  0  0  0  0
   11.0456   -2.9774   18.2694 N   0  0  0  0  0  0  0  0  0  0  0  0
   10.4788   -3.0457   21.8593 C   0  0  0  0  0  0  0  0  0  0  0  0
    8.8693   -5.8099   18.4657 N   0  0  0  0  0  0  0  0  0  0  0  0
    8.9892   -0.7926   25.4573 C   0  0  0  0  0  0  0  0  0  0  0  0
   10.5677   -3.4462   20.5323 C   0  0  0  0  0  0  0  0  0  0  0  0
  1  8  1  0
  1 12  4  0
  1 14  4  0
  2  3  4  0
  2 18  4  0
  3 20  4  0
  3 22  4  0
  4 11  4  0
  4 21  4  0
  5  9  4  0
  5 16  4  0
  6 15  4  0
  6 16  4  0
  7 22  4  0
  7 26  4  0
  8 10  4  0
  8 25  4  0
  9 15  4  0
  9 17  1  0
 10 21  4  0
 11 25  4  0
 12 23  4  0
 13 20  4  0
 13 26  4  0
 14 19  4  0
 17 18  4  0
 17 24  4  0
 19 23  4  0
 20 24  4  0
 23 26  1  0
M  END
$$$$

 Created by Python create_sdf_string function

 26 30  0  0  0  0  0  0  0  0999 V2000
   10.0084   -1.8019   23.4945 C   0  0  0  0  0  0  0  0  0  0  0  0
   10.0005   -4.2520   16.5631 C   0  0  0  0  0  0  0  0  0  0  0  0
   10.2759   -4.0036   17.8845 C   0  0  0  0  0  0  0  0  0  0  0  0
    8.5652    1.5478   25.3778 N   0  0  0  0  0  0  0  0  0  0  0  0
    6.8048   -7.5457   17.8752 C   0  0  0  0  0  0  0  0  0  0  0  0
    6.1721   -8.2186   15.9886 N   0  0  0  0  0  0  0  0  0  0  0  0
   11.1764   -2.6600   19.5604 C   0  0  0  0  0  0  0  0  0  0  0  0
    9.5491   -0.6380   24.1912 C   0  0  0  0  0  0  0  0  0  0  0  0
    7.5337   -6.9256   16.9519 C   0  0  0  0  0  0  0  0  0  0  0  0
    9.6782    0.5671   23.5143 C   0  0  0  0  0  0  0  0  0  0  0  0
    8.4532    0.3482   26.0821 C   0  0  0  0  0  0  0  0  0  0  0  0
   10.4239   -1.7677   22.2230 N   0  0  0  0  0  0  0  0  0  0  0  0
    9.9468   -4.5953   20.1709 C   0  0  0  0  0  0  0  0  0  0  0  0
   10.0366   -3.0590   23.9864 N   0  0  0  0  0  0  0  0  0  0  0  0
    7.1191   -7.3636   15.7739 C   0  0  0  0  0  0  0  0  0  0  0  0
    5.9612   -8.3203   17.2732 N   0  0  0  0  0  0  0  0  0  0  0  0
    8.5296   -5.9814   17.1841 C   0  0  0  0  0  0  0  0  0  0  0  0
    9.1527   -5.2118   16.2116 C   0  0  0  0  0  0  0  0  0  0  0  0
   10.3364   -3.8368   22.9255 O   0  0  0  0  0  0  0  0  0  0  0  0
    9.6947   -4.8407   18.8534 C   0  0  0  0  0  0  0  0  0  0  0  0
    9.1596    1.7042   24.1381 C   0  0  0  0  0  0  0  0  0  0  0  0
   11.0456   -2.9774   18.2694 N   0  0  0  0  0  0  0  0  0  0  0  0
   10.4788   -3.0457   21.8593 C   0  0  0  0  0  0  0  0  0  0  0  0
    8.8693   -5.8099   18.4657 N   0  0  0  0  0  0  0  0  0  0  0  0
    8.9892   -0.7926   25.4573 C   0  0  0  0  0  0  0  0  0  0  0  0
   10.5677   -3.4462   20.5323 C   0  0  0  0  0  0  0  0  0  0  0  0
  1  8  1  0
  1 12  4  0
  1 14  4  0
  2  3  4  0
  2 18  4  0
  3 20  4  0
  3 22  4  0
  4 11  4  0
  4 21  4  0
  5  9  4  0
  5 16  4  0
  6 15  4  0
  6 16  4  0
  7 22  4  0
  7 26  4  0
  8 10  4  0
  8 25  4  0
  9 15  4  0
  9 17  1  0
 10 21  4  0
 11 25  4  0
 12 23  4  0
 13 20  4  0
 13 26  4  0
 14 19  4  0
 17 18  4  0
 17 24  4  0
 19 23  4  0
 20 24  4  0
 23 26  1  0
M  END
$$$$

 Created by Python create_sdf_string function

 26 30  0  0  0  0  0  0  0  0999 V2000
   10.0084   -1.8019   23.4945 C   0  0  0  0  0  0  0  0  0  0  0  0
   10.0005   -4.2520   16.5631 C   0  0  0  0  0  0  0  0  0  0  0  0
   10.2759   -4.0036   17.8845 C   0  0  0  0  0  0  0  0  0  0  0  0
    8.5652    1.5478   25.3778 N   0  0  0  0  0  0  0  0  0  0  0  0
    6.8048   -7.5457   17.8752 C   0  0  0  0  0  0  0  0  0  0  0  0
    6.1721   -8.2186   15.9886 N   0  0  0  0  0  0  0  0  0  0  0  0
   11.1764   -2.6600   19.5604 C   0  0  0  0  0  0  0  0  0  0  0  0
    9.5491   -0.6380   24.1912 C   0  0  0  0  0  0  0  0  0  0  0  0
    7.5337   -6.9256   16.9519 C   0  0  0  0  0  0  0  0  0  0  0  0
    9.6782    0.5671   23.5143 C   0  0  0  0  0  0  0  0  0  0  0  0
    8.4532    0.3482   26.0821 C   0  0  0  0  0  0  0  0  0  0  0  0
   10.4239   -1.7677   22.2230 N   0  0  0  0  0  0  0  0  0  0  0  0
    9.9468   -4.5953   20.1709 C   0  0  0  0  0  0  0  0  0  0  0  0
   10.0366   -3.0590   23.9864 N   0  0  0  0  0  0  0  0  0  0  0  0
    7.1191   -7.3636   15.7739 C   0  0  0  0  0  0  0  0  0  0  0  0
    5.9612   -8.3203   17.2732 N   0  0  0  0  0  0  0  0  0  0  0  0
    8.5296   -5.9814   17.1841 C   0  0  0  0  0  0  0  0  0  0  0  0
    9.1527   -5.2118   16.2116 C   0  0  0  0  0  0  0  0  0  0  0  0
   10.3364   -3.8368   22.9255 O   0  0  0  0  0  0  0  0  0  0  0  0
    9.6947   -4.8407   18.8534 C   0  0  0  0  0  0  0  0  0  0  0  0
    9.1596    1.7042   24.1381 C   0  0  0  0  0  0  0  0  0  0  0  0
   11.0456   -2.9774   18.2694 N   0  0  0  0  0  0  0  0  0  0  0  0
   10.4788   -3.0457   21.8593 C   0  0  0  0  0  0  0  0  0  0  0  0
    8.8693   -5.8099   18.4657 N   0  0  0  0  0  0  0  0  0  0  0  0
    8.9892   -0.7926   25.4573 C   0  0  0  0  0  0  0  0  0  0  0  0
   10.5677   -3.4462   20.5323 C   0  0  0  0  0  0  0  0  0  0  0  0
  1  8  1  0
  1 12  4  0
  1 14  4  0
  2  3  4  0
  2 18  4  0
  3 20  4  0
  3 22  4  0
  4 11  4  0
  4 21  4  0
  5  9  4  0
  5 16  4  0
  6 15  4  0
  6 16  4  0
  7 22  4  0
  7 26  4  0
  8 10  4  0
  8 25  4  0
  9 15  4  0
  9 17  1  0
 10 21  4  0
 11 25  4  0
 12 23  4  0
 13 20  4  0
 13 26  4  0
 14 19  4  0
 17 18  4  0
 17 24  4  0
 19 23  4  0
 20 24  4  0
 23 26  1  0
M  END
$$$$

 Created by Python create_sdf_string function

 26 30  0  0  0  0  0  0  0  0999 V2000
   10.0084   -1.8019   23.4945 C   0  0  0  0  0  0  0  0  0  0  0  0
   10.0005   -4.2520   16.5631 C   0  0  0  0  0  0  0  0  0  0  0  0
   10.2759   -4.0036   17.8845 C   0  0  0  0  0  0  0  0  0  0  0  0
    8.5652    1.5478   25.3778 N   0  0  0  0  0  0  0  0  0  0  0  0
    6.8048   -7.5457   17.8752 C   0  0  0  0  0  0  0  0  0  0  0  0
    6.1721   -8.2186   15.9886 N   0  0  0  0  0  0  0  0  0  0  0  0
   11.1764   -2.6600   19.5604 C   0  0  0  0  0  0  0  0  0  0  0  0
    9.5491   -0.6380   24.1912 C   0  0  0  0  0  0  0  0  0  0  0  0
    7.5337   -6.9256   16.9519 C   0  0  0  0  0  0  0  0  0  0  0  0
    9.6782    0.5671   23.5143 C   0  0  0  0  0  0  0  0  0  0  0  0
    8.4532    0.3482   26.0821 C   0  0  0  0  0  0  0  0  0  0  0  0
   10.4239   -1.7677   22.2230 N   0  0  0  0  0  0  0  0  0  0  0  0
    9.9468   -4.5953   20.1709 C   0  0  0  0  0  0  0  0  0  0  0  0
   10.0366   -3.0590   23.9864 N   0  0  0  0  0  0  0  0  0  0  0  0
    7.1191   -7.3636   15.7739 C   0  0  0  0  0  0  0  0  0  0  0  0
    5.9612   -8.3203   17.2732 N   0  0  0  0  0  0  0  0  0  0  0  0
    8.5296   -5.9814   17.1841 C   0  0  0  0  0  0  0  0  0  0  0  0
    9.1527   -5.2118   16.2116 C   0  0  0  0  0  0  0  0  0  0  0  0
   10.3364   -3.8368   22.9255 O   0  0  0  0  0  0  0  0  0  0  0  0
    9.6947   -4.8407   18.8534 C   0  0  0  0  0  0  0  0  0  0  0  0
    9.1596    1.7042   24.1381 C   0  0  0  0  0  0  0  0  0  0  0  0
   11.0456   -2.9774   18.2694 N   0  0  0  0  0  0  0  0  0  0  0  0
   10.4788   -3.0457   21.8593 C   0  0  0  0  0  0  0  0  0  0  0  0
    8.8693   -5.8099   18.4657 N   0  0  0  0  0  0  0  0  0  0  0  0
    8.9892   -0.7926   25.4573 C   0  0  0  0  0  0  0  0  0  0  0  0
   10.5677   -3.4462   20.5323 C   0  0  0  0  0  0  0  0  0  0  0  0
  1  8  1  0
  1 12  4  0
  1 14  4  0
  2  3  4  0
  2 18  4  0
  3 20  4  0
  3 22  4  0
  4 11  4  0
  4 21  4  0
  5  9  4  0
  5 16  4  0
  6 15  4  0
  6 16  4  0
  7 22  4  0
  7 26  4  0
  8 10  4  0
  8 25  4  0
  9 15  4  0
  9 17  1  0
 10 21  4  0
 11 25  4  0
 12 23  4  0
 13 20  4  0
 13 26  4  0
 14 19  4  0
 17 18  4  0
 17 24  4  0
 19 23  4  0
 20 24  4  0
 23 26  1  0
M  END
$$$$

 Created by Python create_sdf_string function

 26 30  0  0  0  0  0  0  0  0999 V2000
   10.0084   -1.8019   23.4945 C   0  0  0  0  0  0  0  0  0  0  0  0
   10.0005   -4.2520   16.5631 C   0  0  0  0  0  0  0  0  0  0  0  0
   10.2759   -4.0036   17.8845 C   0  0  0  0  0  0  0  0  0  0  0  0
    8.5652    1.5478   25.3778 N   0  0  0  0  0  0  0  0  0  0  0  0
    6.8048   -7.5457   17.8752 C   0  0  0  0  0  0  0  0  0  0  0  0
    6.1721   -8.2186   15.9886 N   0  0  0  0  0  0  0  0  0  0  0  0
   11.1764   -2.6600   19.5604 C   0  0  0  0  0  0  0  0  0  0  0  0
    9.5491   -0.6380   24.1912 C   0  0  0  0  0  0  0  0  0  0  0  0
    7.5337   -6.9256   16.9519 C   0  0  0  0  0  0  0  0  0  0  0  0
    9.6782    0.5671   23.5143 C   0  0  0  0  0  0  0  0  0  0  0  0
    8.4532    0.3482   26.0821 C   0  0  0  0  0  0  0  0  0  0  0  0
   10.4239   -1.7677   22.2230 N   0  0  0  0  0  0  0  0  0  0  0  0
    9.9468   -4.5953   20.1709 C   0  0  0  0  0  0  0  0  0  0  0  0
   10.0366   -3.0590   23.9864 N   0  0  0  0  0  0  0  0  0  0  0  0
    7.1191   -7.3636   15.7739 C   0  0  0  0  0  0  0  0  0  0  0  0
    5.9612   -8.3203   17.2732 N   0  0  0  0  0  0  0  0  0  0  0  0
    8.5296   -5.9814   17.1841 C   0  0  0  0  0  0  0  0  0  0  0  0
    9.1527   -5.2118   16.2116 C   0  0  0  0  0  0  0  0  0  0  0  0
   10.3364   -3.8368   22.9255 O   0  0  0  0  0  0  0  0  0  0  0  0
    9.6947   -4.8407   18.8534 C   0  0  0  0  0  0  0  0  0  0  0  0
    9.1596    1.7042   24.1381 C   0  0  0  0  0  0  0  0  0  0  0  0
   11.0456   -2.9774   18.2694 N   0  0  0  0  0  0  0  0  0  0  0  0
   10.4788   -3.0457   21.8593 C   0  0  0  0  0  0  0  0  0  0  0  0
    8.8693   -5.8099   18.4657 N   0  0  0  0  0  0  0  0  0  0  0  0
    8.9892   -0.7926   25.4573 C   0  0  0  0  0  0  0  0  0  0  0  0
   10.5677   -3.4462   20.5323 C   0  0  0  0  0  0  0  0  0  0  0  0
  1  8  1  0
  1 12  4  0
  1 14  4  0
  2  3  4  0
  2 18  4  0
  3 20  4  0
  3 22  4  0
  4 11  4  0
  4 21  4  0
  5  9  4  0
  5 16  4  0
  6 15  4  0
  6 16  4  0
  7 22  4  0
  7 26  4  0
  8 10  4  0
  8 25  4  0
  9 15  4  0
  9 17  1  0
 10 21  4  0
 11 25  4  0
 12 23  4  0
 13 20  4  0
 13 26  4  0
 14 19  4  0
 17 18  4  0
 17 24  4  0
 19 23  4  0
 20 24  4  0
 23 26  1  0
M  END
$$$$

 Created by Python create_sdf_string function

 26 30  0  0  0  0  0  0  0  0999 V2000
   10.0084   -1.8019   23.4945 C   0  0  0  0  0  0  0  0  0  0  0  0
   10.0005   -4.2520   16.5631 C   0  0  0  0  0  0  0  0  0  0  0  0
   10.2759   -4.0036   17.8845 C   0  0  0  0  0  0  0  0  0  0  0  0
    8.5652    1.5478   25.3778 N   0  0  0  0  0  0  0  0  0  0  0  0
    6.8048   -7.5457   17.8752 C   0  0  0  0  0  0  0  0  0  0  0  0
    6.1721   -8.2186   15.9886 N   0  0  0  0  0  0  0  0  0  0  0  0
   11.1764   -2.6600   19.5604 C   0  0  0  0  0  0  0  0  0  0  0  0
    9.5491   -0.6380   24.1912 C   0  0  0  0  0  0  0  0  0  0  0  0
    7.5337   -6.9256   16.9519 C   0  0  0  0  0  0  0  0  0  0  0  0
    9.6782    0.5671   23.5143 C   0  0  0  0  0  0  0  0  0  0  0  0
    8.4532    0.3482   26.0821 C   0  0  0  0  0  0  0  0  0  0  0  0
   10.4239   -1.7677   22.2230 N   0  0  0  0  0  0  0  0  0  0  0  0
    9.9468   -4.5953   20.1709 C   0  0  0  0  0  0  0  0  0  0  0  0
   10.0366   -3.0590   23.9864 N   0  0  0  0  0  0  0  0  0  0  0  0
    7.1191   -7.3636   15.7739 C   0  0  0  0  0  0  0  0  0  0  0  0
    5.9612   -8.3203   17.2732 N   0  0  0  0  0  0  0  0  0  0  0  0
    8.5296   -5.9814   17.1841 C   0  0  0  0  0  0  0  0  0  0  0  0
    9.1527   -5.2118   16.2116 C   0  0  0  0  0  0  0  0  0  0  0  0
   10.3364   -3.8368   22.9255 O   0  0  0  0  0  0  0  0  0  0  0  0
    9.6947   -4.8407   18.8534 C   0  0  0  0  0  0  0  0  0  0  0  0
    9.1596    1.7042   24.1381 C   0  0  0  0  0  0  0  0  0  0  0  0
   11.0456   -2.9774   18.2694 N   0  0  0  0  0  0  0  0  0  0  0  0
   10.4788   -3.0457   21.8593 C   0  0  0  0  0  0  0  0  0  0  0  0
    8.8693   -5.8099   18.4657 N   0  0  0  0  0  0  0  0  0  0  0  0
    8.9892   -0.7926   25.4573 C   0  0  0  0  0  0  0  0  0  0  0  0
   10.5677   -3.4462   20.5323 C   0  0  0  0  0  0  0  0  0  0  0  0
  1  8  1  0
  1 12  4  0
  1 14  4  0
  2  3  4  0
  2 18  4  0
  3 20  4  0
  3 22  4  0
  4 11  4  0
  4 21  4  0
  5  9  4  0
  5 16  4  0
  6 15  4  0
  6 16  4  0
  7 22  4  0
  7 26  4  0
  8 10  4  0
  8 25  4  0
  9 15  4  0
  9 17  1  0
 10 21  4  0
 11 25  4  0
 12 23  4  0
 13 20  4  0
 13 26  4  0
 14 19  4  0
 17 18  4  0
 17 24  4  0
 19 23  4  0
 20 24  4  0
 23 26  1  0
M  END
$$$$

 Created by Python create_sdf_string function

 26 30  0  0  0  0  0  0  0  0999 V2000
   10.0084   -1.8019   23.4945 C   0  0  0  0  0  0  0  0  0  0  0  0
   10.0005   -4.2520   16.5631 C   0  0  0  0  0  0  0  0  0  0  0  0
   10.2759   -4.0036   17.8845 C   0  0  0  0  0  0  0  0  0  0  0  0
    8.5652    1.5478   25.3778 N   0  0  0  0  0  0  0  0  0  0  0  0
    6.8048   -7.5457   17.8752 C   0  0  0  0  0  0  0  0  0  0  0  0
    6.1721   -8.2186   15.9886 N   0  0  0  0  0  0  0  0  0  0  0  0
   11.1764   -2.6600   19.5604 C   0  0  0  0  0  0  0  0  0  0  0  0
    9.5491   -0.6380   24.1912 C   0  0  0  0  0  0  0  0  0  0  0  0
    7.5337   -6.9256   16.9519 C   0  0  0  0  0  0  0  0  0  0  0  0
    9.6782    0.5671   23.5143 C   0  0  0  0  0  0  0  0  0  0  0  0
    8.4532    0.3482   26.0821 C   0  0  0  0  0  0  0  0  0  0  0  0
   10.4239   -1.7677   22.2230 N   0  0  0  0  0  0  0  0  0  0  0  0
    9.9468   -4.5953   20.1709 C   0  0  0  0  0  0  0  0  0  0  0  0
   10.0366   -3.0590   23.9864 N   0  0  0  0  0  0  0  0  0  0  0  0
    7.1191   -7.3636   15.7739 C   0  0  0  0  0  0  0  0  0  0  0  0
    5.9612   -8.3203   17.2732 N   0  0  0  0  0  0  0  0  0  0  0  0
    8.5296   -5.9814   17.1841 C   0  0  0  0  0  0  0  0  0  0  0  0
    9.1527   -5.2118   16.2116 C   0  0  0  0  0  0  0  0  0  0  0  0
   10.3364   -3.8368   22.9255 O   0  0  0  0  0  0  0  0  0  0  0  0
    9.6947   -4.8407   18.8534 C   0  0  0  0  0  0  0  0  0  0  0  0
    9.1596    1.7042   24.1381 C   0  0  0  0  0  0  0  0  0  0  0  0
   11.0456   -2.9774   18.2694 N   0  0  0  0  0  0  0  0  0  0  0  0
   10.4788   -3.0457   21.8593 C   0  0  0  0  0  0  0  0  0  0  0  0
    8.8693   -5.8099   18.4657 N   0  0  0  0  0  0  0  0  0  0  0  0
    8.9892   -0.7926   25.4573 C   0  0  0  0  0  0  0  0  0  0  0  0
   10.5677   -3.4462   20.5323 C   0  0  0  0  0  0  0  0  0  0  0  0
  1  8  1  0
  1 12  4  0
  1 14  4  0
  2  3  4  0
  2 18  4  0
  3 20  4  0
  3 22  4  0
  4 11  4  0
  4 21  4  0
  5  9  4  0
  5 16  4  0
  6 15  4  0
  6 16  4  0
  7 22  4  0
  7 26  4  0
  8 10  4  0
  8 25  4  0
  9 15  4  0
  9 17  1  0
 10 21  4  0
 11 25  4  0
 12 23  4  0
 13 20  4  0
 13 26  4  0
 14 19  4  0
 17 18  4  0
 17 24  4  0
 19 23  4  0
 20 24  4  0
 23 26  1  0
M  END
$$$$

 Created by Python create_sdf_string function

 26 30  0  0  0  0  0  0  0  0999 V2000
   10.0084   -1.8019   23.4945 C   0  0  0  0  0  0  0  0  0  0  0  0
   10.0005   -4.2520   16.5631 C   0  0  0  0  0  0  0  0  0  0  0  0
   10.2759   -4.0036   17.8845 C   0  0  0  0  0  0  0  0  0  0  0  0
    8.5652    1.5478   25.3778 N   0  0  0  0  0  0  0  0  0  0  0  0
    6.8048   -7.5457   17.8752 C   0  0  0  0  0  0  0  0  0  0  0  0
    6.1721   -8.2186   15.9886 N   0  0  0  0  0  0  0  0  0  0  0  0
   11.1764   -2.6600   19.5604 C   0  0  0  0  0  0  0  0  0  0  0  0
    9.5491   -0.6380   24.1912 C   0  0  0  0  0  0  0  0  0  0  0  0
    7.5337   -6.9256   16.9519 C   0  0  0  0  0  0  0  0  0  0  0  0
    9.6782    0.5671   23.5143 C   0  0  0  0  0  0  0  0  0  0  0  0
    8.4532    0.3482   26.0821 C   0  0  0  0  0  0  0  0  0  0  0  0
   10.4239   -1.7677   22.2230 N   0  0  0  0  0  0  0  0  0  0  0  0
    9.9468   -4.5953   20.1709 C   0  0  0  0  0  0  0  0  0  0  0  0
   10.0366   -3.0590   23.9864 N   0  0  0  0  0  0  0  0  0  0  0  0
    7.1191   -7.3636   15.7739 C   0  0  0  0  0  0  0  0  0  0  0  0
    5.9612   -8.3203   17.2732 N   0  0  0  0  0  0  0  0  0  0  0  0
    8.5296   -5.9814   17.1841 C   0  0  0  0  0  0  0  0  0  0  0  0
    9.1527   -5.2118   16.2116 C   0  0  0  0  0  0  0  0  0  0  0  0
   10.3364   -3.8368   22.9255 O   0  0  0  0  0  0  0  0  0  0  0  0
    9.6947   -4.8407   18.8534 C   0  0  0  0  0  0  0  0  0  0  0  0
    9.1596    1.7042   24.1381 C   0  0  0  0  0  0  0  0  0  0  0  0
   11.0456   -2.9774   18.2694 N   0  0  0  0  0  0  0  0  0  0  0  0
   10.4788   -3.0457   21.8593 C   0  0  0  0  0  0  0  0  0  0  0  0
    8.8693   -5.8099   18.4657 N   0  0  0  0  0  0  0  0  0  0  0  0
    8.9892   -0.7926   25.4573 C   0  0  0  0  0  0  0  0  0  0  0  0
   10.5677   -3.4462   20.5323 C   0  0  0  0  0  0  0  0  0  0  0  0
  1  8  1  0
  1 12  4  0
  1 14  4  0
  2  3  4  0
  2 18  4  0
  3 20  4  0
  3 22  4  0
  4 11  4  0
  4 21  4  0
  5  9  4  0
  5 16  4  0
  6 15  4  0
  6 16  4  0
  7 22  4  0
  7 26  4  0
  8 10  4  0
  8 25  4  0
  9 15  4  0
  9 17  1  0
 10 21  4  0
 11 25  4  0
 12 23  4  0
 13 20  4  0
 13 26  4  0
 14 19  4  0
 17 18  4  0
 17 24  4  0
 19 23  4  0
 20 24  4  0
 23 26  1  0
M  END
$$$$

 Created by Python create_sdf_string function

 26 30  0  0  0  0  0  0  0  0999 V2000
   10.0084   -1.8019   23.4945 C   0  0  0  0  0  0  0  0  0  0  0  0
   10.0005   -4.2520   16.5631 C   0  0  0  0  0  0  0  0  0  0  0  0
   10.2759   -4.0036   17.8845 C   0  0  0  0  0  0  0  0  0  0  0  0
    8.5652    1.5478   25.3778 N   0  0  0  0  0  0  0  0  0  0  0  0
    6.8048   -7.5457   17.8752 C   0  0  0  0  0  0  0  0  0  0  0  0
    6.1721   -8.2186   15.9886 N   0  0  0  0  0  0  0  0  0  0  0  0
   11.1764   -2.6600   19.5604 C   0  0  0  0  0  0  0  0  0  0  0  0
    9.5491   -0.6380   24.1912 C   0  0  0  0  0  0  0  0  0  0  0  0
    7.5337   -6.9256   16.9519 C   0  0  0  0  0  0  0  0  0  0  0  0
    9.6782    0.5671   23.5143 C   0  0  0  0  0  0  0  0  0  0  0  0
    8.4532    0.3482   26.0821 C   0  0  0  0  0  0  0  0  0  0  0  0
   10.4239   -1.7677   22.2230 N   0  0  0  0  0  0  0  0  0  0  0  0
    9.9468   -4.5953   20.1709 C   0  0  0  0  0  0  0  0  0  0  0  0
   10.0366   -3.0590   23.9864 N   0  0  0  0  0  0  0  0  0  0  0  0
    7.1191   -7.3636   15.7739 C   0  0  0  0  0  0  0  0  0  0  0  0
    5.9612   -8.3203   17.2732 N   0  0  0  0  0  0  0  0  0  0  0  0
    8.5296   -5.9814   17.1841 C   0  0  0  0  0  0  0  0  0  0  0  0
    9.1527   -5.2118   16.2116 C   0  0  0  0  0  0  0  0  0  0  0  0
   10.3364   -3.8368   22.9255 O   0  0  0  0  0  0  0  0  0  0  0  0
    9.6947   -4.8407   18.8534 C   0  0  0  0  0  0  0  0  0  0  0  0
    9.1596    1.7042   24.1381 C   0  0  0  0  0  0  0  0  0  0  0  0
   11.0456   -2.9774   18.2694 N   0  0  0  0  0  0  0  0  0  0  0  0
   10.4788   -3.0457   21.8593 C   0  0  0  0  0  0  0  0  0  0  0  0
    8.8693   -5.8099   18.4657 N   0  0  0  0  0  0  0  0  0  0  0  0
    8.9892   -0.7926   25.4573 C   0  0  0  0  0  0  0  0  0  0  0  0
   10.5677   -3.4462   20.5323 C   0  0  0  0  0  0  0  0  0  0  0  0
  1  8  1  0
  1 12  4  0
  1 14  4  0
  2  3  4  0
  2 18  4  0
  3 20  4  0
  3 22  4  0
  4 11  4  0
  4 21  4  0
  5  9  4  0
  5 16  4  0
  6 15  4  0
  6 16  4  0
  7 22  4  0
  7 26  4  0
  8 10  4  0
  8 25  4  0
  9 15  4  0
  9 17  1  0
 10 21  4  0
 11 25  4  0
 12 23  4  0
 13 20  4  0
 13 26  4  0
 14 19  4  0
 17 18  4  0
 17 24  4  0
 19 23  4  0
 20 24  4  0
 23 26  1  0
M  END
$$$$

 Created by Python create_sdf_string function

 26 30  0  0  0  0  0  0  0  0999 V2000
   10.0084   -1.8019   23.4945 C   0  0  0  0  0  0  0  0  0  0  0  0
   10.0005   -4.2520   16.5631 C   0  0  0  0  0  0  0  0  0  0  0  0
   10.2759   -4.0036   17.8845 C   0  0  0  0  0  0  0  0  0  0  0  0
    8.5652    1.5478   25.3778 N   0  0  0  0  0  0  0  0  0  0  0  0
    6.8048   -7.5457   17.8752 C   0  0  0  0  0  0  0  0  0  0  0  0
    6.1721   -8.2186   15.9886 N   0  0  0  0  0  0  0  0  0  0  0  0
   11.1764   -2.6600   19.5604 C   0  0  0  0  0  0  0  0  0  0  0  0
    9.5491   -0.6380   24.1912 C   0  0  0  0  0  0  0  0  0  0  0  0
    7.5337   -6.9256   16.9519 C   0  0  0  0  0  0  0  0  0  0  0  0
    9.6782    0.5671   23.5143 C   0  0  0  0  0  0  0  0  0  0  0  0
    8.4532    0.3482   26.0821 C   0  0  0  0  0  0  0  0  0  0  0  0
   10.4239   -1.7677   22.2230 N   0  0  0  0  0  0  0  0  0  0  0  0
    9.9468   -4.5953   20.1709 C   0  0  0  0  0  0  0  0  0  0  0  0
   10.0366   -3.0590   23.9864 N   0  0  0  0  0  0  0  0  0  0  0  0
    7.1191   -7.3636   15.7739 C   0  0  0  0  0  0  0  0  0  0  0  0
    5.9612   -8.3203   17.2732 N   0  0  0  0  0  0  0  0  0  0  0  0
    8.5296   -5.9814   17.1841 C   0  0  0  0  0  0  0  0  0  0  0  0
    9.1527   -5.2118   16.2116 C   0  0  0  0  0  0  0  0  0  0  0  0
   10.3364   -3.8368   22.9255 O   0  0  0  0  0  0  0  0  0  0  0  0
    9.6947   -4.8407   18.8534 C   0  0  0  0  0  0  0  0  0  0  0  0
    9.1596    1.7042   24.1381 C   0  0  0  0  0  0  0  0  0  0  0  0
   11.0456   -2.9774   18.2694 N   0  0  0  0  0  0  0  0  0  0  0  0
   10.4788   -3.0457   21.8593 C   0  0  0  0  0  0  0  0  0  0  0  0
    8.8693   -5.8099   18.4657 N   0  0  0  0  0  0  0  0  0  0  0  0
    8.9892   -0.7926   25.4573 C   0  0  0  0  0  0  0  0  0  0  0  0
   10.5677   -3.4462   20.5323 C   0  0  0  0  0  0  0  0  0  0  0  0
  1  8  1  0
  1 12  4  0
  1 14  4  0
  2  3  4  0
  2 18  4  0
  3 20  4  0
  3 22  4  0
  4 11  4  0
  4 21  4  0
  5  9  4  0
  5 16  4  0
  6 15  4  0
  6 16  4  0
  7 22  4  0
  7 26  4  0
  8 10  4  0
  8 25  4  0
  9 15  4  0
  9 17  1  0
 10 21  4  0
 11 25  4  0
 12 23  4  0
 13 20  4  0
 13 26  4  0
 14 19  4  0
 17 18  4  0
 17 24  4  0
 19 23  4  0
 20 24  4  0
 23 26  1  0
M  END
$$$$

 Created by Python create_sdf_string function

 26 30  0  0  0  0  0  0  0  0999 V2000
   10.0084   -1.8019   23.4945 C   0  0  0  0  0  0  0  0  0  0  0  0
   10.0005   -4.2520   16.5631 C   0  0  0  0  0  0  0  0  0  0  0  0
   10.2759   -4.0036   17.8845 C   0  0  0  0  0  0  0  0  0  0  0  0
    8.5652    1.5478   25.3778 N   0  0  0  0  0  0  0  0  0  0  0  0
    6.8048   -7.5457   17.8752 C   0  0  0  0  0  0  0  0  0  0  0  0
    6.1721   -8.2186   15.9886 N   0  0  0  0  0  0  0  0  0  0  0  0
   11.1764   -2.6600   19.5604 C   0  0  0  0  0  0  0  0  0  0  0  0
    9.5491   -0.6380   24.1912 C   0  0  0  0  0  0  0  0  0  0  0  0
    7.5337   -6.9256   16.9519 C   0  0  0  0  0  0  0  0  0  0  0  0
    9.6782    0.5671   23.5143 C   0  0  0  0  0  0  0  0  0  0  0  0
    8.4532    0.3482   26.0821 C   0  0  0  0  0  0  0  0  0  0  0  0
   10.4239   -1.7677   22.2230 N   0  0  0  0  0  0  0  0  0  0  0  0
    9.9468   -4.5953   20.1709 C   0  0  0  0  0  0  0  0  0  0  0  0
   10.0366   -3.0590   23.9864 N   0  0  0  0  0  0  0  0  0  0  0  0
    7.1191   -7.3636   15.7739 C   0  0  0  0  0  0  0  0  0  0  0  0
    5.9612   -8.3203   17.2732 N   0  0  0  0  0  0  0  0  0  0  0  0
    8.5296   -5.9814   17.1841 C   0  0  0  0  0  0  0  0  0  0  0  0
    9.1527   -5.2118   16.2116 C   0  0  0  0  0  0  0  0  0  0  0  0
   10.3364   -3.8368   22.9255 O   0  0  0  0  0  0  0  0  0  0  0  0
    9.6947   -4.8407   18.8534 C   0  0  0  0  0  0  0  0  0  0  0  0
    9.1596    1.7042   24.1381 C   0  0  0  0  0  0  0  0  0  0  0  0
   11.0456   -2.9774   18.2694 N   0  0  0  0  0  0  0  0  0  0  0  0
   10.4788   -3.0457   21.8593 C   0  0  0  0  0  0  0  0  0  0  0  0
    8.8693   -5.8099   18.4657 N   0  0  0  0  0  0  0  0  0  0  0  0
    8.9892   -0.7926   25.4573 C   0  0  0  0  0  0  0  0  0  0  0  0
   10.5677   -3.4462   20.5323 C   0  0  0  0  0  0  0  0  0  0  0  0
  1  8  1  0
  1 12  4  0
  1 14  4  0
  2  3  4  0
  2 18  4  0
  3 20  4  0
  3 22  4  0
  4 11  4  0
  4 21  4  0
  5  9  4  0
  5 16  4  0
  6 15  4  0
  6 16  4  0
  7 22  4  0
  7 26  4  0
  8 10  4  0
  8 25  4  0
  9 15  4  0
  9 17  1  0
 10 21  4  0
 11 25  4  0
 12 23  4  0
 13 20  4  0
 13 26  4  0
 14 19  4  0
 17 18  4  0
 17 24  4  0
 19 23  4  0
 20 24  4  0
 23 26  1  0
M  END
$$$$

 Created by Python create_sdf_string function

 26 30  0  0  0  0  0  0  0  0999 V2000
   10.0084   -1.8019   23.4945 C   0  0  0  0  0  0  0  0  0  0  0  0
   10.0005   -4.2520   16.5631 C   0  0  0  0  0  0  0  0  0  0  0  0
   10.2759   -4.0036   17.8845 C   0  0  0  0  0  0  0  0  0  0  0  0
    8.5652    1.5478   25.3778 N   0  0  0  0  0  0  0  0  0  0  0  0
    6.8048   -7.5457   17.8752 C   0  0  0  0  0  0  0  0  0  0  0  0
    6.1721   -8.2186   15.9886 N   0  0  0  0  0  0  0  0  0  0  0  0
   11.1764   -2.6600   19.5604 C   0  0  0  0  0  0  0  0  0  0  0  0
    9.5491   -0.6380   24.1912 C   0  0  0  0  0  0  0  0  0  0  0  0
    7.5337   -6.9256   16.9519 C   0  0  0  0  0  0  0  0  0  0  0  0
    9.6782    0.5671   23.5143 C   0  0  0  0  0  0  0  0  0  0  0  0
    8.4532    0.3482   26.0821 C   0  0  0  0  0  0  0  0  0  0  0  0
   10.4239   -1.7677   22.2230 N   0  0  0  0  0  0  0  0  0  0  0  0
    9.9468   -4.5953   20.1709 C   0  0  0  0  0  0  0  0  0  0  0  0
   10.0366   -3.0590   23.9864 N   0  0  0  0  0  0  0  0  0  0  0  0
    7.1191   -7.3636   15.7739 C   0  0  0  0  0  0  0  0  0  0  0  0
    5.9612   -8.3203   17.2732 N   0  0  0  0  0  0  0  0  0  0  0  0
    8.5296   -5.9814   17.1841 C   0  0  0  0  0  0  0  0  0  0  0  0
    9.1527   -5.2118   16.2116 C   0  0  0  0  0  0  0  0  0  0  0  0
   10.3364   -3.8368   22.9255 O   0  0  0  0  0  0  0  0  0  0  0  0
    9.6947   -4.8407   18.8534 C   0  0  0  0  0  0  0  0  0  0  0  0
    9.1596    1.7042   24.1381 C   0  0  0  0  0  0  0  0  0  0  0  0
   11.0456   -2.9774   18.2694 N   0  0  0  0  0  0  0  0  0  0  0  0
   10.4788   -3.0457   21.8593 C   0  0  0  0  0  0  0  0  0  0  0  0
    8.8693   -5.8099   18.4657 N   0  0  0  0  0  0  0  0  0  0  0  0
    8.9892   -0.7926   25.4573 C   0  0  0  0  0  0  0  0  0  0  0  0
   10.5677   -3.4462   20.5323 C   0  0  0  0  0  0  0  0  0  0  0  0
  1  8  1  0
  1 12  4  0
  1 14  4  0
  2  3  4  0
  2 18  4  0
  3 20  4  0
  3 22  4  0
  4 11  4  0
  4 21  4  0
  5  9  4  0
  5 16  4  0
  6 15  4  0
  6 16  4  0
  7 22  4  0
  7 26  4  0
  8 10  4  0
  8 25  4  0
  9 15  4  0
  9 17  1  0
 10 21  4  0
 11 25  4  0
 12 23  4  0
 13 20  4  0
 13 26  4  0
 14 19  4  0
 17 18  4  0
 17 24  4  0
 19 23  4  0
 20 24  4  0
 23 26  1  0
M  END
$$$$

 Created by Python create_sdf_string function

 26 30  0  0  0  0  0  0  0  0999 V2000
   10.0084   -1.8019   23.4945 C   0  0  0  0  0  0  0  0  0  0  0  0
   10.0005   -4.2520   16.5631 C   0  0  0  0  0  0  0  0  0  0  0  0
   10.2759   -4.0036   17.8845 C   0  0  0  0  0  0  0  0  0  0  0  0
    8.5652    1.5478   25.3778 N   0  0  0  0  0  0  0  0  0  0  0  0
    6.8048   -7.5457   17.8752 C   0  0  0  0  0  0  0  0  0  0  0  0
    6.1721   -8.2186   15.9886 N   0  0  0  0  0  0  0  0  0  0  0  0
   11.1764   -2.6600   19.5604 C   0  0  0  0  0  0  0  0  0  0  0  0
    9.5491   -0.6380   24.1912 C   0  0  0  0  0  0  0  0  0  0  0  0
    7.5337   -6.9256   16.9519 C   0  0  0  0  0  0  0  0  0  0  0  0
    9.6782    0.5671   23.5143 C   0  0  0  0  0  0  0  0  0  0  0  0
    8.4532    0.3482   26.0821 C   0  0  0  0  0  0  0  0  0  0  0  0
   10.4239   -1.7677   22.2230 N   0  0  0  0  0  0  0  0  0  0  0  0
    9.9468   -4.5953   20.1709 C   0  0  0  0  0  0  0  0  0  0  0  0
   10.0366   -3.0590   23.9864 N   0  0  0  0  0  0  0  0  0  0  0  0
    7.1191   -7.3636   15.7739 C   0  0  0  0  0  0  0  0  0  0  0  0
    5.9612   -8.3203   17.2732 N   0  0  0  0  0  0  0  0  0  0  0  0
    8.5296   -5.9814   17.1841 C   0  0  0  0  0  0  0  0  0  0  0  0
    9.1527   -5.2118   16.2116 C   0  0  0  0  0  0  0  0  0  0  0  0
   10.3364   -3.8368   22.9255 O   0  0  0  0  0  0  0  0  0  0  0  0
    9.6947   -4.8407   18.8534 C   0  0  0  0  0  0  0  0  0  0  0  0
    9.1596    1.7042   24.1381 C   0  0  0  0  0  0  0  0  0  0  0  0
   11.0456   -2.9774   18.2694 N   0  0  0  0  0  0  0  0  0  0  0  0
   10.4788   -3.0457   21.8593 C   0  0  0  0  0  0  0  0  0  0  0  0
    8.8693   -5.8099   18.4657 N   0  0  0  0  0  0  0  0  0  0  0  0
    8.9892   -0.7926   25.4573 C   0  0  0  0  0  0  0  0  0  0  0  0
   10.5677   -3.4462   20.5323 C   0  0  0  0  0  0  0  0  0  0  0  0
  1  8  1  0
  1 12  4  0
  1 14  4  0
  2  3  4  0
  2 18  4  0
  3 20  4  0
  3 22  4  0
  4 11  4  0
  4 21  4  0
  5  9  4  0
  5 16  4  0
  6 15  4  0
  6 16  4  0
  7 22  4  0
  7 26  4  0
  8 10  4  0
  8 25  4  0
  9 15  4  0
  9 17  1  0
 10 21  4  0
 11 25  4  0
 12 23  4  0
 13 20  4  0
 13 26  4  0
 14 19  4  0
 17 18  4  0
 17 24  4  0
 19 23  4  0
 20 24  4  0
 23 26  1  0
M  END
$$$$

 Created by Python create_sdf_string function

 26 30  0  0  0  0  0  0  0  0999 V2000
   10.0084   -1.8019   23.4945 C   0  0  0  0  0  0  0  0  0  0  0  0
   10.0005   -4.2520   16.5631 C   0  0  0  0  0  0  0  0  0  0  0  0
   10.2759   -4.0036   17.8845 C   0  0  0  0  0  0  0  0  0  0  0  0
    8.5652    1.5478   25.3778 N   0  0  0  0  0  0  0  0  0  0  0  0
    6.8048   -7.5457   17.8752 C   0  0  0  0  0  0  0  0  0  0  0  0
    6.1721   -8.2186   15.9886 N   0  0  0  0  0  0  0  0  0  0  0  0
   11.1764   -2.6600   19.5604 C   0  0  0  0  0  0  0  0  0  0  0  0
    9.5491   -0.6380   24.1912 C   0  0  0  0  0  0  0  0  0  0  0  0
    7.5337   -6.9256   16.9519 C   0  0  0  0  0  0  0  0  0  0  0  0
    9.6782    0.5671   23.5143 C   0  0  0  0  0  0  0  0  0  0  0  0
    8.4532    0.3482   26.0821 C   0  0  0  0  0  0  0  0  0  0  0  0
   10.4239   -1.7677   22.2230 N   0  0  0  0  0  0  0  0  0  0  0  0
    9.9468   -4.5953   20.1709 C   0  0  0  0  0  0  0  0  0  0  0  0
   10.0366   -3.0590   23.9864 N   0  0  0  0  0  0  0  0  0  0  0  0
    7.1191   -7.3636   15.7739 C   0  0  0  0  0  0  0  0  0  0  0  0
    5.9612   -8.3203   17.2732 N   0  0  0  0  0  0  0  0  0  0  0  0
    8.5296   -5.9814   17.1841 C   0  0  0  0  0  0  0  0  0  0  0  0
    9.1527   -5.2118   16.2116 C   0  0  0  0  0  0  0  0  0  0  0  0
   10.3364   -3.8368   22.9255 O   0  0  0  0  0  0  0  0  0  0  0  0
    9.6947   -4.8407   18.8534 C   0  0  0  0  0  0  0  0  0  0  0  0
    9.1596    1.7042   24.1381 C   0  0  0  0  0  0  0  0  0  0  0  0
   11.0456   -2.9774   18.2694 N   0  0  0  0  0  0  0  0  0  0  0  0
   10.4788   -3.0457   21.8593 C   0  0  0  0  0  0  0  0  0  0  0  0
    8.8693   -5.8099   18.4657 N   0  0  0  0  0  0  0  0  0  0  0  0
    8.9892   -0.7926   25.4573 C   0  0  0  0  0  0  0  0  0  0  0  0
   10.5677   -3.4462   20.5323 C   0  0  0  0  0  0  0  0  0  0  0  0
  1  8  1  0
  1 12  4  0
  1 14  4  0
  2  3  4  0
  2 18  4  0
  3 20  4  0
  3 22  4  0
  4 11  4  0
  4 21  4  0
  5  9  4  0
  5 16  4  0
  6 15  4  0
  6 16  4  0
  7 22  4  0
  7 26  4  0
  8 10  4  0
  8 25  4  0
  9 15  4  0
  9 17  1  0
 10 21  4  0
 11 25  4  0
 12 23  4  0
 13 20  4  0
 13 26  4  0
 14 19  4  0
 17 18  4  0
 17 24  4  0
 19 23  4  0
 20 24  4  0
 23 26  1  0
M  END
$$$$

 Created by Python create_sdf_string function

 26 30  0  0  0  0  0  0  0  0999 V2000
   10.0084   -1.8019   23.4945 C   0  0  0  0  0  0  0  0  0  0  0  0
   10.0005   -4.2520   16.5631 C   0  0  0  0  0  0  0  0  0  0  0  0
   10.2759   -4.0036   17.8845 C   0  0  0  0  0  0  0  0  0  0  0  0
    8.5652    1.5478   25.3778 N   0  0  0  0  0  0  0  0  0  0  0  0
    6.8048   -7.5457   17.8752 C   0  0  0  0  0  0  0  0  0  0  0  0
    6.1721   -8.2186   15.9886 N   0  0  0  0  0  0  0  0  0  0  0  0
   11.1764   -2.6600   19.5604 C   0  0  0  0  0  0  0  0  0  0  0  0
    9.5491   -0.6380   24.1912 C   0  0  0  0  0  0  0  0  0  0  0  0
    7.5337   -6.9256   16.9519 C   0  0  0  0  0  0  0  0  0  0  0  0
    9.6782    0.5671   23.5143 C   0  0  0  0  0  0  0  0  0  0  0  0
    8.4532    0.3482   26.0821 C   0  0  0  0  0  0  0  0  0  0  0  0
   10.4239   -1.7677   22.2230 N   0  0  0  0  0  0  0  0  0  0  0  0
    9.9468   -4.5953   20.1709 C   0  0  0  0  0  0  0  0  0  0  0  0
   10.0366   -3.0590   23.9864 N   0  0  0  0  0  0  0  0  0  0  0  0
    7.1191   -7.3636   15.7739 C   0  0  0  0  0  0  0  0  0  0  0  0
    5.9612   -8.3203   17.2732 N   0  0  0  0  0  0  0  0  0  0  0  0
    8.5296   -5.9814   17.1841 C   0  0  0  0  0  0  0  0  0  0  0  0
    9.1527   -5.2118   16.2116 C   0  0  0  0  0  0  0  0  0  0  0  0
   10.3364   -3.8368   22.9255 O   0  0  0  0  0  0  0  0  0  0  0  0
    9.6947   -4.8407   18.8534 C   0  0  0  0  0  0  0  0  0  0  0  0
    9.1596    1.7042   24.1381 C   0  0  0  0  0  0  0  0  0  0  0  0
   11.0456   -2.9774   18.2694 N   0  0  0  0  0  0  0  0  0  0  0  0
   10.4788   -3.0457   21.8593 C   0  0  0  0  0  0  0  0  0  0  0  0
    8.8693   -5.8099   18.4657 N   0  0  0  0  0  0  0  0  0  0  0  0
    8.9892   -0.7926   25.4573 C   0  0  0  0  0  0  0  0  0  0  0  0
   10.5677   -3.4462   20.5323 C   0  0  0  0  0  0  0  0  0  0  0  0
  1  8  1  0
  1 12  4  0
  1 14  4  0
  2  3  4  0
  2 18  4  0
  3 20  4  0
  3 22  4  0
  4 11  4  0
  4 21  4  0
  5  9  4  0
  5 16  4  0
  6 15  4  0
  6 16  4  0
  7 22  4  0
  7 26  4  0
  8 10  4  0
  8 25  4  0
  9 15  4  0
  9 17  1  0
 10 21  4  0
 11 25  4  0
 12 23  4  0
 13 20  4  0
 13 26  4  0
 14 19  4  0
 17 18  4  0
 17 24  4  0
 19 23  4  0
 20 24  4  0
 23 26  1  0
M  END
$$$$

 Created by Python create_sdf_string function

 26 30  0  0  0  0  0  0  0  0999 V2000
   10.0084   -1.8019   23.4945 C   0  0  0  0  0  0  0  0  0  0  0  0
   10.0005   -4.2520   16.5631 C   0  0  0  0  0  0  0  0  0  0  0  0
   10.2759   -4.0036   17.8845 C   0  0  0  0  0  0  0  0  0  0  0  0
    8.5652    1.5478   25.3778 N   0  0  0  0  0  0  0  0  0  0  0  0
    6.8048   -7.5457   17.8752 C   0  0  0  0  0  0  0  0  0  0  0  0
    6.1721   -8.2186   15.9886 N   0  0  0  0  0  0  0  0  0  0  0  0
   11.1764   -2.6600   19.5604 C   0  0  0  0  0  0  0  0  0  0  0  0
    9.5491   -0.6380   24.1912 C   0  0  0  0  0  0  0  0  0  0  0  0
    7.5337   -6.9256   16.9519 C   0  0  0  0  0  0  0  0  0  0  0  0
    9.6782    0.5671   23.5143 C   0  0  0  0  0  0  0  0  0  0  0  0
    8.4532    0.3482   26.0821 C   0  0  0  0  0  0  0  0  0  0  0  0
   10.4239   -1.7677   22.2230 N   0  0  0  0  0  0  0  0  0  0  0  0
    9.9468   -4.5953   20.1709 C   0  0  0  0  0  0  0  0  0  0  0  0
   10.0366   -3.0590   23.9864 N   0  0  0  0  0  0  0  0  0  0  0  0
    7.1191   -7.3636   15.7739 C   0  0  0  0  0  0  0  0  0  0  0  0
    5.9612   -8.3203   17.2732 N   0  0  0  0  0  0  0  0  0  0  0  0
    8.5296   -5.9814   17.1841 C   0  0  0  0  0  0  0  0  0  0  0  0
    9.1527   -5.2118   16.2116 C   0  0  0  0  0  0  0  0  0  0  0  0
   10.3364   -3.8368   22.9255 O   0  0  0  0  0  0  0  0  0  0  0  0
    9.6947   -4.8407   18.8534 C   0  0  0  0  0  0  0  0  0  0  0  0
    9.1596    1.7042   24.1381 C   0  0  0  0  0  0  0  0  0  0  0  0
   11.0456   -2.9774   18.2694 N   0  0  0  0  0  0  0  0  0  0  0  0
   10.4788   -3.0457   21.8593 C   0  0  0  0  0  0  0  0  0  0  0  0
    8.8693   -5.8099   18.4657 N   0  0  0  0  0  0  0  0  0  0  0  0
    8.9892   -0.7926   25.4573 C   0  0  0  0  0  0  0  0  0  0  0  0
   10.5677   -3.4462   20.5323 C   0  0  0  0  0  0  0  0  0  0  0  0
  1  8  1  0
  1 12  4  0
  1 14  4  0
  2  3  4  0
  2 18  4  0
  3 20  4  0
  3 22  4  0
  4 11  4  0
  4 21  4  0
  5  9  4  0
  5 16  4  0
  6 15  4  0
  6 16  4  0
  7 22  4  0
  7 26  4  0
  8 10  4  0
  8 25  4  0
  9 15  4  0
  9 17  1  0
 10 21  4  0
 11 25  4  0
 12 23  4  0
 13 20  4  0
 13 26  4  0
 14 19  4  0
 17 18  4  0
 17 24  4  0
 19 23  4  0
 20 24  4  0
 23 26  1  0
M  END
$$$$

 Created by Python create_sdf_string function

 26 30  0  0  0  0  0  0  0  0999 V2000
   10.0084   -1.8019   23.4945 C   0  0  0  0  0  0  0  0  0  0  0  0
   10.0005   -4.2520   16.5631 C   0  0  0  0  0  0  0  0  0  0  0  0
   10.2759   -4.0036   17.8845 C   0  0  0  0  0  0  0  0  0  0  0  0
    8.5652    1.5478   25.3778 N   0  0  0  0  0  0  0  0  0  0  0  0
    6.8048   -7.5457   17.8752 C   0  0  0  0  0  0  0  0  0  0  0  0
    6.1721   -8.2186   15.9886 N   0  0  0  0  0  0  0  0  0  0  0  0
   11.1764   -2.6600   19.5604 C   0  0  0  0  0  0  0  0  0  0  0  0
    9.5491   -0.6380   24.1912 C   0  0  0  0  0  0  0  0  0  0  0  0
    7.5337   -6.9256   16.9519 C   0  0  0  0  0  0  0  0  0  0  0  0
    9.6782    0.5671   23.5143 C   0  0  0  0  0  0  0  0  0  0  0  0
    8.4532    0.3482   26.0821 C   0  0  0  0  0  0  0  0  0  0  0  0
   10.4239   -1.7677   22.2230 N   0  0  0  0  0  0  0  0  0  0  0  0
    9.9468   -4.5953   20.1709 C   0  0  0  0  0  0  0  0  0  0  0  0
   10.0366   -3.0590   23.9864 N   0  0  0  0  0  0  0  0  0  0  0  0
    7.1191   -7.3636   15.7739 C   0  0  0  0  0  0  0  0  0  0  0  0
    5.9612   -8.3203   17.2732 N   0  0  0  0  0  0  0  0  0  0  0  0
    8.5296   -5.9814   17.1841 C   0  0  0  0  0  0  0  0  0  0  0  0
    9.1527   -5.2118   16.2116 C   0  0  0  0  0  0  0  0  0  0  0  0
   10.3364   -3.8368   22.9255 O   0  0  0  0  0  0  0  0  0  0  0  0
    9.6947   -4.8407   18.8534 C   0  0  0  0  0  0  0  0  0  0  0  0
    9.1596    1.7042   24.1381 C   0  0  0  0  0  0  0  0  0  0  0  0
   11.0456   -2.9774   18.2694 N   0  0  0  0  0  0  0  0  0  0  0  0
   10.4788   -3.0457   21.8593 C   0  0  0  0  0  0  0  0  0  0  0  0
    8.8693   -5.8099   18.4657 N   0  0  0  0  0  0  0  0  0  0  0  0
    8.9892   -0.7926   25.4573 C   0  0  0  0  0  0  0  0  0  0  0  0
   10.5677   -3.4462   20.5323 C   0  0  0  0  0  0  0  0  0  0  0  0
  1  8  1  0
  1 12  4  0
  1 14  4  0
  2  3  4  0
  2 18  4  0
  3 20  4  0
  3 22  4  0
  4 11  4  0
  4 21  4  0
  5  9  4  0
  5 16  4  0
  6 15  4  0
  6 16  4  0
  7 22  4  0
  7 26  4  0
  8 10  4  0
  8 25  4  0
  9 15  4  0
  9 17  1  0
 10 21  4  0
 11 25  4  0
 12 23  4  0
 13 20  4  0
 13 26  4  0
 14 19  4  0
 17 18  4  0
 17 24  4  0
 19 23  4  0
 20 24  4  0
 23 26  1  0
M  END
$$$$

 Created by Python create_sdf_string function

 26 30  0  0  0  0  0  0  0  0999 V2000
   10.0084   -1.8019   23.4945 C   0  0  0  0  0  0  0  0  0  0  0  0
   10.0005   -4.2520   16.5631 C   0  0  0  0  0  0  0  0  0  0  0  0
   10.2759   -4.0036   17.8845 C   0  0  0  0  0  0  0  0  0  0  0  0
    8.5652    1.5478   25.3778 N   0  0  0  0  0  0  0  0  0  0  0  0
    6.8048   -7.5457   17.8752 C   0  0  0  0  0  0  0  0  0  0  0  0
    6.1721   -8.2186   15.9886 N   0  0  0  0  0  0  0  0  0  0  0  0
   11.1764   -2.6600   19.5604 C   0  0  0  0  0  0  0  0  0  0  0  0
    9.5491   -0.6380   24.1912 C   0  0  0  0  0  0  0  0  0  0  0  0
    7.5337   -6.9256   16.9519 C   0  0  0  0  0  0  0  0  0  0  0  0
    9.6782    0.5671   23.5143 C   0  0  0  0  0  0  0  0  0  0  0  0
    8.4532    0.3482   26.0821 C   0  0  0  0  0  0  0  0  0  0  0  0
   10.4239   -1.7677   22.2230 N   0  0  0  0  0  0  0  0  0  0  0  0
    9.9468   -4.5953   20.1709 C   0  0  0  0  0  0  0  0  0  0  0  0
   10.0366   -3.0590   23.9864 N   0  0  0  0  0  0  0  0  0  0  0  0
    7.1191   -7.3636   15.7739 C   0  0  0  0  0  0  0  0  0  0  0  0
    5.9612   -8.3203   17.2732 N   0  0  0  0  0  0  0  0  0  0  0  0
    8.5296   -5.9814   17.1841 C   0  0  0  0  0  0  0  0  0  0  0  0
    9.1527   -5.2118   16.2116 C   0  0  0  0  0  0  0  0  0  0  0  0
   10.3364   -3.8368   22.9255 O   0  0  0  0  0  0  0  0  0  0  0  0
    9.6947   -4.8407   18.8534 C   0  0  0  0  0  0  0  0  0  0  0  0
    9.1596    1.7042   24.1381 C   0  0  0  0  0  0  0  0  0  0  0  0
   11.0456   -2.9774   18.2694 N   0  0  0  0  0  0  0  0  0  0  0  0
   10.4788   -3.0457   21.8593 C   0  0  0  0  0  0  0  0  0  0  0  0
    8.8693   -5.8099   18.4657 N   0  0  0  0  0  0  0  0  0  0  0  0
    8.9892   -0.7926   25.4573 C   0  0  0  0  0  0  0  0  0  0  0  0
   10.5677   -3.4462   20.5323 C   0  0  0  0  0  0  0  0  0  0  0  0
  1  8  1  0
  1 12  4  0
  1 14  4  0
  2  3  4  0
  2 18  4  0
  3 20  4  0
  3 22  4  0
  4 11  4  0
  4 21  4  0
  5  9  4  0
  5 16  4  0
  6 15  4  0
  6 16  4  0
  7 22  4  0
  7 26  4  0
  8 10  4  0
  8 25  4  0
  9 15  4  0
  9 17  1  0
 10 21  4  0
 11 25  4  0
 12 23  4  0
 13 20  4  0
 13 26  4  0
 14 19  4  0
 17 18  4  0
 17 24  4  0
 19 23  4  0
 20 24  4  0
 23 26  1  0
M  END
$$$$

 Created by Python create_sdf_string function

 26 30  0  0  0  0  0  0  0  0999 V2000
   10.0084   -1.8019   23.4945 C   0  0  0  0  0  0  0  0  0  0  0  0
   10.0005   -4.2520   16.5631 C   0  0  0  0  0  0  0  0  0  0  0  0
   10.2759   -4.0036   17.8845 C   0  0  0  0  0  0  0  0  0  0  0  0
    8.5652    1.5478   25.3778 N   0  0  0  0  0  0  0  0  0  0  0  0
    6.8048   -7.5457   17.8752 C   0  0  0  0  0  0  0  0  0  0  0  0
    6.1721   -8.2186   15.9886 N   0  0  0  0  0  0  0  0  0  0  0  0
   11.1764   -2.6600   19.5604 C   0  0  0  0  0  0  0  0  0  0  0  0
    9.5491   -0.6380   24.1912 C   0  0  0  0  0  0  0  0  0  0  0  0
    7.5337   -6.9256   16.9519 C   0  0  0  0  0  0  0  0  0  0  0  0
    9.6782    0.5671   23.5143 C   0  0  0  0  0  0  0  0  0  0  0  0
    8.4532    0.3482   26.0821 C   0  0  0  0  0  0  0  0  0  0  0  0
   10.4239   -1.7677   22.2230 N   0  0  0  0  0  0  0  0  0  0  0  0
    9.9468   -4.5953   20.1709 C   0  0  0  0  0  0  0  0  0  0  0  0
   10.0366   -3.0590   23.9864 N   0  0  0  0  0  0  0  0  0  0  0  0
    7.1191   -7.3636   15.7739 C   0  0  0  0  0  0  0  0  0  0  0  0
    5.9612   -8.3203   17.2732 N   0  0  0  0  0  0  0  0  0  0  0  0
    8.5296   -5.9814   17.1841 C   0  0  0  0  0  0  0  0  0  0  0  0
    9.1527   -5.2118   16.2116 C   0  0  0  0  0  0  0  0  0  0  0  0
   10.3364   -3.8368   22.9255 O   0  0  0  0  0  0  0  0  0  0  0  0
    9.6947   -4.8407   18.8534 C   0  0  0  0  0  0  0  0  0  0  0  0
    9.1596    1.7042   24.1381 C   0  0  0  0  0  0  0  0  0  0  0  0
   11.0456   -2.9774   18.2694 N   0  0  0  0  0  0  0  0  0  0  0  0
   10.4788   -3.0457   21.8593 C   0  0  0  0  0  0  0  0  0  0  0  0
    8.8693   -5.8099   18.4657 N   0  0  0  0  0  0  0  0  0  0  0  0
    8.9892   -0.7926   25.4573 C   0  0  0  0  0  0  0  0  0  0  0  0
   10.5677   -3.4462   20.5323 C   0  0  0  0  0  0  0  0  0  0  0  0
  1  8  1  0
  1 12  4  0
  1 14  4  0
  2  3  4  0
  2 18  4  0
  3 20  4  0
  3 22  4  0
  4 11  4  0
  4 21  4  0
  5  9  4  0
  5 16  4  0
  6 15  4  0
  6 16  4  0
  7 22  4  0
  7 26  4  0
  8 10  4  0
  8 25  4  0
  9 15  4  0
  9 17  1  0
 10 21  4  0
 11 25  4  0
 12 23  4  0
 13 20  4  0
 13 26  4  0
 14 19  4  0
 17 18  4  0
 17 24  4  0
 19 23  4  0
 20 24  4  0
 23 26  1  0
M  END
$$$$

 Created by Python create_sdf_string function

 26 30  0  0  0  0  0  0  0  0999 V2000
   10.0084   -1.8019   23.4945 C   0  0  0  0  0  0  0  0  0  0  0  0
   10.0005   -4.2520   16.5631 C   0  0  0  0  0  0  0  0  0  0  0  0
   10.2759   -4.0036   17.8845 C   0  0  0  0  0  0  0  0  0  0  0  0
    8.5652    1.5478   25.3778 N   0  0  0  0  0  0  0  0  0  0  0  0
    6.8048   -7.5457   17.8752 C   0  0  0  0  0  0  0  0  0  0  0  0
    6.1721   -8.2186   15.9886 N   0  0  0  0  0  0  0  0  0  0  0  0
   11.1764   -2.6600   19.5604 C   0  0  0  0  0  0  0  0  0  0  0  0
    9.5491   -0.6380   24.1912 C   0  0  0  0  0  0  0  0  0  0  0  0
    7.5337   -6.9256   16.9519 C   0  0  0  0  0  0  0  0  0  0  0  0
    9.6782    0.5671   23.5143 C   0  0  0  0  0  0  0  0  0  0  0  0
    8.4532    0.3482   26.0821 C   0  0  0  0  0  0  0  0  0  0  0  0
   10.4239   -1.7677   22.2230 N   0  0  0  0  0  0  0  0  0  0  0  0
    9.9468   -4.5953   20.1709 C   0  0  0  0  0  0  0  0  0  0  0  0
   10.0366   -3.0590   23.9864 N   0  0  0  0  0  0  0  0  0  0  0  0
    7.1191   -7.3636   15.7739 C   0  0  0  0  0  0  0  0  0  0  0  0
    5.9612   -8.3203   17.2732 N   0  0  0  0  0  0  0  0  0  0  0  0
    8.5296   -5.9814   17.1841 C   0  0  0  0  0  0  0  0  0  0  0  0
    9.1527   -5.2118   16.2116 C   0  0  0  0  0  0  0  0  0  0  0  0
   10.3364   -3.8368   22.9255 O   0  0  0  0  0  0  0  0  0  0  0  0
    9.6947   -4.8407   18.8534 C   0  0  0  0  0  0  0  0  0  0  0  0
    9.1596    1.7042   24.1381 C   0  0  0  0  0  0  0  0  0  0  0  0
   11.0456   -2.9774   18.2694 N   0  0  0  0  0  0  0  0  0  0  0  0
   10.4788   -3.0457   21.8593 C   0  0  0  0  0  0  0  0  0  0  0  0
    8.8693   -5.8099   18.4657 N   0  0  0  0  0  0  0  0  0  0  0  0
    8.9892   -0.7926   25.4573 C   0  0  0  0  0  0  0  0  0  0  0  0
   10.5677   -3.4462   20.5323 C   0  0  0  0  0  0  0  0  0  0  0  0
  1  8  1  0
  1 12  4  0
  1 14  4  0
  2  3  4  0
  2 18  4  0
  3 20  4  0
  3 22  4  0
  4 11  4  0
  4 21  4  0
  5  9  4  0
  5 16  4  0
  6 15  4  0
  6 16  4  0
  7 22  4  0
  7 26  4  0
  8 10  4  0
  8 25  4  0
  9 15  4  0
  9 17  1  0
 10 21  4  0
 11 25  4  0
 12 23  4  0
 13 20  4  0
 13 26  4  0
 14 19  4  0
 17 18  4  0
 17 24  4  0
 19 23  4  0
 20 24  4  0
 23 26  1  0
M  END
$$$$

 Created by Python create_sdf_string function

 26 30  0  0  0  0  0  0  0  0999 V2000
   10.0084   -1.8019   23.4945 C   0  0  0  0  0  0  0  0  0  0  0  0
   10.0005   -4.2520   16.5631 C   0  0  0  0  0  0  0  0  0  0  0  0
   10.2759   -4.0036   17.8845 C   0  0  0  0  0  0  0  0  0  0  0  0
    8.5652    1.5478   25.3778 N   0  0  0  0  0  0  0  0  0  0  0  0
    6.8048   -7.5457   17.8752 C   0  0  0  0  0  0  0  0  0  0  0  0
    6.1721   -8.2186   15.9886 N   0  0  0  0  0  0  0  0  0  0  0  0
   11.1764   -2.6600   19.5604 C   0  0  0  0  0  0  0  0  0  0  0  0
    9.5491   -0.6380   24.1912 C   0  0  0  0  0  0  0  0  0  0  0  0
    7.5337   -6.9256   16.9519 C   0  0  0  0  0  0  0  0  0  0  0  0
    9.6782    0.5671   23.5143 C   0  0  0  0  0  0  0  0  0  0  0  0
    8.4532    0.3482   26.0821 C   0  0  0  0  0  0  0  0  0  0  0  0
   10.4239   -1.7677   22.2230 N   0  0  0  0  0  0  0  0  0  0  0  0
    9.9468   -4.5953   20.1709 C   0  0  0  0  0  0  0  0  0  0  0  0
   10.0366   -3.0590   23.9864 N   0  0  0  0  0  0  0  0  0  0  0  0
    7.1191   -7.3636   15.7739 C   0  0  0  0  0  0  0  0  0  0  0  0
    5.9612   -8.3203   17.2732 N   0  0  0  0  0  0  0  0  0  0  0  0
    8.5296   -5.9814   17.1841 C   0  0  0  0  0  0  0  0  0  0  0  0
    9.1527   -5.2118   16.2116 C   0  0  0  0  0  0  0  0  0  0  0  0
   10.3364   -3.8368   22.9255 O   0  0  0  0  0  0  0  0  0  0  0  0
    9.6947   -4.8407   18.8534 C   0  0  0  0  0  0  0  0  0  0  0  0
    9.1596    1.7042   24.1381 C   0  0  0  0  0  0  0  0  0  0  0  0
   11.0456   -2.9774   18.2694 N   0  0  0  0  0  0  0  0  0  0  0  0
   10.4788   -3.0457   21.8593 C   0  0  0  0  0  0  0  0  0  0  0  0
    8.8693   -5.8099   18.4657 N   0  0  0  0  0  0  0  0  0  0  0  0
    8.9892   -0.7926   25.4573 C   0  0  0  0  0  0  0  0  0  0  0  0
   10.5677   -3.4462   20.5323 C   0  0  0  0  0  0  0  0  0  0  0  0
  1  8  1  0
  1 12  4  0
  1 14  4  0
  2  3  4  0
  2 18  4  0
  3 20  4  0
  3 22  4  0
  4 11  4  0
  4 21  4  0
  5  9  4  0
  5 16  4  0
  6 15  4  0
  6 16  4  0
  7 22  4  0
  7 26  4  0
  8 10  4  0
  8 25  4  0
  9 15  4  0
  9 17  1  0
 10 21  4  0
 11 25  4  0
 12 23  4  0
 13 20  4  0
 13 26  4  0
 14 19  4  0
 17 18  4  0
 17 24  4  0
 19 23  4  0
 20 24  4  0
 23 26  1  0
M  END
$$$$

 Created by Python create_sdf_string function

 26 30  0  0  0  0  0  0  0  0999 V2000
   10.0084   -1.8019   23.4945 C   0  0  0  0  0  0  0  0  0  0  0  0
   10.0005   -4.2520   16.5631 C   0  0  0  0  0  0  0  0  0  0  0  0
   10.2759   -4.0036   17.8845 C   0  0  0  0  0  0  0  0  0  0  0  0
    8.5652    1.5478   25.3778 N   0  0  0  0  0  0  0  0  0  0  0  0
    6.8048   -7.5457   17.8752 C   0  0  0  0  0  0  0  0  0  0  0  0
    6.1721   -8.2186   15.9886 N   0  0  0  0  0  0  0  0  0  0  0  0
   11.1764   -2.6600   19.5604 C   0  0  0  0  0  0  0  0  0  0  0  0
    9.5491   -0.6380   24.1912 C   0  0  0  0  0  0  0  0  0  0  0  0
    7.5337   -6.9256   16.9519 C   0  0  0  0  0  0  0  0  0  0  0  0
    9.6782    0.5671   23.5143 C   0  0  0  0  0  0  0  0  0  0  0  0
    8.4532    0.3482   26.0821 C   0  0  0  0  0  0  0  0  0  0  0  0
   10.4239   -1.7677   22.2230 N   0  0  0  0  0  0  0  0  0  0  0  0
    9.9468   -4.5953   20.1709 C   0  0  0  0  0  0  0  0  0  0  0  0
   10.0366   -3.0590   23.9864 N   0  0  0  0  0  0  0  0  0  0  0  0
    7.1191   -7.3636   15.7739 C   0  0  0  0  0  0  0  0  0  0  0  0
    5.9612   -8.3203   17.2732 N   0  0  0  0  0  0  0  0  0  0  0  0
    8.5296   -5.9814   17.1841 C   0  0  0  0  0  0  0  0  0  0  0  0
    9.1527   -5.2118   16.2116 C   0  0  0  0  0  0  0  0  0  0  0  0
   10.3364   -3.8368   22.9255 O   0  0  0  0  0  0  0  0  0  0  0  0
    9.6947   -4.8407   18.8534 C   0  0  0  0  0  0  0  0  0  0  0  0
    9.1596    1.7042   24.1381 C   0  0  0  0  0  0  0  0  0  0  0  0
   11.0456   -2.9774   18.2694 N   0  0  0  0  0  0  0  0  0  0  0  0
   10.4788   -3.0457   21.8593 C   0  0  0  0  0  0  0  0  0  0  0  0
    8.8693   -5.8099   18.4657 N   0  0  0  0  0  0  0  0  0  0  0  0
    8.9892   -0.7926   25.4573 C   0  0  0  0  0  0  0  0  0  0  0  0
   10.5677   -3.4462   20.5323 C   0  0  0  0  0  0  0  0  0  0  0  0
  1  8  1  0
  1 12  4  0
  1 14  4  0
  2  3  4  0
  2 18  4  0
  3 20  4  0
  3 22  4  0
  4 11  4  0
  4 21  4  0
  5  9  4  0
  5 16  4  0
  6 15  4  0
  6 16  4  0
  7 22  4  0
  7 26  4  0
  8 10  4  0
  8 25  4  0
  9 15  4  0
  9 17  1  0
 10 21  4  0
 11 25  4  0
 12 23  4  0
 13 20  4  0
 13 26  4  0
 14 19  4  0
 17 18  4  0
 17 24  4  0
 19 23  4  0
 20 24  4  0
 23 26  1  0
M  END
$$$$

 Created by Python create_sdf_string function

 26 30  0  0  0  0  0  0  0  0999 V2000
   10.0084   -1.8019   23.4945 C   0  0  0  0  0  0  0  0  0  0  0  0
   10.0005   -4.2520   16.5631 C   0  0  0  0  0  0  0  0  0  0  0  0
   10.2759   -4.0036   17.8845 C   0  0  0  0  0  0  0  0  0  0  0  0
    8.5652    1.5478   25.3778 N   0  0  0  0  0  0  0  0  0  0  0  0
    6.8048   -7.5457   17.8752 C   0  0  0  0  0  0  0  0  0  0  0  0
    6.1721   -8.2186   15.9886 N   0  0  0  0  0  0  0  0  0  0  0  0
   11.1764   -2.6600   19.5604 C   0  0  0  0  0  0  0  0  0  0  0  0
    9.5491   -0.6380   24.1912 C   0  0  0  0  0  0  0  0  0  0  0  0
    7.5337   -6.9256   16.9519 C   0  0  0  0  0  0  0  0  0  0  0  0
    9.6782    0.5671   23.5143 C   0  0  0  0  0  0  0  0  0  0  0  0
    8.4532    0.3482   26.0821 C   0  0  0  0  0  0  0  0  0  0  0  0
   10.4239   -1.7677   22.2230 N   0  0  0  0  0  0  0  0  0  0  0  0
    9.9468   -4.5953   20.1709 C   0  0  0  0  0  0  0  0  0  0  0  0
   10.0366   -3.0590   23.9864 N   0  0  0  0  0  0  0  0  0  0  0  0
    7.1191   -7.3636   15.7739 C   0  0  0  0  0  0  0  0  0  0  0  0
    5.9612   -8.3203   17.2732 N   0  0  0  0  0  0  0  0  0  0  0  0
    8.5296   -5.9814   17.1841 C   0  0  0  0  0  0  0  0  0  0  0  0
    9.1527   -5.2118   16.2116 C   0  0  0  0  0  0  0  0  0  0  0  0
   10.3364   -3.8368   22.9255 O   0  0  0  0  0  0  0  0  0  0  0  0
    9.6947   -4.8407   18.8534 C   0  0  0  0  0  0  0  0  0  0  0  0
    9.1596    1.7042   24.1381 C   0  0  0  0  0  0  0  0  0  0  0  0
   11.0456   -2.9774   18.2694 N   0  0  0  0  0  0  0  0  0  0  0  0
   10.4788   -3.0457   21.8593 C   0  0  0  0  0  0  0  0  0  0  0  0
    8.8693   -5.8099   18.4657 N   0  0  0  0  0  0  0  0  0  0  0  0
    8.9892   -0.7926   25.4573 C   0  0  0  0  0  0  0  0  0  0  0  0
   10.5677   -3.4462   20.5323 C   0  0  0  0  0  0  0  0  0  0  0  0
  1  8  1  0
  1 12  4  0
  1 14  4  0
  2  3  4  0
  2 18  4  0
  3 20  4  0
  3 22  4  0
  4 11  4  0
  4 21  4  0
  5  9  4  0
  5 16  4  0
  6 15  4  0
  6 16  4  0
  7 22  4  0
  7 26  4  0
  8 10  4  0
  8 25  4  0
  9 15  4  0
  9 17  1  0
 10 21  4  0
 11 25  4  0
 12 23  4  0
 13 20  4  0
 13 26  4  0
 14 19  4  0
 17 18  4  0
 17 24  4  0
 19 23  4  0
 20 24  4  0
 23 26  1  0
M  END
$$$$

 Created by Python create_sdf_string function

 26 30  0  0  0  0  0  0  0  0999 V2000
   10.0084   -1.8019   23.4945 C   0  0  0  0  0  0  0  0  0  0  0  0
   10.0005   -4.2520   16.5631 C   0  0  0  0  0  0  0  0  0  0  0  0
   10.2759   -4.0036   17.8845 C   0  0  0  0  0  0  0  0  0  0  0  0
    8.5652    1.5478   25.3778 N   0  0  0  0  0  0  0  0  0  0  0  0
    6.8048   -7.5457   17.8752 C   0  0  0  0  0  0  0  0  0  0  0  0
    6.1721   -8.2186   15.9886 N   0  0  0  0  0  0  0  0  0  0  0  0
   11.1764   -2.6600   19.5604 C   0  0  0  0  0  0  0  0  0  0  0  0
    9.5491   -0.6380   24.1912 C   0  0  0  0  0  0  0  0  0  0  0  0
    7.5337   -6.9256   16.9519 C   0  0  0  0  0  0  0  0  0  0  0  0
    9.6782    0.5671   23.5143 C   0  0  0  0  0  0  0  0  0  0  0  0
    8.4532    0.3482   26.0821 C   0  0  0  0  0  0  0  0  0  0  0  0
   10.4239   -1.7677   22.2230 N   0  0  0  0  0  0  0  0  0  0  0  0
    9.9468   -4.5953   20.1709 C   0  0  0  0  0  0  0  0  0  0  0  0
   10.0366   -3.0590   23.9864 N   0  0  0  0  0  0  0  0  0  0  0  0
    7.1191   -7.3636   15.7739 C   0  0  0  0  0  0  0  0  0  0  0  0
    5.9612   -8.3203   17.2732 N   0  0  0  0  0  0  0  0  0  0  0  0
    8.5296   -5.9814   17.1841 C   0  0  0  0  0  0  0  0  0  0  0  0
    9.1527   -5.2118   16.2116 C   0  0  0  0  0  0  0  0  0  0  0  0
   10.3364   -3.8368   22.9255 O   0  0  0  0  0  0  0  0  0  0  0  0
    9.6947   -4.8407   18.8534 C   0  0  0  0  0  0  0  0  0  0  0  0
    9.1596    1.7042   24.1381 C   0  0  0  0  0  0  0  0  0  0  0  0
   11.0456   -2.9774   18.2694 N   0  0  0  0  0  0  0  0  0  0  0  0
   10.4788   -3.0457   21.8593 C   0  0  0  0  0  0  0  0  0  0  0  0
    8.8693   -5.8099   18.4657 N   0  0  0  0  0  0  0  0  0  0  0  0
    8.9892   -0.7926   25.4573 C   0  0  0  0  0  0  0  0  0  0  0  0
   10.5677   -3.4462   20.5323 C   0  0  0  0  0  0  0  0  0  0  0  0
  1  8  1  0
  1 12  4  0
  1 14  4  0
  2  3  4  0
  2 18  4  0
  3 20  4  0
  3 22  4  0
  4 11  4  0
  4 21  4  0
  5  9  4  0
  5 16  4  0
  6 15  4  0
  6 16  4  0
  7 22  4  0
  7 26  4  0
  8 10  4  0
  8 25  4  0
  9 15  4  0
  9 17  1  0
 10 21  4  0
 11 25  4  0
 12 23  4  0
 13 20  4  0
 13 26  4  0
 14 19  4  0
 17 18  4  0
 17 24  4  0
 19 23  4  0
 20 24  4  0
 23 26  1  0
M  END
$$$$

 Created by Python create_sdf_string function

 26 30  0  0  0  0  0  0  0  0999 V2000
   10.0084   -1.8019   23.4945 C   0  0  0  0  0  0  0  0  0  0  0  0
   10.0005   -4.2520   16.5631 C   0  0  0  0  0  0  0  0  0  0  0  0
   10.2759   -4.0036   17.8845 C   0  0  0  0  0  0  0  0  0  0  0  0
    8.5652    1.5478   25.3778 N   0  0  0  0  0  0  0  0  0  0  0  0
    6.8048   -7.5457   17.8752 C   0  0  0  0  0  0  0  0  0  0  0  0
    6.1721   -8.2186   15.9886 N   0  0  0  0  0  0  0  0  0  0  0  0
   11.1764   -2.6600   19.5604 C   0  0  0  0  0  0  0  0  0  0  0  0
    9.5491   -0.6380   24.1912 C   0  0  0  0  0  0  0  0  0  0  0  0
    7.5337   -6.9256   16.9519 C   0  0  0  0  0  0  0  0  0  0  0  0
    9.6782    0.5671   23.5143 C   0  0  0  0  0  0  0  0  0  0  0  0
    8.4532    0.3482   26.0821 C   0  0  0  0  0  0  0  0  0  0  0  0
   10.4239   -1.7677   22.2230 N   0  0  0  0  0  0  0  0  0  0  0  0
    9.9468   -4.5953   20.1709 C   0  0  0  0  0  0  0  0  0  0  0  0
   10.0366   -3.0590   23.9864 N   0  0  0  0  0  0  0  0  0  0  0  0
    7.1191   -7.3636   15.7739 C   0  0  0  0  0  0  0  0  0  0  0  0
    5.9612   -8.3203   17.2732 N   0  0  0  0  0  0  0  0  0  0  0  0
    8.5296   -5.9814   17.1841 C   0  0  0  0  0  0  0  0  0  0  0  0
    9.1527   -5.2118   16.2116 C   0  0  0  0  0  0  0  0  0  0  0  0
   10.3364   -3.8368   22.9255 O   0  0  0  0  0  0  0  0  0  0  0  0
    9.6947   -4.8407   18.8534 C   0  0  0  0  0  0  0  0  0  0  0  0
    9.1596    1.7042   24.1381 C   0  0  0  0  0  0  0  0  0  0  0  0
   11.0456   -2.9774   18.2694 N   0  0  0  0  0  0  0  0  0  0  0  0
   10.4788   -3.0457   21.8593 C   0  0  0  0  0  0  0  0  0  0  0  0
    8.8693   -5.8099   18.4657 N   0  0  0  0  0  0  0  0  0  0  0  0
    8.9892   -0.7926   25.4573 C   0  0  0  0  0  0  0  0  0  0  0  0
   10.5677   -3.4462   20.5323 C   0  0  0  0  0  0  0  0  0  0  0  0
  1  8  1  0
  1 12  4  0
  1 14  4  0
  2  3  4  0
  2 18  4  0
  3 20  4  0
  3 22  4  0
  4 11  4  0
  4 21  4  0
  5  9  4  0
  5 16  4  0
  6 15  4  0
  6 16  4  0
  7 22  4  0
  7 26  4  0
  8 10  4  0
  8 25  4  0
  9 15  4  0
  9 17  1  0
 10 21  4  0
 11 25  4  0
 12 23  4  0
 13 20  4  0
 13 26  4  0
 14 19  4  0
 17 18  4  0
 17 24  4  0
 19 23  4  0
 20 24  4  0
 23 26  1  0
M  END
$$$$

 Created by Python create_sdf_string function

 26 30  0  0  0  0  0  0  0  0999 V2000
   10.0084   -1.8019   23.4945 C   0  0  0  0  0  0  0  0  0  0  0  0
   10.0005   -4.2520   16.5631 C   0  0  0  0  0  0  0  0  0  0  0  0
   10.2759   -4.0036   17.8845 C   0  0  0  0  0  0  0  0  0  0  0  0
    8.5652    1.5478   25.3778 N   0  0  0  0  0  0  0  0  0  0  0  0
    6.8048   -7.5457   17.8752 C   0  0  0  0  0  0  0  0  0  0  0  0
    6.1721   -8.2186   15.9886 N   0  0  0  0  0  0  0  0  0  0  0  0
   11.1764   -2.6600   19.5604 C   0  0  0  0  0  0  0  0  0  0  0  0
    9.5491   -0.6380   24.1912 C   0  0  0  0  0  0  0  0  0  0  0  0
    7.5337   -6.9256   16.9519 C   0  0  0  0  0  0  0  0  0  0  0  0
    9.6782    0.5671   23.5143 C   0  0  0  0  0  0  0  0  0  0  0  0
    8.4532    0.3482   26.0821 C   0  0  0  0  0  0  0  0  0  0  0  0
   10.4239   -1.7677   22.2230 N   0  0  0  0  0  0  0  0  0  0  0  0
    9.9468   -4.5953   20.1709 C   0  0  0  0  0  0  0  0  0  0  0  0
   10.0366   -3.0590   23.9864 N   0  0  0  0  0  0  0  0  0  0  0  0
    7.1191   -7.3636   15.7739 C   0  0  0  0  0  0  0  0  0  0  0  0
    5.9612   -8.3203   17.2732 N   0  0  0  0  0  0  0  0  0  0  0  0
    8.5296   -5.9814   17.1841 C   0  0  0  0  0  0  0  0  0  0  0  0
    9.1527   -5.2118   16.2116 C   0  0  0  0  0  0  0  0  0  0  0  0
   10.3364   -3.8368   22.9255 O   0  0  0  0  0  0  0  0  0  0  0  0
    9.6947   -4.8407   18.8534 C   0  0  0  0  0  0  0  0  0  0  0  0
    9.1596    1.7042   24.1381 C   0  0  0  0  0  0  0  0  0  0  0  0
   11.0456   -2.9774   18.2694 N   0  0  0  0  0  0  0  0  0  0  0  0
   10.4788   -3.0457   21.8593 C   0  0  0  0  0  0  0  0  0  0  0  0
    8.8693   -5.8099   18.4657 N   0  0  0  0  0  0  0  0  0  0  0  0
    8.9892   -0.7926   25.4573 C   0  0  0  0  0  0  0  0  0  0  0  0
   10.5677   -3.4462   20.5323 C   0  0  0  0  0  0  0  0  0  0  0  0
  1  8  1  0
  1 12  4  0
  1 14  4  0
  2  3  4  0
  2 18  4  0
  3 20  4  0
  3 22  4  0
  4 11  4  0
  4 21  4  0
  5  9  4  0
  5 16  4  0
  6 15  4  0
  6 16  4  0
  7 22  4  0
  7 26  4  0
  8 10  4  0
  8 25  4  0
  9 15  4  0
  9 17  1  0
 10 21  4  0
 11 25  4  0
 12 23  4  0
 13 20  4  0
 13 26  4  0
 14 19  4  0
 17 18  4  0
 17 24  4  0
 19 23  4  0
 20 24  4  0
 23 26  1  0
M  END
$$$$

 Created by Python create_sdf_string function

 26 30  0  0  0  0  0  0  0  0999 V2000
   10.0084   -1.8019   23.4945 C   0  0  0  0  0  0  0  0  0  0  0  0
   10.0005   -4.2520   16.5631 C   0  0  0  0  0  0  0  0  0  0  0  0
   10.2759   -4.0036   17.8845 C   0  0  0  0  0  0  0  0  0  0  0  0
    8.5652    1.5478   25.3778 N   0  0  0  0  0  0  0  0  0  0  0  0
    6.8048   -7.5457   17.8752 C   0  0  0  0  0  0  0  0  0  0  0  0
    6.1721   -8.2186   15.9886 N   0  0  0  0  0  0  0  0  0  0  0  0
   11.1764   -2.6600   19.5604 C   0  0  0  0  0  0  0  0  0  0  0  0
    9.5491   -0.6380   24.1912 C   0  0  0  0  0  0  0  0  0  0  0  0
    7.5337   -6.9256   16.9519 C   0  0  0  0  0  0  0  0  0  0  0  0
    9.6782    0.5671   23.5143 C   0  0  0  0  0  0  0  0  0  0  0  0
    8.4532    0.3482   26.0821 C   0  0  0  0  0  0  0  0  0  0  0  0
   10.4239   -1.7677   22.2230 N   0  0  0  0  0  0  0  0  0  0  0  0
    9.9468   -4.5953   20.1709 C   0  0  0  0  0  0  0  0  0  0  0  0
   10.0366   -3.0590   23.9864 N   0  0  0  0  0  0  0  0  0  0  0  0
    7.1191   -7.3636   15.7739 C   0  0  0  0  0  0  0  0  0  0  0  0
    5.9612   -8.3203   17.2732 N   0  0  0  0  0  0  0  0  0  0  0  0
    8.5296   -5.9814   17.1841 C   0  0  0  0  0  0  0  0  0  0  0  0
    9.1527   -5.2118   16.2116 C   0  0  0  0  0  0  0  0  0  0  0  0
   10.3364   -3.8368   22.9255 O   0  0  0  0  0  0  0  0  0  0  0  0
    9.6947   -4.8407   18.8534 C   0  0  0  0  0  0  0  0  0  0  0  0
    9.1596    1.7042   24.1381 C   0  0  0  0  0  0  0  0  0  0  0  0
   11.0456   -2.9774   18.2694 N   0  0  0  0  0  0  0  0  0  0  0  0
   10.4788   -3.0457   21.8593 C   0  0  0  0  0  0  0  0  0  0  0  0
    8.8693   -5.8099   18.4657 N   0  0  0  0  0  0  0  0  0  0  0  0
    8.9892   -0.7926   25.4573 C   0  0  0  0  0  0  0  0  0  0  0  0
   10.5677   -3.4462   20.5323 C   0  0  0  0  0  0  0  0  0  0  0  0
  1  8  1  0
  1 12  4  0
  1 14  4  0
  2  3  4  0
  2 18  4  0
  3 20  4  0
  3 22  4  0
  4 11  4  0
  4 21  4  0
  5  9  4  0
  5 16  4  0
  6 15  4  0
  6 16  4  0
  7 22  4  0
  7 26  4  0
  8 10  4  0
  8 25  4  0
  9 15  4  0
  9 17  1  0
 10 21  4  0
 11 25  4  0
 12 23  4  0
 13 20  4  0
 13 26  4  0
 14 19  4  0
 17 18  4  0
 17 24  4  0
 19 23  4  0
 20 24  4  0
 23 26  1  0
M  END
$$$$

 Created by Python create_sdf_string function

 26 30  0  0  0  0  0  0  0  0999 V2000
   10.0084   -1.8019   23.4945 C   0  0  0  0  0  0  0  0  0  0  0  0
   10.0005   -4.2520   16.5631 C   0  0  0  0  0  0  0  0  0  0  0  0
   10.2759   -4.0036   17.8845 C   0  0  0  0  0  0  0  0  0  0  0  0
    8.5652    1.5478   25.3778 N   0  0  0  0  0  0  0  0  0  0  0  0
    6.8048   -7.5457   17.8752 C   0  0  0  0  0  0  0  0  0  0  0  0
    6.1721   -8.2186   15.9886 N   0  0  0  0  0  0  0  0  0  0  0  0
   11.1764   -2.6600   19.5604 C   0  0  0  0  0  0  0  0  0  0  0  0
    9.5491   -0.6380   24.1912 C   0  0  0  0  0  0  0  0  0  0  0  0
    7.5337   -6.9256   16.9519 C   0  0  0  0  0  0  0  0  0  0  0  0
    9.6782    0.5671   23.5143 C   0  0  0  0  0  0  0  0  0  0  0  0
    8.4532    0.3482   26.0821 C   0  0  0  0  0  0  0  0  0  0  0  0
   10.4239   -1.7677   22.2230 N   0  0  0  0  0  0  0  0  0  0  0  0
    9.9468   -4.5953   20.1709 C   0  0  0  0  0  0  0  0  0  0  0  0
   10.0366   -3.0590   23.9864 N   0  0  0  0  0  0  0  0  0  0  0  0
    7.1191   -7.3636   15.7739 C   0  0  0  0  0  0  0  0  0  0  0  0
    5.9612   -8.3203   17.2732 N   0  0  0  0  0  0  0  0  0  0  0  0
    8.5296   -5.9814   17.1841 C   0  0  0  0  0  0  0  0  0  0  0  0
    9.1527   -5.2118   16.2116 C   0  0  0  0  0  0  0  0  0  0  0  0
   10.3364   -3.8368   22.9255 O   0  0  0  0  0  0  0  0  0  0  0  0
    9.6947   -4.8407   18.8534 C   0  0  0  0  0  0  0  0  0  0  0  0
    9.1596    1.7042   24.1381 C   0  0  0  0  0  0  0  0  0  0  0  0
   11.0456   -2.9774   18.2694 N   0  0  0  0  0  0  0  0  0  0  0  0
   10.4788   -3.0457   21.8593 C   0  0  0  0  0  0  0  0  0  0  0  0
    8.8693   -5.8099   18.4657 N   0  0  0  0  0  0  0  0  0  0  0  0
    8.9892   -0.7926   25.4573 C   0  0  0  0  0  0  0  0  0  0  0  0
   10.5677   -3.4462   20.5323 C   0  0  0  0  0  0  0  0  0  0  0  0
  1  8  1  0
  1 12  4  0
  1 14  4  0
  2  3  4  0
  2 18  4  0
  3 20  4  0
  3 22  4  0
  4 11  4  0
  4 21  4  0
  5  9  4  0
  5 16  4  0
  6 15  4  0
  6 16  4  0
  7 22  4  0
  7 26  4  0
  8 10  4  0
  8 25  4  0
  9 15  4  0
  9 17  1  0
 10 21  4  0
 11 25  4  0
 12 23  4  0
 13 20  4  0
 13 26  4  0
 14 19  4  0
 17 18  4  0
 17 24  4  0
 19 23  4  0
 20 24  4  0
 23 26  1  0
M  END
$$$$

 Created by Python create_sdf_string function

 26 30  0  0  0  0  0  0  0  0999 V2000
   10.0084   -1.8019   23.4945 C   0  0  0  0  0  0  0  0  0  0  0  0
   10.0005   -4.2520   16.5631 C   0  0  0  0  0  0  0  0  0  0  0  0
   10.2759   -4.0036   17.8845 C   0  0  0  0  0  0  0  0  0  0  0  0
    8.5652    1.5478   25.3778 N   0  0  0  0  0  0  0  0  0  0  0  0
    6.8048   -7.5457   17.8752 C   0  0  0  0  0  0  0  0  0  0  0  0
    6.1721   -8.2186   15.9886 N   0  0  0  0  0  0  0  0  0  0  0  0
   11.1764   -2.6600   19.5604 C   0  0  0  0  0  0  0  0  0  0  0  0
    9.5491   -0.6380   24.1912 C   0  0  0  0  0  0  0  0  0  0  0  0
    7.5337   -6.9256   16.9519 C   0  0  0  0  0  0  0  0  0  0  0  0
    9.6782    0.5671   23.5143 C   0  0  0  0  0  0  0  0  0  0  0  0
    8.4532    0.3482   26.0821 C   0  0  0  0  0  0  0  0  0  0  0  0
   10.4239   -1.7677   22.2230 N   0  0  0  0  0  0  0  0  0  0  0  0
    9.9468   -4.5953   20.1709 C   0  0  0  0  0  0  0  0  0  0  0  0
   10.0366   -3.0590   23.9864 N   0  0  0  0  0  0  0  0  0  0  0  0
    7.1191   -7.3636   15.7739 C   0  0  0  0  0  0  0  0  0  0  0  0
    5.9612   -8.3203   17.2732 N   0  0  0  0  0  0  0  0  0  0  0  0
    8.5296   -5.9814   17.1841 C   0  0  0  0  0  0  0  0  0  0  0  0
    9.1527   -5.2118   16.2116 C   0  0  0  0  0  0  0  0  0  0  0  0
   10.3364   -3.8368   22.9255 O   0  0  0  0  0  0  0  0  0  0  0  0
    9.6947   -4.8407   18.8534 C   0  0  0  0  0  0  0  0  0  0  0  0
    9.1596    1.7042   24.1381 C   0  0  0  0  0  0  0  0  0  0  0  0
   11.0456   -2.9774   18.2694 N   0  0  0  0  0  0  0  0  0  0  0  0
   10.4788   -3.0457   21.8593 C   0  0  0  0  0  0  0  0  0  0  0  0
    8.8693   -5.8099   18.4657 N   0  0  0  0  0  0  0  0  0  0  0  0
    8.9892   -0.7926   25.4573 C   0  0  0  0  0  0  0  0  0  0  0  0
   10.5677   -3.4462   20.5323 C   0  0  0  0  0  0  0  0  0  0  0  0
  1  8  1  0
  1 12  4  0
  1 14  4  0
  2  3  4  0
  2 18  4  0
  3 20  4  0
  3 22  4  0
  4 11  4  0
  4 21  4  0
  5  9  4  0
  5 16  4  0
  6 15  4  0
  6 16  4  0
  7 22  4  0
  7 26  4  0
  8 10  4  0
  8 25  4  0
  9 15  4  0
  9 17  1  0
 10 21  4  0
 11 25  4  0
 12 23  4  0
 13 20  4  0
 13 26  4  0
 14 19  4  0
 17 18  4  0
 17 24  4  0
 19 23  4  0
 20 24  4  0
 23 26  1  0
M  END
$$$$

 Created by Python create_sdf_string function

 26 30  0  0  0  0  0  0  0  0999 V2000
   10.0084   -1.8019   23.4945 C   0  0  0  0  0  0  0  0  0  0  0  0
   10.0005   -4.2520   16.5631 C   0  0  0  0  0  0  0  0  0  0  0  0
   10.2759   -4.0036   17.8845 C   0  0  0  0  0  0  0  0  0  0  0  0
    8.5652    1.5478   25.3778 N   0  0  0  0  0  0  0  0  0  0  0  0
    6.8048   -7.5457   17.8752 C   0  0  0  0  0  0  0  0  0  0  0  0
    6.1721   -8.2186   15.9886 N   0  0  0  0  0  0  0  0  0  0  0  0
   11.1764   -2.6600   19.5604 C   0  0  0  0  0  0  0  0  0  0  0  0
    9.5491   -0.6380   24.1912 C   0  0  0  0  0  0  0  0  0  0  0  0
    7.5337   -6.9256   16.9519 C   0  0  0  0  0  0  0  0  0  0  0  0
    9.6782    0.5671   23.5143 C   0  0  0  0  0  0  0  0  0  0  0  0
    8.4532    0.3482   26.0821 C   0  0  0  0  0  0  0  0  0  0  0  0
   10.4239   -1.7677   22.2230 N   0  0  0  0  0  0  0  0  0  0  0  0
    9.9468   -4.5953   20.1709 C   0  0  0  0  0  0  0  0  0  0  0  0
   10.0366   -3.0590   23.9864 N   0  0  0  0  0  0  0  0  0  0  0  0
    7.1191   -7.3636   15.7739 C   0  0  0  0  0  0  0  0  0  0  0  0
    5.9612   -8.3203   17.2732 N   0  0  0  0  0  0  0  0  0  0  0  0
    8.5296   -5.9814   17.1841 C   0  0  0  0  0  0  0  0  0  0  0  0
    9.1527   -5.2118   16.2116 C   0  0  0  0  0  0  0  0  0  0  0  0
   10.3364   -3.8368   22.9255 O   0  0  0  0  0  0  0  0  0  0  0  0
    9.6947   -4.8407   18.8534 C   0  0  0  0  0  0  0  0  0  0  0  0
    9.1596    1.7042   24.1381 C   0  0  0  0  0  0  0  0  0  0  0  0
   11.0456   -2.9774   18.2694 N   0  0  0  0  0  0  0  0  0  0  0  0
   10.4788   -3.0457   21.8593 C   0  0  0  0  0  0  0  0  0  0  0  0
    8.8693   -5.8099   18.4657 N   0  0  0  0  0  0  0  0  0  0  0  0
    8.9892   -0.7926   25.4573 C   0  0  0  0  0  0  0  0  0  0  0  0
   10.5677   -3.4462   20.5323 C   0  0  0  0  0  0  0  0  0  0  0  0
  1  8  1  0
  1 12  4  0
  1 14  4  0
  2  3  4  0
  2 18  4  0
  3 20  4  0
  3 22  4  0
  4 11  4  0
  4 21  4  0
  5  9  4  0
  5 16  4  0
  6 15  4  0
  6 16  4  0
  7 22  4  0
  7 26  4  0
  8 10  4  0
  8 25  4  0
  9 15  4  0
  9 17  1  0
 10 21  4  0
 11 25  4  0
 12 23  4  0
 13 20  4  0
 13 26  4  0
 14 19  4  0
 17 18  4  0
 17 24  4  0
 19 23  4  0
 20 24  4  0
 23 26  1  0
M  END
$$$$

 Created by Python create_sdf_string function

 26 30  0  0  0  0  0  0  0  0999 V2000
   10.0084   -1.8019   23.4945 C   0  0  0  0  0  0  0  0  0  0  0  0
   10.0005   -4.2520   16.5631 C   0  0  0  0  0  0  0  0  0  0  0  0
   10.2759   -4.0036   17.8845 C   0  0  0  0  0  0  0  0  0  0  0  0
    8.5652    1.5478   25.3778 N   0  0  0  0  0  0  0  0  0  0  0  0
    6.8048   -7.5457   17.8752 C   0  0  0  0  0  0  0  0  0  0  0  0
    6.1721   -8.2186   15.9886 N   0  0  0  0  0  0  0  0  0  0  0  0
   11.1764   -2.6600   19.5604 C   0  0  0  0  0  0  0  0  0  0  0  0
    9.5491   -0.6380   24.1912 C   0  0  0  0  0  0  0  0  0  0  0  0
    7.5337   -6.9256   16.9519 C   0  0  0  0  0  0  0  0  0  0  0  0
    9.6782    0.5671   23.5143 C   0  0  0  0  0  0  0  0  0  0  0  0
    8.4532    0.3482   26.0821 C   0  0  0  0  0  0  0  0  0  0  0  0
   10.4239   -1.7677   22.2230 N   0  0  0  0  0  0  0  0  0  0  0  0
    9.9468   -4.5953   20.1709 C   0  0  0  0  0  0  0  0  0  0  0  0
   10.0366   -3.0590   23.9864 N   0  0  0  0  0  0  0  0  0  0  0  0
    7.1191   -7.3636   15.7739 C   0  0  0  0  0  0  0  0  0  0  0  0
    5.9612   -8.3203   17.2732 N   0  0  0  0  0  0  0  0  0  0  0  0
    8.5296   -5.9814   17.1841 C   0  0  0  0  0  0  0  0  0  0  0  0
    9.1527   -5.2118   16.2116 C   0  0  0  0  0  0  0  0  0  0  0  0
   10.3364   -3.8368   22.9255 O   0  0  0  0  0  0  0  0  0  0  0  0
    9.6947   -4.8407   18.8534 C   0  0  0  0  0  0  0  0  0  0  0  0
    9.1596    1.7042   24.1381 C   0  0  0  0  0  0  0  0  0  0  0  0
   11.0456   -2.9774   18.2694 N   0  0  0  0  0  0  0  0  0  0  0  0
   10.4788   -3.0457   21.8593 C   0  0  0  0  0  0  0  0  0  0  0  0
    8.8693   -5.8099   18.4657 N   0  0  0  0  0  0  0  0  0  0  0  0
    8.9892   -0.7926   25.4573 C   0  0  0  0  0  0  0  0  0  0  0  0
   10.5677   -3.4462   20.5323 C   0  0  0  0  0  0  0  0  0  0  0  0
  1  8  1  0
  1 12  4  0
  1 14  4  0
  2  3  4  0
  2 18  4  0
  3 20  4  0
  3 22  4  0
  4 11  4  0
  4 21  4  0
  5  9  4  0
  5 16  4  0
  6 15  4  0
  6 16  4  0
  7 22  4  0
  7 26  4  0
  8 10  4  0
  8 25  4  0
  9 15  4  0
  9 17  1  0
 10 21  4  0
 11 25  4  0
 12 23  4  0
 13 20  4  0
 13 26  4  0
 14 19  4  0
 17 18  4  0
 17 24  4  0
 19 23  4  0
 20 24  4  0
 23 26  1  0
M  END
$$$$

 Created by Python create_sdf_string function

 26 30  0  0  0  0  0  0  0  0999 V2000
   10.0084   -1.8019   23.4945 C   0  0  0  0  0  0  0  0  0  0  0  0
   10.0005   -4.2520   16.5631 C   0  0  0  0  0  0  0  0  0  0  0  0
   10.2759   -4.0036   17.8845 C   0  0  0  0  0  0  0  0  0  0  0  0
    8.5652    1.5478   25.3778 N   0  0  0  0  0  0  0  0  0  0  0  0
    6.8048   -7.5457   17.8752 C   0  0  0  0  0  0  0  0  0  0  0  0
    6.1721   -8.2186   15.9886 N   0  0  0  0  0  0  0  0  0  0  0  0
   11.1764   -2.6600   19.5604 C   0  0  0  0  0  0  0  0  0  0  0  0
    9.5491   -0.6380   24.1912 C   0  0  0  0  0  0  0  0  0  0  0  0
    7.5337   -6.9256   16.9519 C   0  0  0  0  0  0  0  0  0  0  0  0
    9.6782    0.5671   23.5143 C   0  0  0  0  0  0  0  0  0  0  0  0
    8.4532    0.3482   26.0821 C   0  0  0  0  0  0  0  0  0  0  0  0
   10.4239   -1.7677   22.2230 N   0  0  0  0  0  0  0  0  0  0  0  0
    9.9468   -4.5953   20.1709 C   0  0  0  0  0  0  0  0  0  0  0  0
   10.0366   -3.0590   23.9864 N   0  0  0  0  0  0  0  0  0  0  0  0
    7.1191   -7.3636   15.7739 C   0  0  0  0  0  0  0  0  0  0  0  0
    5.9612   -8.3203   17.2732 N   0  0  0  0  0  0  0  0  0  0  0  0
    8.5296   -5.9814   17.1841 C   0  0  0  0  0  0  0  0  0  0  0  0
    9.1527   -5.2118   16.2116 C   0  0  0  0  0  0  0  0  0  0  0  0
   10.3364   -3.8368   22.9255 O   0  0  0  0  0  0  0  0  0  0  0  0
    9.6947   -4.8407   18.8534 C   0  0  0  0  0  0  0  0  0  0  0  0
    9.1596    1.7042   24.1381 C   0  0  0  0  0  0  0  0  0  0  0  0
   11.0456   -2.9774   18.2694 N   0  0  0  0  0  0  0  0  0  0  0  0
   10.4788   -3.0457   21.8593 C   0  0  0  0  0  0  0  0  0  0  0  0
    8.8693   -5.8099   18.4657 N   0  0  0  0  0  0  0  0  0  0  0  0
    8.9892   -0.7926   25.4573 C   0  0  0  0  0  0  0  0  0  0  0  0
   10.5677   -3.4462   20.5323 C   0  0  0  0  0  0  0  0  0  0  0  0
  1  8  1  0
  1 12  4  0
  1 14  4  0
  2  3  4  0
  2 18  4  0
  3 20  4  0
  3 22  4  0
  4 11  4  0
  4 21  4  0
  5  9  4  0
  5 16  4  0
  6 15  4  0
  6 16  4  0
  7 22  4  0
  7 26  4  0
  8 10  4  0
  8 25  4  0
  9 15  4  0
  9 17  1  0
 10 21  4  0
 11 25  4  0
 12 23  4  0
 13 20  4  0
 13 26  4  0
 14 19  4  0
 17 18  4  0
 17 24  4  0
 19 23  4  0
 20 24  4  0
 23 26  1  0
M  END
$$$$

 Created by Python create_sdf_string function

 26 30  0  0  0  0  0  0  0  0999 V2000
   10.0084   -1.8019   23.4945 C   0  0  0  0  0  0  0  0  0  0  0  0
   10.0005   -4.2520   16.5631 C   0  0  0  0  0  0  0  0  0  0  0  0
   10.2759   -4.0036   17.8845 C   0  0  0  0  0  0  0  0  0  0  0  0
    8.5652    1.5478   25.3778 N   0  0  0  0  0  0  0  0  0  0  0  0
    6.8048   -7.5457   17.8752 C   0  0  0  0  0  0  0  0  0  0  0  0
    6.1721   -8.2186   15.9886 N   0  0  0  0  0  0  0  0  0  0  0  0
   11.1764   -2.6600   19.5604 C   0  0  0  0  0  0  0  0  0  0  0  0
    9.5491   -0.6380   24.1912 C   0  0  0  0  0  0  0  0  0  0  0  0
    7.5337   -6.9256   16.9519 C   0  0  0  0  0  0  0  0  0  0  0  0
    9.6782    0.5671   23.5143 C   0  0  0  0  0  0  0  0  0  0  0  0
    8.4532    0.3482   26.0821 C   0  0  0  0  0  0  0  0  0  0  0  0
   10.4239   -1.7677   22.2230 N   0  0  0  0  0  0  0  0  0  0  0  0
    9.9468   -4.5953   20.1709 C   0  0  0  0  0  0  0  0  0  0  0  0
   10.0366   -3.0590   23.9864 N   0  0  0  0  0  0  0  0  0  0  0  0
    7.1191   -7.3636   15.7739 C   0  0  0  0  0  0  0  0  0  0  0  0
    5.9612   -8.3203   17.2732 N   0  0  0  0  0  0  0  0  0  0  0  0
    8.5296   -5.9814   17.1841 C   0  0  0  0  0  0  0  0  0  0  0  0
    9.1527   -5.2118   16.2116 C   0  0  0  0  0  0  0  0  0  0  0  0
   10.3364   -3.8368   22.9255 O   0  0  0  0  0  0  0  0  0  0  0  0
    9.6947   -4.8407   18.8534 C   0  0  0  0  0  0  0  0  0  0  0  0
    9.1596    1.7042   24.1381 C   0  0  0  0  0  0  0  0  0  0  0  0
   11.0456   -2.9774   18.2694 N   0  0  0  0  0  0  0  0  0  0  0  0
   10.4788   -3.0457   21.8593 C   0  0  0  0  0  0  0  0  0  0  0  0
    8.8693   -5.8099   18.4657 N   0  0  0  0  0  0  0  0  0  0  0  0
    8.9892   -0.7926   25.4573 C   0  0  0  0  0  0  0  0  0  0  0  0
   10.5677   -3.4462   20.5323 C   0  0  0  0  0  0  0  0  0  0  0  0
  1  8  1  0
  1 12  4  0
  1 14  4  0
  2  3  4  0
  2 18  4  0
  3 20  4  0
  3 22  4  0
  4 11  4  0
  4 21  4  0
  5  9  4  0
  5 16  4  0
  6 15  4  0
  6 16  4  0
  7 22  4  0
  7 26  4  0
  8 10  4  0
  8 25  4  0
  9 15  4  0
  9 17  1  0
 10 21  4  0
 11 25  4  0
 12 23  4  0
 13 20  4  0
 13 26  4  0
 14 19  4  0
 17 18  4  0
 17 24  4  0
 19 23  4  0
 20 24  4  0
 23 26  1  0
M  END
$$$$

 Created by Python create_sdf_string function

 26 30  0  0  0  0  0  0  0  0999 V2000
   10.0084   -1.8019   23.4945 C   0  0  0  0  0  0  0  0  0  0  0  0
   10.0005   -4.2520   16.5631 C   0  0  0  0  0  0  0  0  0  0  0  0
   10.2759   -4.0036   17.8845 C   0  0  0  0  0  0  0  0  0  0  0  0
    8.5652    1.5478   25.3778 N   0  0  0  0  0  0  0  0  0  0  0  0
    6.8048   -7.5457   17.8752 C   0  0  0  0  0  0  0  0  0  0  0  0
    6.1721   -8.2186   15.9886 N   0  0  0  0  0  0  0  0  0  0  0  0
   11.1764   -2.6600   19.5604 C   0  0  0  0  0  0  0  0  0  0  0  0
    9.5491   -0.6380   24.1912 C   0  0  0  0  0  0  0  0  0  0  0  0
    7.5337   -6.9256   16.9519 C   0  0  0  0  0  0  0  0  0  0  0  0
    9.6782    0.5671   23.5143 C   0  0  0  0  0  0  0  0  0  0  0  0
    8.4532    0.3482   26.0821 C   0  0  0  0  0  0  0  0  0  0  0  0
   10.4239   -1.7677   22.2230 N   0  0  0  0  0  0  0  0  0  0  0  0
    9.9468   -4.5953   20.1709 C   0  0  0  0  0  0  0  0  0  0  0  0
   10.0366   -3.0590   23.9864 N   0  0  0  0  0  0  0  0  0  0  0  0
    7.1191   -7.3636   15.7739 C   0  0  0  0  0  0  0  0  0  0  0  0
    5.9612   -8.3203   17.2732 N   0  0  0  0  0  0  0  0  0  0  0  0
    8.5296   -5.9814   17.1841 C   0  0  0  0  0  0  0  0  0  0  0  0
    9.1527   -5.2118   16.2116 C   0  0  0  0  0  0  0  0  0  0  0  0
   10.3364   -3.8368   22.9255 O   0  0  0  0  0  0  0  0  0  0  0  0
    9.6947   -4.8407   18.8534 C   0  0  0  0  0  0  0  0  0  0  0  0
    9.1596    1.7042   24.1381 C   0  0  0  0  0  0  0  0  0  0  0  0
   11.0456   -2.9774   18.2694 N   0  0  0  0  0  0  0  0  0  0  0  0
   10.4788   -3.0457   21.8593 C   0  0  0  0  0  0  0  0  0  0  0  0
    8.8693   -5.8099   18.4657 N   0  0  0  0  0  0  0  0  0  0  0  0
    8.9892   -0.7926   25.4573 C   0  0  0  0  0  0  0  0  0  0  0  0
   10.5677   -3.4462   20.5323 C   0  0  0  0  0  0  0  0  0  0  0  0
  1  8  1  0
  1 12  4  0
  1 14  4  0
  2  3  4  0
  2 18  4  0
  3 20  4  0
  3 22  4  0
  4 11  4  0
  4 21  4  0
  5  9  4  0
  5 16  4  0
  6 15  4  0
  6 16  4  0
  7 22  4  0
  7 26  4  0
  8 10  4  0
  8 25  4  0
  9 15  4  0
  9 17  1  0
 10 21  4  0
 11 25  4  0
 12 23  4  0
 13 20  4  0
 13 26  4  0
 14 19  4  0
 17 18  4  0
 17 24  4  0
 19 23  4  0
 20 24  4  0
 23 26  1  0
M  END
$$$$

 Created by Python create_sdf_string function

 26 30  0  0  0  0  0  0  0  0999 V2000
   10.0084   -1.8019   23.4945 C   0  0  0  0  0  0  0  0  0  0  0  0
   10.0005   -4.2520   16.5631 C   0  0  0  0  0  0  0  0  0  0  0  0
   10.2759   -4.0036   17.8845 C   0  0  0  0  0  0  0  0  0  0  0  0
    8.5652    1.5478   25.3778 N   0  0  0  0  0  0  0  0  0  0  0  0
    6.8048   -7.5457   17.8752 C   0  0  0  0  0  0  0  0  0  0  0  0
    6.1721   -8.2186   15.9886 N   0  0  0  0  0  0  0  0  0  0  0  0
   11.1764   -2.6600   19.5604 C   0  0  0  0  0  0  0  0  0  0  0  0
    9.5491   -0.6380   24.1912 C   0  0  0  0  0  0  0  0  0  0  0  0
    7.5337   -6.9256   16.9519 C   0  0  0  0  0  0  0  0  0  0  0  0
    9.6782    0.5671   23.5143 C   0  0  0  0  0  0  0  0  0  0  0  0
    8.4532    0.3482   26.0821 C   0  0  0  0  0  0  0  0  0  0  0  0
   10.4239   -1.7677   22.2230 N   0  0  0  0  0  0  0  0  0  0  0  0
    9.9468   -4.5953   20.1709 C   0  0  0  0  0  0  0  0  0  0  0  0
   10.0366   -3.0590   23.9864 N   0  0  0  0  0  0  0  0  0  0  0  0
    7.1191   -7.3636   15.7739 C   0  0  0  0  0  0  0  0  0  0  0  0
    5.9612   -8.3203   17.2732 N   0  0  0  0  0  0  0  0  0  0  0  0
    8.5296   -5.9814   17.1841 C   0  0  0  0  0  0  0  0  0  0  0  0
    9.1527   -5.2118   16.2116 C   0  0  0  0  0  0  0  0  0  0  0  0
   10.3364   -3.8368   22.9255 O   0  0  0  0  0  0  0  0  0  0  0  0
    9.6947   -4.8407   18.8534 C   0  0  0  0  0  0  0  0  0  0  0  0
    9.1596    1.7042   24.1381 C   0  0  0  0  0  0  0  0  0  0  0  0
   11.0456   -2.9774   18.2694 N   0  0  0  0  0  0  0  0  0  0  0  0
   10.4788   -3.0457   21.8593 C   0  0  0  0  0  0  0  0  0  0  0  0
    8.8693   -5.8099   18.4657 N   0  0  0  0  0  0  0  0  0  0  0  0
    8.9892   -0.7926   25.4573 C   0  0  0  0  0  0  0  0  0  0  0  0
   10.5677   -3.4462   20.5323 C   0  0  0  0  0  0  0  0  0  0  0  0
  1  8  1  0
  1 12  4  0
  1 14  4  0
  2  3  4  0
  2 18  4  0
  3 20  4  0
  3 22  4  0
  4 11  4  0
  4 21  4  0
  5  9  4  0
  5 16  4  0
  6 15  4  0
  6 16  4  0
  7 22  4  0
  7 26  4  0
  8 10  4  0
  8 25  4  0
  9 15  4  0
  9 17  1  0
 10 21  4  0
 11 25  4  0
 12 23  4  0
 13 20  4  0
 13 26  4  0
 14 19  4  0
 17 18  4  0
 17 24  4  0
 19 23  4  0
 20 24  4  0
 23 26  1  0
M  END
$$$$

 Created by Python create_sdf_string function

 26 30  0  0  0  0  0  0  0  0999 V2000
   10.0084   -1.8019   23.4945 C   0  0  0  0  0  0  0  0  0  0  0  0
   10.0005   -4.2520   16.5631 C   0  0  0  0  0  0  0  0  0  0  0  0
   10.2759   -4.0036   17.8845 C   0  0  0  0  0  0  0  0  0  0  0  0
    8.5652    1.5478   25.3778 N   0  0  0  0  0  0  0  0  0  0  0  0
    6.8048   -7.5457   17.8752 C   0  0  0  0  0  0  0  0  0  0  0  0
    6.1721   -8.2186   15.9886 N   0  0  0  0  0  0  0  0  0  0  0  0
   11.1764   -2.6600   19.5604 C   0  0  0  0  0  0  0  0  0  0  0  0
    9.5491   -0.6380   24.1912 C   0  0  0  0  0  0  0  0  0  0  0  0
    7.5337   -6.9256   16.9519 C   0  0  0  0  0  0  0  0  0  0  0  0
    9.6782    0.5671   23.5143 C   0  0  0  0  0  0  0  0  0  0  0  0
    8.4532    0.3482   26.0821 C   0  0  0  0  0  0  0  0  0  0  0  0
   10.4239   -1.7677   22.2230 N   0  0  0  0  0  0  0  0  0  0  0  0
    9.9468   -4.5953   20.1709 C   0  0  0  0  0  0  0  0  0  0  0  0
   10.0366   -3.0590   23.9864 N   0  0  0  0  0  0  0  0  0  0  0  0
    7.1191   -7.3636   15.7739 C   0  0  0  0  0  0  0  0  0  0  0  0
    5.9612   -8.3203   17.2732 N   0  0  0  0  0  0  0  0  0  0  0  0
    8.5296   -5.9814   17.1841 C   0  0  0  0  0  0  0  0  0  0  0  0
    9.1527   -5.2118   16.2116 C   0  0  0  0  0  0  0  0  0  0  0  0
   10.3364   -3.8368   22.9255 O   0  0  0  0  0  0  0  0  0  0  0  0
    9.6947   -4.8407   18.8534 C   0  0  0  0  0  0  0  0  0  0  0  0
    9.1596    1.7042   24.1381 C   0  0  0  0  0  0  0  0  0  0  0  0
   11.0456   -2.9774   18.2694 N   0  0  0  0  0  0  0  0  0  0  0  0
   10.4788   -3.0457   21.8593 C   0  0  0  0  0  0  0  0  0  0  0  0
    8.8693   -5.8099   18.4657 N   0  0  0  0  0  0  0  0  0  0  0  0
    8.9892   -0.7926   25.4573 C   0  0  0  0  0  0  0  0  0  0  0  0
   10.5677   -3.4462   20.5323 C   0  0  0  0  0  0  0  0  0  0  0  0
  1  8  1  0
  1 12  4  0
  1 14  4  0
  2  3  4  0
  2 18  4  0
  3 20  4  0
  3 22  4  0
  4 11  4  0
  4 21  4  0
  5  9  4  0
  5 16  4  0
  6 15  4  0
  6 16  4  0
  7 22  4  0
  7 26  4  0
  8 10  4  0
  8 25  4  0
  9 15  4  0
  9 17  1  0
 10 21  4  0
 11 25  4  0
 12 23  4  0
 13 20  4  0
 13 26  4  0
 14 19  4  0
 17 18  4  0
 17 24  4  0
 19 23  4  0
 20 24  4  0
 23 26  1  0
M  END
$$$$

 Created by Python create_sdf_string function

 26 30  0  0  0  0  0  0  0  0999 V2000
   10.0084   -1.8019   23.4945 C   0  0  0  0  0  0  0  0  0  0  0  0
   10.0005   -4.2520   16.5631 C   0  0  0  0  0  0  0  0  0  0  0  0
   10.2759   -4.0036   17.8845 C   0  0  0  0  0  0  0  0  0  0  0  0
    8.5652    1.5478   25.3778 N   0  0  0  0  0  0  0  0  0  0  0  0
    6.8048   -7.5457   17.8752 C   0  0  0  0  0  0  0  0  0  0  0  0
    6.1721   -8.2186   15.9886 N   0  0  0  0  0  0  0  0  0  0  0  0
   11.1764   -2.6600   19.5604 C   0  0  0  0  0  0  0  0  0  0  0  0
    9.5491   -0.6380   24.1912 C   0  0  0  0  0  0  0  0  0  0  0  0
    7.5337   -6.9256   16.9519 C   0  0  0  0  0  0  0  0  0  0  0  0
    9.6782    0.5671   23.5143 C   0  0  0  0  0  0  0  0  0  0  0  0
    8.4532    0.3482   26.0821 C   0  0  0  0  0  0  0  0  0  0  0  0
   10.4239   -1.7677   22.2230 N   0  0  0  0  0  0  0  0  0  0  0  0
    9.9468   -4.5953   20.1709 C   0  0  0  0  0  0  0  0  0  0  0  0
   10.0366   -3.0590   23.9864 N   0  0  0  0  0  0  0  0  0  0  0  0
    7.1191   -7.3636   15.7739 C   0  0  0  0  0  0  0  0  0  0  0  0
    5.9612   -8.3203   17.2732 N   0  0  0  0  0  0  0  0  0  0  0  0
    8.5296   -5.9814   17.1841 C   0  0  0  0  0  0  0  0  0  0  0  0
    9.1527   -5.2118   16.2116 C   0  0  0  0  0  0  0  0  0  0  0  0
   10.3364   -3.8368   22.9255 O   0  0  0  0  0  0  0  0  0  0  0  0
    9.6947   -4.8407   18.8534 C   0  0  0  0  0  0  0  0  0  0  0  0
    9.1596    1.7042   24.1381 C   0  0  0  0  0  0  0  0  0  0  0  0
   11.0456   -2.9774   18.2694 N   0  0  0  0  0  0  0  0  0  0  0  0
   10.4788   -3.0457   21.8593 C   0  0  0  0  0  0  0  0  0  0  0  0
    8.8693   -5.8099   18.4657 N   0  0  0  0  0  0  0  0  0  0  0  0
    8.9892   -0.7926   25.4573 C   0  0  0  0  0  0  0  0  0  0  0  0
   10.5677   -3.4462   20.5323 C   0  0  0  0  0  0  0  0  0  0  0  0
  1  8  1  0
  1 12  4  0
  1 14  4  0
  2  3  4  0
  2 18  4  0
  3 20  4  0
  3 22  4  0
  4 11  4  0
  4 21  4  0
  5  9  4  0
  5 16  4  0
  6 15  4  0
  6 16  4  0
  7 22  4  0
  7 26  4  0
  8 10  4  0
  8 25  4  0
  9 15  4  0
  9 17  1  0
 10 21  4  0
 11 25  4  0
 12 23  4  0
 13 20  4  0
 13 26  4  0
 14 19  4  0
 17 18  4  0
 17 24  4  0
 19 23  4  0
 20 24  4  0
 23 26  1  0
M  END
$$$$

 Created by Python create_sdf_string function

 26 30  0  0  0  0  0  0  0  0999 V2000
   10.0084   -1.8019   23.4945 C   0  0  0  0  0  0  0  0  0  0  0  0
   10.0005   -4.2520   16.5631 C   0  0  0  0  0  0  0  0  0  0  0  0
   10.2759   -4.0036   17.8845 C   0  0  0  0  0  0  0  0  0  0  0  0
    8.5652    1.5478   25.3778 N   0  0  0  0  0  0  0  0  0  0  0  0
    6.8048   -7.5457   17.8752 C   0  0  0  0  0  0  0  0  0  0  0  0
    6.1721   -8.2186   15.9886 N   0  0  0  0  0  0  0  0  0  0  0  0
   11.1764   -2.6600   19.5604 C   0  0  0  0  0  0  0  0  0  0  0  0
    9.5491   -0.6380   24.1912 C   0  0  0  0  0  0  0  0  0  0  0  0
    7.5337   -6.9256   16.9519 C   0  0  0  0  0  0  0  0  0  0  0  0
    9.6782    0.5671   23.5143 C   0  0  0  0  0  0  0  0  0  0  0  0
    8.4532    0.3482   26.0821 C   0  0  0  0  0  0  0  0  0  0  0  0
   10.4239   -1.7677   22.2230 N   0  0  0  0  0  0  0  0  0  0  0  0
    9.9468   -4.5953   20.1709 C   0  0  0  0  0  0  0  0  0  0  0  0
   10.0366   -3.0590   23.9864 N   0  0  0  0  0  0  0  0  0  0  0  0
    7.1191   -7.3636   15.7739 C   0  0  0  0  0  0  0  0  0  0  0  0
    5.9612   -8.3203   17.2732 N   0  0  0  0  0  0  0  0  0  0  0  0
    8.5296   -5.9814   17.1841 C   0  0  0  0  0  0  0  0  0  0  0  0
    9.1527   -5.2118   16.2116 C   0  0  0  0  0  0  0  0  0  0  0  0
   10.3364   -3.8368   22.9255 O   0  0  0  0  0  0  0  0  0  0  0  0
    9.6947   -4.8407   18.8534 C   0  0  0  0  0  0  0  0  0  0  0  0
    9.1596    1.7042   24.1381 C   0  0  0  0  0  0  0  0  0  0  0  0
   11.0456   -2.9774   18.2694 N   0  0  0  0  0  0  0  0  0  0  0  0
   10.4788   -3.0457   21.8593 C   0  0  0  0  0  0  0  0  0  0  0  0
    8.8693   -5.8099   18.4657 N   0  0  0  0  0  0  0  0  0  0  0  0
    8.9892   -0.7926   25.4573 C   0  0  0  0  0  0  0  0  0  0  0  0
   10.5677   -3.4462   20.5323 C   0  0  0  0  0  0  0  0  0  0  0  0
  1  8  1  0
  1 12  4  0
  1 14  4  0
  2  3  4  0
  2 18  4  0
  3 20  4  0
  3 22  4  0
  4 11  4  0
  4 21  4  0
  5  9  4  0
  5 16  4  0
  6 15  4  0
  6 16  4  0
  7 22  4  0
  7 26  4  0
  8 10  4  0
  8 25  4  0
  9 15  4  0
  9 17  1  0
 10 21  4  0
 11 25  4  0
 12 23  4  0
 13 20  4  0
 13 26  4  0
 14 19  4  0
 17 18  4  0
 17 24  4  0
 19 23  4  0
 20 24  4  0
 23 26  1  0
M  END
$$$$

 Created by Python create_sdf_string function

 26 30  0  0  0  0  0  0  0  0999 V2000
   10.0084   -1.8019   23.4945 C   0  0  0  0  0  0  0  0  0  0  0  0
   10.0005   -4.2520   16.5631 C   0  0  0  0  0  0  0  0  0  0  0  0
   10.2759   -4.0036   17.8845 C   0  0  0  0  0  0  0  0  0  0  0  0
    8.5652    1.5478   25.3778 N   0  0  0  0  0  0  0  0  0  0  0  0
    6.8048   -7.5457   17.8752 C   0  0  0  0  0  0  0  0  0  0  0  0
    6.1721   -8.2186   15.9886 N   0  0  0  0  0  0  0  0  0  0  0  0
   11.1764   -2.6600   19.5604 C   0  0  0  0  0  0  0  0  0  0  0  0
    9.5491   -0.6380   24.1912 C   0  0  0  0  0  0  0  0  0  0  0  0
    7.5337   -6.9256   16.9519 C   0  0  0  0  0  0  0  0  0  0  0  0
    9.6782    0.5671   23.5143 C   0  0  0  0  0  0  0  0  0  0  0  0
    8.4532    0.3482   26.0821 C   0  0  0  0  0  0  0  0  0  0  0  0
   10.4239   -1.7677   22.2230 N   0  0  0  0  0  0  0  0  0  0  0  0
    9.9468   -4.5953   20.1709 C   0  0  0  0  0  0  0  0  0  0  0  0
   10.0366   -3.0590   23.9864 N   0  0  0  0  0  0  0  0  0  0  0  0
    7.1191   -7.3636   15.7739 C   0  0  0  0  0  0  0  0  0  0  0  0
    5.9612   -8.3203   17.2732 N   0  0  0  0  0  0  0  0  0  0  0  0
    8.5296   -5.9814   17.1841 C   0  0  0  0  0  0  0  0  0  0  0  0
    9.1527   -5.2118   16.2116 C   0  0  0  0  0  0  0  0  0  0  0  0
   10.3364   -3.8368   22.9255 O   0  0  0  0  0  0  0  0  0  0  0  0
    9.6947   -4.8407   18.8534 C   0  0  0  0  0  0  0  0  0  0  0  0
    9.1596    1.7042   24.1381 C   0  0  0  0  0  0  0  0  0  0  0  0
   11.0456   -2.9774   18.2694 N   0  0  0  0  0  0  0  0  0  0  0  0
   10.4788   -3.0457   21.8593 C   0  0  0  0  0  0  0  0  0  0  0  0
    8.8693   -5.8099   18.4657 N   0  0  0  0  0  0  0  0  0  0  0  0
    8.9892   -0.7926   25.4573 C   0  0  0  0  0  0  0  0  0  0  0  0
   10.5677   -3.4462   20.5323 C   0  0  0  0  0  0  0  0  0  0  0  0
  1  8  1  0
  1 12  4  0
  1 14  4  0
  2  3  4  0
  2 18  4  0
  3 20  4  0
  3 22  4  0
  4 11  4  0
  4 21  4  0
  5  9  4  0
  5 16  4  0
  6 15  4  0
  6 16  4  0
  7 22  4  0
  7 26  4  0
  8 10  4  0
  8 25  4  0
  9 15  4  0
  9 17  1  0
 10 21  4  0
 11 25  4  0
 12 23  4  0
 13 20  4  0
 13 26  4  0
 14 19  4  0
 17 18  4  0
 17 24  4  0
 19 23  4  0
 20 24  4  0
 23 26  1  0
M  END
$$$$

 Created by Python create_sdf_string function

 26 30  0  0  0  0  0  0  0  0999 V2000
   10.0084   -1.8019   23.4945 C   0  0  0  0  0  0  0  0  0  0  0  0
   10.0005   -4.2520   16.5631 C   0  0  0  0  0  0  0  0  0  0  0  0
   10.2759   -4.0036   17.8845 C   0  0  0  0  0  0  0  0  0  0  0  0
    8.5652    1.5478   25.3778 N   0  0  0  0  0  0  0  0  0  0  0  0
    6.8048   -7.5457   17.8752 C   0  0  0  0  0  0  0  0  0  0  0  0
    6.1721   -8.2186   15.9886 N   0  0  0  0  0  0  0  0  0  0  0  0
   11.1764   -2.6600   19.5604 C   0  0  0  0  0  0  0  0  0  0  0  0
    9.5491   -0.6380   24.1912 C   0  0  0  0  0  0  0  0  0  0  0  0
    7.5337   -6.9256   16.9519 C   0  0  0  0  0  0  0  0  0  0  0  0
    9.6782    0.5671   23.5143 C   0  0  0  0  0  0  0  0  0  0  0  0
    8.4532    0.3482   26.0821 C   0  0  0  0  0  0  0  0  0  0  0  0
   10.4239   -1.7677   22.2230 N   0  0  0  0  0  0  0  0  0  0  0  0
    9.9468   -4.5953   20.1709 C   0  0  0  0  0  0  0  0  0  0  0  0
   10.0366   -3.0590   23.9864 N   0  0  0  0  0  0  0  0  0  0  0  0
    7.1191   -7.3636   15.7739 C   0  0  0  0  0  0  0  0  0  0  0  0
    5.9612   -8.3203   17.2732 N   0  0  0  0  0  0  0  0  0  0  0  0
    8.5296   -5.9814   17.1841 C   0  0  0  0  0  0  0  0  0  0  0  0
    9.1527   -5.2118   16.2116 C   0  0  0  0  0  0  0  0  0  0  0  0
   10.3364   -3.8368   22.9255 O   0  0  0  0  0  0  0  0  0  0  0  0
    9.6947   -4.8407   18.8534 C   0  0  0  0  0  0  0  0  0  0  0  0
    9.1596    1.7042   24.1381 C   0  0  0  0  0  0  0  0  0  0  0  0
   11.0456   -2.9774   18.2694 N   0  0  0  0  0  0  0  0  0  0  0  0
   10.4788   -3.0457   21.8593 C   0  0  0  0  0  0  0  0  0  0  0  0
    8.8693   -5.8099   18.4657 N   0  0  0  0  0  0  0  0  0  0  0  0
    8.9892   -0.7926   25.4573 C   0  0  0  0  0  0  0  0  0  0  0  0
   10.5677   -3.4462   20.5323 C   0  0  0  0  0  0  0  0  0  0  0  0
  1  8  1  0
  1 12  4  0
  1 14  4  0
  2  3  4  0
  2 18  4  0
  3 20  4  0
  3 22  4  0
  4 11  4  0
  4 21  4  0
  5  9  4  0
  5 16  4  0
  6 15  4  0
  6 16  4  0
  7 22  4  0
  7 26  4  0
  8 10  4  0
  8 25  4  0
  9 15  4  0
  9 17  1  0
 10 21  4  0
 11 25  4  0
 12 23  4  0
 13 20  4  0
 13 26  4  0
 14 19  4  0
 17 18  4  0
 17 24  4  0
 19 23  4  0
 20 24  4  0
 23 26  1  0
M  END
$$$$

 Created by Python create_sdf_string function

 26 30  0  0  0  0  0  0  0  0999 V2000
   10.0084   -1.8019   23.4945 C   0  0  0  0  0  0  0  0  0  0  0  0
   10.0005   -4.2520   16.5631 C   0  0  0  0  0  0  0  0  0  0  0  0
   10.2759   -4.0036   17.8845 C   0  0  0  0  0  0  0  0  0  0  0  0
    8.5652    1.5478   25.3778 N   0  0  0  0  0  0  0  0  0  0  0  0
    6.8048   -7.5457   17.8752 C   0  0  0  0  0  0  0  0  0  0  0  0
    6.1721   -8.2186   15.9886 N   0  0  0  0  0  0  0  0  0  0  0  0
   11.1764   -2.6600   19.5604 C   0  0  0  0  0  0  0  0  0  0  0  0
    9.5491   -0.6380   24.1912 C   0  0  0  0  0  0  0  0  0  0  0  0
    7.5337   -6.9256   16.9519 C   0  0  0  0  0  0  0  0  0  0  0  0
    9.6782    0.5671   23.5143 C   0  0  0  0  0  0  0  0  0  0  0  0
    8.4532    0.3482   26.0821 C   0  0  0  0  0  0  0  0  0  0  0  0
   10.4239   -1.7677   22.2230 N   0  0  0  0  0  0  0  0  0  0  0  0
    9.9468   -4.5953   20.1709 C   0  0  0  0  0  0  0  0  0  0  0  0
   10.0366   -3.0590   23.9864 N   0  0  0  0  0  0  0  0  0  0  0  0
    7.1191   -7.3636   15.7739 C   0  0  0  0  0  0  0  0  0  0  0  0
    5.9612   -8.3203   17.2732 N   0  0  0  0  0  0  0  0  0  0  0  0
    8.5296   -5.9814   17.1841 C   0  0  0  0  0  0  0  0  0  0  0  0
    9.1527   -5.2118   16.2116 C   0  0  0  0  0  0  0  0  0  0  0  0
   10.3364   -3.8368   22.9255 O   0  0  0  0  0  0  0  0  0  0  0  0
    9.6947   -4.8407   18.8534 C   0  0  0  0  0  0  0  0  0  0  0  0
    9.1596    1.7042   24.1381 C   0  0  0  0  0  0  0  0  0  0  0  0
   11.0456   -2.9774   18.2694 N   0  0  0  0  0  0  0  0  0  0  0  0
   10.4788   -3.0457   21.8593 C   0  0  0  0  0  0  0  0  0  0  0  0
    8.8693   -5.8099   18.4657 N   0  0  0  0  0  0  0  0  0  0  0  0
    8.9892   -0.7926   25.4573 C   0  0  0  0  0  0  0  0  0  0  0  0
   10.5677   -3.4462   20.5323 C   0  0  0  0  0  0  0  0  0  0  0  0
  1  8  1  0
  1 12  4  0
  1 14  4  0
  2  3  4  0
  2 18  4  0
  3 20  4  0
  3 22  4  0
  4 11  4  0
  4 21  4  0
  5  9  4  0
  5 16  4  0
  6 15  4  0
  6 16  4  0
  7 22  4  0
  7 26  4  0
  8 10  4  0
  8 25  4  0
  9 15  4  0
  9 17  1  0
 10 21  4  0
 11 25  4  0
 12 23  4  0
 13 20  4  0
 13 26  4  0
 14 19  4  0
 17 18  4  0
 17 24  4  0
 19 23  4  0
 20 24  4  0
 23 26  1  0
M  END
$$$$

 Created by Python create_sdf_string function

 26 30  0  0  0  0  0  0  0  0999 V2000
   10.0084   -1.8019   23.4945 C   0  0  0  0  0  0  0  0  0  0  0  0
   10.0005   -4.2520   16.5631 C   0  0  0  0  0  0  0  0  0  0  0  0
   10.2759   -4.0036   17.8845 C   0  0  0  0  0  0  0  0  0  0  0  0
    8.5652    1.5478   25.3778 N   0  0  0  0  0  0  0  0  0  0  0  0
    6.8048   -7.5457   17.8752 C   0  0  0  0  0  0  0  0  0  0  0  0
    6.1721   -8.2186   15.9886 N   0  0  0  0  0  0  0  0  0  0  0  0
   11.1764   -2.6600   19.5604 C   0  0  0  0  0  0  0  0  0  0  0  0
    9.5491   -0.6380   24.1912 C   0  0  0  0  0  0  0  0  0  0  0  0
    7.5337   -6.9256   16.9519 C   0  0  0  0  0  0  0  0  0  0  0  0
    9.6782    0.5671   23.5143 C   0  0  0  0  0  0  0  0  0  0  0  0
    8.4532    0.3482   26.0821 C   0  0  0  0  0  0  0  0  0  0  0  0
   10.4239   -1.7677   22.2230 N   0  0  0  0  0  0  0  0  0  0  0  0
    9.9468   -4.5953   20.1709 C   0  0  0  0  0  0  0  0  0  0  0  0
   10.0366   -3.0590   23.9864 N   0  0  0  0  0  0  0  0  0  0  0  0
    7.1191   -7.3636   15.7739 C   0  0  0  0  0  0  0  0  0  0  0  0
    5.9612   -8.3203   17.2732 N   0  0  0  0  0  0  0  0  0  0  0  0
    8.5296   -5.9814   17.1841 C   0  0  0  0  0  0  0  0  0  0  0  0
    9.1527   -5.2118   16.2116 C   0  0  0  0  0  0  0  0  0  0  0  0
   10.3364   -3.8368   22.9255 O   0  0  0  0  0  0  0  0  0  0  0  0
    9.6947   -4.8407   18.8534 C   0  0  0  0  0  0  0  0  0  0  0  0
    9.1596    1.7042   24.1381 C   0  0  0  0  0  0  0  0  0  0  0  0
   11.0456   -2.9774   18.2694 N   0  0  0  0  0  0  0  0  0  0  0  0
   10.4788   -3.0457   21.8593 C   0  0  0  0  0  0  0  0  0  0  0  0
    8.8693   -5.8099   18.4657 N   0  0  0  0  0  0  0  0  0  0  0  0
    8.9892   -0.7926   25.4573 C   0  0  0  0  0  0  0  0  0  0  0  0
   10.5677   -3.4462   20.5323 C   0  0  0  0  0  0  0  0  0  0  0  0
  1  8  1  0
  1 12  4  0
  1 14  4  0
  2  3  4  0
  2 18  4  0
  3 20  4  0
  3 22  4  0
  4 11  4  0
  4 21  4  0
  5  9  4  0
  5 16  4  0
  6 15  4  0
  6 16  4  0
  7 22  4  0
  7 26  4  0
  8 10  4  0
  8 25  4  0
  9 15  4  0
  9 17  1  0
 10 21  4  0
 11 25  4  0
 12 23  4  0
 13 20  4  0
 13 26  4  0
 14 19  4  0
 17 18  4  0
 17 24  4  0
 19 23  4  0
 20 24  4  0
 23 26  1  0
M  END
$$$$

 Created by Python create_sdf_string function

 26 30  0  0  0  0  0  0  0  0999 V2000
   10.0084   -1.8019   23.4945 C   0  0  0  0  0  0  0  0  0  0  0  0
   10.0005   -4.2520   16.5631 C   0  0  0  0  0  0  0  0  0  0  0  0
   10.2759   -4.0036   17.8845 C   0  0  0  0  0  0  0  0  0  0  0  0
    8.5652    1.5478   25.3778 N   0  0  0  0  0  0  0  0  0  0  0  0
    6.8048   -7.5457   17.8752 C   0  0  0  0  0  0  0  0  0  0  0  0
    6.1721   -8.2186   15.9886 N   0  0  0  0  0  0  0  0  0  0  0  0
   11.1764   -2.6600   19.5604 C   0  0  0  0  0  0  0  0  0  0  0  0
    9.5491   -0.6380   24.1912 C   0  0  0  0  0  0  0  0  0  0  0  0
    7.5337   -6.9256   16.9519 C   0  0  0  0  0  0  0  0  0  0  0  0
    9.6782    0.5671   23.5143 C   0  0  0  0  0  0  0  0  0  0  0  0
    8.4532    0.3482   26.0821 C   0  0  0  0  0  0  0  0  0  0  0  0
   10.4239   -1.7677   22.2230 N   0  0  0  0  0  0  0  0  0  0  0  0
    9.9468   -4.5953   20.1709 C   0  0  0  0  0  0  0  0  0  0  0  0
   10.0366   -3.0590   23.9864 N   0  0  0  0  0  0  0  0  0  0  0  0
    7.1191   -7.3636   15.7739 C   0  0  0  0  0  0  0  0  0  0  0  0
    5.9612   -8.3203   17.2732 N   0  0  0  0  0  0  0  0  0  0  0  0
    8.5296   -5.9814   17.1841 C   0  0  0  0  0  0  0  0  0  0  0  0
    9.1527   -5.2118   16.2116 C   0  0  0  0  0  0  0  0  0  0  0  0
   10.3364   -3.8368   22.9255 O   0  0  0  0  0  0  0  0  0  0  0  0
    9.6947   -4.8407   18.8534 C   0  0  0  0  0  0  0  0  0  0  0  0
    9.1596    1.7042   24.1381 C   0  0  0  0  0  0  0  0  0  0  0  0
   11.0456   -2.9774   18.2694 N   0  0  0  0  0  0  0  0  0  0  0  0
   10.4788   -3.0457   21.8593 C   0  0  0  0  0  0  0  0  0  0  0  0
    8.8693   -5.8099   18.4657 N   0  0  0  0  0  0  0  0  0  0  0  0
    8.9892   -0.7926   25.4573 C   0  0  0  0  0  0  0  0  0  0  0  0
   10.5677   -3.4462   20.5323 C   0  0  0  0  0  0  0  0  0  0  0  0
  1  8  1  0
  1 12  4  0
  1 14  4  0
  2  3  4  0
  2 18  4  0
  3 20  4  0
  3 22  4  0
  4 11  4  0
  4 21  4  0
  5  9  4  0
  5 16  4  0
  6 15  4  0
  6 16  4  0
  7 22  4  0
  7 26  4  0
  8 10  4  0
  8 25  4  0
  9 15  4  0
  9 17  1  0
 10 21  4  0
 11 25  4  0
 12 23  4  0
 13 20  4  0
 13 26  4  0
 14 19  4  0
 17 18  4  0
 17 24  4  0
 19 23  4  0
 20 24  4  0
 23 26  1  0
M  END
$$$$

 Created by Python create_sdf_string function

 26 30  0  0  0  0  0  0  0  0999 V2000
   10.0084   -1.8019   23.4945 C   0  0  0  0  0  0  0  0  0  0  0  0
   10.0005   -4.2520   16.5631 C   0  0  0  0  0  0  0  0  0  0  0  0
   10.2759   -4.0036   17.8845 C   0  0  0  0  0  0  0  0  0  0  0  0
    8.5652    1.5478   25.3778 N   0  0  0  0  0  0  0  0  0  0  0  0
    6.8048   -7.5457   17.8752 C   0  0  0  0  0  0  0  0  0  0  0  0
    6.1721   -8.2186   15.9886 N   0  0  0  0  0  0  0  0  0  0  0  0
   11.1764   -2.6600   19.5604 C   0  0  0  0  0  0  0  0  0  0  0  0
    9.5491   -0.6380   24.1912 C   0  0  0  0  0  0  0  0  0  0  0  0
    7.5337   -6.9256   16.9519 C   0  0  0  0  0  0  0  0  0  0  0  0
    9.6782    0.5671   23.5143 C   0  0  0  0  0  0  0  0  0  0  0  0
    8.4532    0.3482   26.0821 C   0  0  0  0  0  0  0  0  0  0  0  0
   10.4239   -1.7677   22.2230 N   0  0  0  0  0  0  0  0  0  0  0  0
    9.9468   -4.5953   20.1709 C   0  0  0  0  0  0  0  0  0  0  0  0
   10.0366   -3.0590   23.9864 N   0  0  0  0  0  0  0  0  0  0  0  0
    7.1191   -7.3636   15.7739 C   0  0  0  0  0  0  0  0  0  0  0  0
    5.9612   -8.3203   17.2732 N   0  0  0  0  0  0  0  0  0  0  0  0
    8.5296   -5.9814   17.1841 C   0  0  0  0  0  0  0  0  0  0  0  0
    9.1527   -5.2118   16.2116 C   0  0  0  0  0  0  0  0  0  0  0  0
   10.3364   -3.8368   22.9255 O   0  0  0  0  0  0  0  0  0  0  0  0
    9.6947   -4.8407   18.8534 C   0  0  0  0  0  0  0  0  0  0  0  0
    9.1596    1.7042   24.1381 C   0  0  0  0  0  0  0  0  0  0  0  0
   11.0456   -2.9774   18.2694 N   0  0  0  0  0  0  0  0  0  0  0  0
   10.4788   -3.0457   21.8593 C   0  0  0  0  0  0  0  0  0  0  0  0
    8.8693   -5.8099   18.4657 N   0  0  0  0  0  0  0  0  0  0  0  0
    8.9892   -0.7926   25.4573 C   0  0  0  0  0  0  0  0  0  0  0  0
   10.5677   -3.4462   20.5323 C   0  0  0  0  0  0  0  0  0  0  0  0
  1  8  1  0
  1 12  4  0
  1 14  4  0
  2  3  4  0
  2 18  4  0
  3 20  4  0
  3 22  4  0
  4 11  4  0
  4 21  4  0
  5  9  4  0
  5 16  4  0
  6 15  4  0
  6 16  4  0
  7 22  4  0
  7 26  4  0
  8 10  4  0
  8 25  4  0
  9 15  4  0
  9 17  1  0
 10 21  4  0
 11 25  4  0
 12 23  4  0
 13 20  4  0
 13 26  4  0
 14 19  4  0
 17 18  4  0
 17 24  4  0
 19 23  4  0
 20 24  4  0
 23 26  1  0
M  END
$$$$

 Created by Python create_sdf_string function

 26 30  0  0  0  0  0  0  0  0999 V2000
   10.0084   -1.8019   23.4945 C   0  0  0  0  0  0  0  0  0  0  0  0
   10.0005   -4.2520   16.5631 C   0  0  0  0  0  0  0  0  0  0  0  0
   10.2759   -4.0036   17.8845 C   0  0  0  0  0  0  0  0  0  0  0  0
    8.5652    1.5478   25.3778 N   0  0  0  0  0  0  0  0  0  0  0  0
    6.8048   -7.5457   17.8752 C   0  0  0  0  0  0  0  0  0  0  0  0
    6.1721   -8.2186   15.9886 N   0  0  0  0  0  0  0  0  0  0  0  0
   11.1764   -2.6600   19.5604 C   0  0  0  0  0  0  0  0  0  0  0  0
    9.5491   -0.6380   24.1912 C   0  0  0  0  0  0  0  0  0  0  0  0
    7.5337   -6.9256   16.9519 C   0  0  0  0  0  0  0  0  0  0  0  0
    9.6782    0.5671   23.5143 C   0  0  0  0  0  0  0  0  0  0  0  0
    8.4532    0.3482   26.0821 C   0  0  0  0  0  0  0  0  0  0  0  0
   10.4239   -1.7677   22.2230 N   0  0  0  0  0  0  0  0  0  0  0  0
    9.9468   -4.5953   20.1709 C   0  0  0  0  0  0  0  0  0  0  0  0
   10.0366   -3.0590   23.9864 N   0  0  0  0  0  0  0  0  0  0  0  0
    7.1191   -7.3636   15.7739 C   0  0  0  0  0  0  0  0  0  0  0  0
    5.9612   -8.3203   17.2732 N   0  0  0  0  0  0  0  0  0  0  0  0
    8.5296   -5.9814   17.1841 C   0  0  0  0  0  0  0  0  0  0  0  0
    9.1527   -5.2118   16.2116 C   0  0  0  0  0  0  0  0  0  0  0  0
   10.3364   -3.8368   22.9255 O   0  0  0  0  0  0  0  0  0  0  0  0
    9.6947   -4.8407   18.8534 C   0  0  0  0  0  0  0  0  0  0  0  0
    9.1596    1.7042   24.1381 C   0  0  0  0  0  0  0  0  0  0  0  0
   11.0456   -2.9774   18.2694 N   0  0  0  0  0  0  0  0  0  0  0  0
   10.4788   -3.0457   21.8593 C   0  0  0  0  0  0  0  0  0  0  0  0
    8.8693   -5.8099   18.4657 N   0  0  0  0  0  0  0  0  0  0  0  0
    8.9892   -0.7926   25.4573 C   0  0  0  0  0  0  0  0  0  0  0  0
   10.5677   -3.4462   20.5323 C   0  0  0  0  0  0  0  0  0  0  0  0
  1  8  1  0
  1 12  4  0
  1 14  4  0
  2  3  4  0
  2 18  4  0
  3 20  4  0
  3 22  4  0
  4 11  4  0
  4 21  4  0
  5  9  4  0
  5 16  4  0
  6 15  4  0
  6 16  4  0
  7 22  4  0
  7 26  4  0
  8 10  4  0
  8 25  4  0
  9 15  4  0
  9 17  1  0
 10 21  4  0
 11 25  4  0
 12 23  4  0
 13 20  4  0
 13 26  4  0
 14 19  4  0
 17 18  4  0
 17 24  4  0
 19 23  4  0
 20 24  4  0
 23 26  1  0
M  END
$$$$

 Created by Python create_sdf_string function

 26 30  0  0  0  0  0  0  0  0999 V2000
   10.0084   -1.8019   23.4945 C   0  0  0  0  0  0  0  0  0  0  0  0
   10.0005   -4.2520   16.5631 C   0  0  0  0  0  0  0  0  0  0  0  0
   10.2759   -4.0036   17.8845 C   0  0  0  0  0  0  0  0  0  0  0  0
    8.5652    1.5478   25.3778 N   0  0  0  0  0  0  0  0  0  0  0  0
    6.8048   -7.5457   17.8752 C   0  0  0  0  0  0  0  0  0  0  0  0
    6.1721   -8.2186   15.9886 N   0  0  0  0  0  0  0  0  0  0  0  0
   11.1764   -2.6600   19.5604 C   0  0  0  0  0  0  0  0  0  0  0  0
    9.5491   -0.6380   24.1912 C   0  0  0  0  0  0  0  0  0  0  0  0
    7.5337   -6.9256   16.9519 C   0  0  0  0  0  0  0  0  0  0  0  0
    9.6782    0.5671   23.5143 C   0  0  0  0  0  0  0  0  0  0  0  0
    8.4532    0.3482   26.0821 C   0  0  0  0  0  0  0  0  0  0  0  0
   10.4239   -1.7677   22.2230 N   0  0  0  0  0  0  0  0  0  0  0  0
    9.9468   -4.5953   20.1709 C   0  0  0  0  0  0  0  0  0  0  0  0
   10.0366   -3.0590   23.9864 N   0  0  0  0  0  0  0  0  0  0  0  0
    7.1191   -7.3636   15.7739 C   0  0  0  0  0  0  0  0  0  0  0  0
    5.9612   -8.3203   17.2732 N   0  0  0  0  0  0  0  0  0  0  0  0
    8.5296   -5.9814   17.1841 C   0  0  0  0  0  0  0  0  0  0  0  0
    9.1527   -5.2118   16.2116 C   0  0  0  0  0  0  0  0  0  0  0  0
   10.3364   -3.8368   22.9255 O   0  0  0  0  0  0  0  0  0  0  0  0
    9.6947   -4.8407   18.8534 C   0  0  0  0  0  0  0  0  0  0  0  0
    9.1596    1.7042   24.1381 C   0  0  0  0  0  0  0  0  0  0  0  0
   11.0456   -2.9774   18.2694 N   0  0  0  0  0  0  0  0  0  0  0  0
   10.4788   -3.0457   21.8593 C   0  0  0  0  0  0  0  0  0  0  0  0
    8.8693   -5.8099   18.4657 N   0  0  0  0  0  0  0  0  0  0  0  0
    8.9892   -0.7926   25.4573 C   0  0  0  0  0  0  0  0  0  0  0  0
   10.5677   -3.4462   20.5323 C   0  0  0  0  0  0  0  0  0  0  0  0
  1  8  1  0
  1 12  4  0
  1 14  4  0
  2  3  4  0
  2 18  4  0
  3 20  4  0
  3 22  4  0
  4 11  4  0
  4 21  4  0
  5  9  4  0
  5 16  4  0
  6 15  4  0
  6 16  4  0
  7 22  4  0
  7 26  4  0
  8 10  4  0
  8 25  4  0
  9 15  4  0
  9 17  1  0
 10 21  4  0
 11 25  4  0
 12 23  4  0
 13 20  4  0
 13 26  4  0
 14 19  4  0
 17 18  4  0
 17 24  4  0
 19 23  4  0
 20 24  4  0
 23 26  1  0
M  END
$$$$

 Created by Python create_sdf_string function

 26 30  0  0  0  0  0  0  0  0999 V2000
   10.0084   -1.8019   23.4945 C   0  0  0  0  0  0  0  0  0  0  0  0
   10.0005   -4.2520   16.5631 C   0  0  0  0  0  0  0  0  0  0  0  0
   10.2759   -4.0036   17.8845 C   0  0  0  0  0  0  0  0  0  0  0  0
    8.5652    1.5478   25.3778 N   0  0  0  0  0  0  0  0  0  0  0  0
    6.8048   -7.5457   17.8752 C   0  0  0  0  0  0  0  0  0  0  0  0
    6.1721   -8.2186   15.9886 N   0  0  0  0  0  0  0  0  0  0  0  0
   11.1764   -2.6600   19.5604 C   0  0  0  0  0  0  0  0  0  0  0  0
    9.5491   -0.6380   24.1912 C   0  0  0  0  0  0  0  0  0  0  0  0
    7.5337   -6.9256   16.9519 C   0  0  0  0  0  0  0  0  0  0  0  0
    9.6782    0.5671   23.5143 C   0  0  0  0  0  0  0  0  0  0  0  0
    8.4532    0.3482   26.0821 C   0  0  0  0  0  0  0  0  0  0  0  0
   10.4239   -1.7677   22.2230 N   0  0  0  0  0  0  0  0  0  0  0  0
    9.9468   -4.5953   20.1709 C   0  0  0  0  0  0  0  0  0  0  0  0
   10.0366   -3.0590   23.9864 N   0  0  0  0  0  0  0  0  0  0  0  0
    7.1191   -7.3636   15.7739 C   0  0  0  0  0  0  0  0  0  0  0  0
    5.9612   -8.3203   17.2732 N   0  0  0  0  0  0  0  0  0  0  0  0
    8.5296   -5.9814   17.1841 C   0  0  0  0  0  0  0  0  0  0  0  0
    9.1527   -5.2118   16.2116 C   0  0  0  0  0  0  0  0  0  0  0  0
   10.3364   -3.8368   22.9255 O   0  0  0  0  0  0  0  0  0  0  0  0
    9.6947   -4.8407   18.8534 C   0  0  0  0  0  0  0  0  0  0  0  0
    9.1596    1.7042   24.1381 C   0  0  0  0  0  0  0  0  0  0  0  0
   11.0456   -2.9774   18.2694 N   0  0  0  0  0  0  0  0  0  0  0  0
   10.4788   -3.0457   21.8593 C   0  0  0  0  0  0  0  0  0  0  0  0
    8.8693   -5.8099   18.4657 N   0  0  0  0  0  0  0  0  0  0  0  0
    8.9892   -0.7926   25.4573 C   0  0  0  0  0  0  0  0  0  0  0  0
   10.5677   -3.4462   20.5323 C   0  0  0  0  0  0  0  0  0  0  0  0
  1  8  1  0
  1 12  4  0
  1 14  4  0
  2  3  4  0
  2 18  4  0
  3 20  4  0
  3 22  4  0
  4 11  4  0
  4 21  4  0
  5  9  4  0
  5 16  4  0
  6 15  4  0
  6 16  4  0
  7 22  4  0
  7 26  4  0
  8 10  4  0
  8 25  4  0
  9 15  4  0
  9 17  1  0
 10 21  4  0
 11 25  4  0
 12 23  4  0
 13 20  4  0
 13 26  4  0
 14 19  4  0
 17 18  4  0
 17 24  4  0
 19 23  4  0
 20 24  4  0
 23 26  1  0
M  END
$$$$

 Created by Python create_sdf_string function

 26 30  0  0  0  0  0  0  0  0999 V2000
   10.0084   -1.8019   23.4945 C   0  0  0  0  0  0  0  0  0  0  0  0
   10.0005   -4.2520   16.5631 C   0  0  0  0  0  0  0  0  0  0  0  0
   10.2759   -4.0036   17.8845 C   0  0  0  0  0  0  0  0  0  0  0  0
    8.5652    1.5478   25.3778 N   0  0  0  0  0  0  0  0  0  0  0  0
    6.8048   -7.5457   17.8752 C   0  0  0  0  0  0  0  0  0  0  0  0
    6.1721   -8.2186   15.9886 N   0  0  0  0  0  0  0  0  0  0  0  0
   11.1764   -2.6600   19.5604 C   0  0  0  0  0  0  0  0  0  0  0  0
    9.5491   -0.6380   24.1912 C   0  0  0  0  0  0  0  0  0  0  0  0
    7.5337   -6.9256   16.9519 C   0  0  0  0  0  0  0  0  0  0  0  0
    9.6782    0.5671   23.5143 C   0  0  0  0  0  0  0  0  0  0  0  0
    8.4532    0.3482   26.0821 C   0  0  0  0  0  0  0  0  0  0  0  0
   10.4239   -1.7677   22.2230 N   0  0  0  0  0  0  0  0  0  0  0  0
    9.9468   -4.5953   20.1709 C   0  0  0  0  0  0  0  0  0  0  0  0
   10.0366   -3.0590   23.9864 N   0  0  0  0  0  0  0  0  0  0  0  0
    7.1191   -7.3636   15.7739 C   0  0  0  0  0  0  0  0  0  0  0  0
    5.9612   -8.3203   17.2732 N   0  0  0  0  0  0  0  0  0  0  0  0
    8.5296   -5.9814   17.1841 C   0  0  0  0  0  0  0  0  0  0  0  0
    9.1527   -5.2118   16.2116 C   0  0  0  0  0  0  0  0  0  0  0  0
   10.3364   -3.8368   22.9255 O   0  0  0  0  0  0  0  0  0  0  0  0
    9.6947   -4.8407   18.8534 C   0  0  0  0  0  0  0  0  0  0  0  0
    9.1596    1.7042   24.1381 C   0  0  0  0  0  0  0  0  0  0  0  0
   11.0456   -2.9774   18.2694 N   0  0  0  0  0  0  0  0  0  0  0  0
   10.4788   -3.0457   21.8593 C   0  0  0  0  0  0  0  0  0  0  0  0
    8.8693   -5.8099   18.4657 N   0  0  0  0  0  0  0  0  0  0  0  0
    8.9892   -0.7926   25.4573 C   0  0  0  0  0  0  0  0  0  0  0  0
   10.5677   -3.4462   20.5323 C   0  0  0  0  0  0  0  0  0  0  0  0
  1  8  1  0
  1 12  4  0
  1 14  4  0
  2  3  4  0
  2 18  4  0
  3 20  4  0
  3 22  4  0
  4 11  4  0
  4 21  4  0
  5  9  4  0
  5 16  4  0
  6 15  4  0
  6 16  4  0
  7 22  4  0
  7 26  4  0
  8 10  4  0
  8 25  4  0
  9 15  4  0
  9 17  1  0
 10 21  4  0
 11 25  4  0
 12 23  4  0
 13 20  4  0
 13 26  4  0
 14 19  4  0
 17 18  4  0
 17 24  4  0
 19 23  4  0
 20 24  4  0
 23 26  1  0
M  END
$$$$

 Created by Python create_sdf_string function

 26 30  0  0  0  0  0  0  0  0999 V2000
   10.0084   -1.8019   23.4945 C   0  0  0  0  0  0  0  0  0  0  0  0
   10.0005   -4.2520   16.5631 C   0  0  0  0  0  0  0  0  0  0  0  0
   10.2759   -4.0036   17.8845 C   0  0  0  0  0  0  0  0  0  0  0  0
    8.5652    1.5478   25.3778 N   0  0  0  0  0  0  0  0  0  0  0  0
    6.8048   -7.5457   17.8752 C   0  0  0  0  0  0  0  0  0  0  0  0
    6.1721   -8.2186   15.9886 N   0  0  0  0  0  0  0  0  0  0  0  0
   11.1764   -2.6600   19.5604 C   0  0  0  0  0  0  0  0  0  0  0  0
    9.5491   -0.6380   24.1912 C   0  0  0  0  0  0  0  0  0  0  0  0
    7.5337   -6.9256   16.9519 C   0  0  0  0  0  0  0  0  0  0  0  0
    9.6782    0.5671   23.5143 C   0  0  0  0  0  0  0  0  0  0  0  0
    8.4532    0.3482   26.0821 C   0  0  0  0  0  0  0  0  0  0  0  0
   10.4239   -1.7677   22.2230 N   0  0  0  0  0  0  0  0  0  0  0  0
    9.9468   -4.5953   20.1709 C   0  0  0  0  0  0  0  0  0  0  0  0
   10.0366   -3.0590   23.9864 N   0  0  0  0  0  0  0  0  0  0  0  0
    7.1191   -7.3636   15.7739 C   0  0  0  0  0  0  0  0  0  0  0  0
    5.9612   -8.3203   17.2732 N   0  0  0  0  0  0  0  0  0  0  0  0
    8.5296   -5.9814   17.1841 C   0  0  0  0  0  0  0  0  0  0  0  0
    9.1527   -5.2118   16.2116 C   0  0  0  0  0  0  0  0  0  0  0  0
   10.3364   -3.8368   22.9255 O   0  0  0  0  0  0  0  0  0  0  0  0
    9.6947   -4.8407   18.8534 C   0  0  0  0  0  0  0  0  0  0  0  0
    9.1596    1.7042   24.1381 C   0  0  0  0  0  0  0  0  0  0  0  0
   11.0456   -2.9774   18.2694 N   0  0  0  0  0  0  0  0  0  0  0  0
   10.4788   -3.0457   21.8593 C   0  0  0  0  0  0  0  0  0  0  0  0
    8.8693   -5.8099   18.4657 N   0  0  0  0  0  0  0  0  0  0  0  0
    8.9892   -0.7926   25.4573 C   0  0  0  0  0  0  0  0  0  0  0  0
   10.5677   -3.4462   20.5323 C   0  0  0  0  0  0  0  0  0  0  0  0
  1  8  1  0
  1 12  4  0
  1 14  4  0
  2  3  4  0
  2 18  4  0
  3 20  4  0
  3 22  4  0
  4 11  4  0
  4 21  4  0
  5  9  4  0
  5 16  4  0
  6 15  4  0
  6 16  4  0
  7 22  4  0
  7 26  4  0
  8 10  4  0
  8 25  4  0
  9 15  4  0
  9 17  1  0
 10 21  4  0
 11 25  4  0
 12 23  4  0
 13 20  4  0
 13 26  4  0
 14 19  4  0
 17 18  4  0
 17 24  4  0
 19 23  4  0
 20 24  4  0
 23 26  1  0
M  END
$$$$

 Created by Python create_sdf_string function

 26 30  0  0  0  0  0  0  0  0999 V2000
   10.0084   -1.8019   23.4945 C   0  0  0  0  0  0  0  0  0  0  0  0
   10.0005   -4.2520   16.5631 C   0  0  0  0  0  0  0  0  0  0  0  0
   10.2759   -4.0036   17.8845 C   0  0  0  0  0  0  0  0  0  0  0  0
    8.5652    1.5478   25.3778 N   0  0  0  0  0  0  0  0  0  0  0  0
    6.8048   -7.5457   17.8752 C   0  0  0  0  0  0  0  0  0  0  0  0
    6.1721   -8.2186   15.9886 N   0  0  0  0  0  0  0  0  0  0  0  0
   11.1764   -2.6600   19.5604 C   0  0  0  0  0  0  0  0  0  0  0  0
    9.5491   -0.6380   24.1912 C   0  0  0  0  0  0  0  0  0  0  0  0
    7.5337   -6.9256   16.9519 C   0  0  0  0  0  0  0  0  0  0  0  0
    9.6782    0.5671   23.5143 C   0  0  0  0  0  0  0  0  0  0  0  0
    8.4532    0.3482   26.0821 C   0  0  0  0  0  0  0  0  0  0  0  0
   10.4239   -1.7677   22.2230 N   0  0  0  0  0  0  0  0  0  0  0  0
    9.9468   -4.5953   20.1709 C   0  0  0  0  0  0  0  0  0  0  0  0
   10.0366   -3.0590   23.9864 N   0  0  0  0  0  0  0  0  0  0  0  0
    7.1191   -7.3636   15.7739 C   0  0  0  0  0  0  0  0  0  0  0  0
    5.9612   -8.3203   17.2732 N   0  0  0  0  0  0  0  0  0  0  0  0
    8.5296   -5.9814   17.1841 C   0  0  0  0  0  0  0  0  0  0  0  0
    9.1527   -5.2118   16.2116 C   0  0  0  0  0  0  0  0  0  0  0  0
   10.3364   -3.8368   22.9255 O   0  0  0  0  0  0  0  0  0  0  0  0
    9.6947   -4.8407   18.8534 C   0  0  0  0  0  0  0  0  0  0  0  0
    9.1596    1.7042   24.1381 C   0  0  0  0  0  0  0  0  0  0  0  0
   11.0456   -2.9774   18.2694 N   0  0  0  0  0  0  0  0  0  0  0  0
   10.4788   -3.0457   21.8593 C   0  0  0  0  0  0  0  0  0  0  0  0
    8.8693   -5.8099   18.4657 N   0  0  0  0  0  0  0  0  0  0  0  0
    8.9892   -0.7926   25.4573 C   0  0  0  0  0  0  0  0  0  0  0  0
   10.5677   -3.4462   20.5323 C   0  0  0  0  0  0  0  0  0  0  0  0
  1  8  1  0
  1 12  4  0
  1 14  4  0
  2  3  4  0
  2 18  4  0
  3 20  4  0
  3 22  4  0
  4 11  4  0
  4 21  4  0
  5  9  4  0
  5 16  4  0
  6 15  4  0
  6 16  4  0
  7 22  4  0
  7 26  4  0
  8 10  4  0
  8 25  4  0
  9 15  4  0
  9 17  1  0
 10 21  4  0
 11 25  4  0
 12 23  4  0
 13 20  4  0
 13 26  4  0
 14 19  4  0
 17 18  4  0
 17 24  4  0
 19 23  4  0
 20 24  4  0
 23 26  1  0
M  END
$$$$

 Created by Python create_sdf_string function

 26 30  0  0  0  0  0  0  0  0999 V2000
   10.0084   -1.8019   23.4945 C   0  0  0  0  0  0  0  0  0  0  0  0
   10.0005   -4.2520   16.5631 C   0  0  0  0  0  0  0  0  0  0  0  0
   10.2759   -4.0036   17.8845 C   0  0  0  0  0  0  0  0  0  0  0  0
    8.5652    1.5478   25.3778 N   0  0  0  0  0  0  0  0  0  0  0  0
    6.8048   -7.5457   17.8752 C   0  0  0  0  0  0  0  0  0  0  0  0
    6.1721   -8.2186   15.9886 N   0  0  0  0  0  0  0  0  0  0  0  0
   11.1764   -2.6600   19.5604 C   0  0  0  0  0  0  0  0  0  0  0  0
    9.5491   -0.6380   24.1912 C   0  0  0  0  0  0  0  0  0  0  0  0
    7.5337   -6.9256   16.9519 C   0  0  0  0  0  0  0  0  0  0  0  0
    9.6782    0.5671   23.5143 C   0  0  0  0  0  0  0  0  0  0  0  0
    8.4532    0.3482   26.0821 C   0  0  0  0  0  0  0  0  0  0  0  0
   10.4239   -1.7677   22.2230 N   0  0  0  0  0  0  0  0  0  0  0  0
    9.9468   -4.5953   20.1709 C   0  0  0  0  0  0  0  0  0  0  0  0
   10.0366   -3.0590   23.9864 N   0  0  0  0  0  0  0  0  0  0  0  0
    7.1191   -7.3636   15.7739 C   0  0  0  0  0  0  0  0  0  0  0  0
    5.9612   -8.3203   17.2732 N   0  0  0  0  0  0  0  0  0  0  0  0
    8.5296   -5.9814   17.1841 C   0  0  0  0  0  0  0  0  0  0  0  0
    9.1527   -5.2118   16.2116 C   0  0  0  0  0  0  0  0  0  0  0  0
   10.3364   -3.8368   22.9255 O   0  0  0  0  0  0  0  0  0  0  0  0
    9.6947   -4.8407   18.8534 C   0  0  0  0  0  0  0  0  0  0  0  0
    9.1596    1.7042   24.1381 C   0  0  0  0  0  0  0  0  0  0  0  0
   11.0456   -2.9774   18.2694 N   0  0  0  0  0  0  0  0  0  0  0  0
   10.4788   -3.0457   21.8593 C   0  0  0  0  0  0  0  0  0  0  0  0
    8.8693   -5.8099   18.4657 N   0  0  0  0  0  0  0  0  0  0  0  0
    8.9892   -0.7926   25.4573 C   0  0  0  0  0  0  0  0  0  0  0  0
   10.5677   -3.4462   20.5323 C   0  0  0  0  0  0  0  0  0  0  0  0
  1  8  1  0
  1 12  4  0
  1 14  4  0
  2  3  4  0
  2 18  4  0
  3 20  4  0
  3 22  4  0
  4 11  4  0
  4 21  4  0
  5  9  4  0
  5 16  4  0
  6 15  4  0
  6 16  4  0
  7 22  4  0
  7 26  4  0
  8 10  4  0
  8 25  4  0
  9 15  4  0
  9 17  1  0
 10 21  4  0
 11 25  4  0
 12 23  4  0
 13 20  4  0
 13 26  4  0
 14 19  4  0
 17 18  4  0
 17 24  4  0
 19 23  4  0
 20 24  4  0
 23 26  1  0
M  END
$$$$

 Created by Python create_sdf_string function

 26 30  0  0  0  0  0  0  0  0999 V2000
   10.0084   -1.8019   23.4945 C   0  0  0  0  0  0  0  0  0  0  0  0
   10.0005   -4.2520   16.5631 C   0  0  0  0  0  0  0  0  0  0  0  0
   10.2759   -4.0036   17.8845 C   0  0  0  0  0  0  0  0  0  0  0  0
    8.5652    1.5478   25.3778 N   0  0  0  0  0  0  0  0  0  0  0  0
    6.8048   -7.5457   17.8752 C   0  0  0  0  0  0  0  0  0  0  0  0
    6.1721   -8.2186   15.9886 N   0  0  0  0  0  0  0  0  0  0  0  0
   11.1764   -2.6600   19.5604 C   0  0  0  0  0  0  0  0  0  0  0  0
    9.5491   -0.6380   24.1912 C   0  0  0  0  0  0  0  0  0  0  0  0
    7.5337   -6.9256   16.9519 C   0  0  0  0  0  0  0  0  0  0  0  0
    9.6782    0.5671   23.5143 C   0  0  0  0  0  0  0  0  0  0  0  0
    8.4532    0.3482   26.0821 C   0  0  0  0  0  0  0  0  0  0  0  0
   10.4239   -1.7677   22.2230 N   0  0  0  0  0  0  0  0  0  0  0  0
    9.9468   -4.5953   20.1709 C   0  0  0  0  0  0  0  0  0  0  0  0
   10.0366   -3.0590   23.9864 N   0  0  0  0  0  0  0  0  0  0  0  0
    7.1191   -7.3636   15.7739 C   0  0  0  0  0  0  0  0  0  0  0  0
    5.9612   -8.3203   17.2732 N   0  0  0  0  0  0  0  0  0  0  0  0
    8.5296   -5.9814   17.1841 C   0  0  0  0  0  0  0  0  0  0  0  0
    9.1527   -5.2118   16.2116 C   0  0  0  0  0  0  0  0  0  0  0  0
   10.3364   -3.8368   22.9255 O   0  0  0  0  0  0  0  0  0  0  0  0
    9.6947   -4.8407   18.8534 C   0  0  0  0  0  0  0  0  0  0  0  0
    9.1596    1.7042   24.1381 C   0  0  0  0  0  0  0  0  0  0  0  0
   11.0456   -2.9774   18.2694 N   0  0  0  0  0  0  0  0  0  0  0  0
   10.4788   -3.0457   21.8593 C   0  0  0  0  0  0  0  0  0  0  0  0
    8.8693   -5.8099   18.4657 N   0  0  0  0  0  0  0  0  0  0  0  0
    8.9892   -0.7926   25.4573 C   0  0  0  0  0  0  0  0  0  0  0  0
   10.5677   -3.4462   20.5323 C   0  0  0  0  0  0  0  0  0  0  0  0
  1  8  1  0
  1 12  4  0
  1 14  4  0
  2  3  4  0
  2 18  4  0
  3 20  4  0
  3 22  4  0
  4 11  4  0
  4 21  4  0
  5  9  4  0
  5 16  4  0
  6 15  4  0
  6 16  4  0
  7 22  4  0
  7 26  4  0
  8 10  4  0
  8 25  4  0
  9 15  4  0
  9 17  1  0
 10 21  4  0
 11 25  4  0
 12 23  4  0
 13 20  4  0
 13 26  4  0
 14 19  4  0
 17 18  4  0
 17 24  4  0
 19 23  4  0
 20 24  4  0
 23 26  1  0
M  END
$$$$

 Created by Python create_sdf_string function

 26 30  0  0  0  0  0  0  0  0999 V2000
   10.0084   -1.8019   23.4945 C   0  0  0  0  0  0  0  0  0  0  0  0
   10.0005   -4.2520   16.5631 C   0  0  0  0  0  0  0  0  0  0  0  0
   10.2759   -4.0036   17.8845 C   0  0  0  0  0  0  0  0  0  0  0  0
    8.5652    1.5478   25.3778 N   0  0  0  0  0  0  0  0  0  0  0  0
    6.8048   -7.5457   17.8752 C   0  0  0  0  0  0  0  0  0  0  0  0
    6.1721   -8.2186   15.9886 N   0  0  0  0  0  0  0  0  0  0  0  0
   11.1764   -2.6600   19.5604 C   0  0  0  0  0  0  0  0  0  0  0  0
    9.5491   -0.6380   24.1912 C   0  0  0  0  0  0  0  0  0  0  0  0
    7.5337   -6.9256   16.9519 C   0  0  0  0  0  0  0  0  0  0  0  0
    9.6782    0.5671   23.5143 C   0  0  0  0  0  0  0  0  0  0  0  0
    8.4532    0.3482   26.0821 C   0  0  0  0  0  0  0  0  0  0  0  0
   10.4239   -1.7677   22.2230 N   0  0  0  0  0  0  0  0  0  0  0  0
    9.9468   -4.5953   20.1709 C   0  0  0  0  0  0  0  0  0  0  0  0
   10.0366   -3.0590   23.9864 N   0  0  0  0  0  0  0  0  0  0  0  0
    7.1191   -7.3636   15.7739 C   0  0  0  0  0  0  0  0  0  0  0  0
    5.9612   -8.3203   17.2732 N   0  0  0  0  0  0  0  0  0  0  0  0
    8.5296   -5.9814   17.1841 C   0  0  0  0  0  0  0  0  0  0  0  0
    9.1527   -5.2118   16.2116 C   0  0  0  0  0  0  0  0  0  0  0  0
   10.3364   -3.8368   22.9255 O   0  0  0  0  0  0  0  0  0  0  0  0
    9.6947   -4.8407   18.8534 C   0  0  0  0  0  0  0  0  0  0  0  0
    9.1596    1.7042   24.1381 C   0  0  0  0  0  0  0  0  0  0  0  0
   11.0456   -2.9774   18.2694 N   0  0  0  0  0  0  0  0  0  0  0  0
   10.4788   -3.0457   21.8593 C   0  0  0  0  0  0  0  0  0  0  0  0
    8.8693   -5.8099   18.4657 N   0  0  0  0  0  0  0  0  0  0  0  0
    8.9892   -0.7926   25.4573 C   0  0  0  0  0  0  0  0  0  0  0  0
   10.5677   -3.4462   20.5323 C   0  0  0  0  0  0  0  0  0  0  0  0
  1  8  1  0
  1 12  4  0
  1 14  4  0
  2  3  4  0
  2 18  4  0
  3 20  4  0
  3 22  4  0
  4 11  4  0
  4 21  4  0
  5  9  4  0
  5 16  4  0
  6 15  4  0
  6 16  4  0
  7 22  4  0
  7 26  4  0
  8 10  4  0
  8 25  4  0
  9 15  4  0
  9 17  1  0
 10 21  4  0
 11 25  4  0
 12 23  4  0
 13 20  4  0
 13 26  4  0
 14 19  4  0
 17 18  4  0
 17 24  4  0
 19 23  4  0
 20 24  4  0
 23 26  1  0
M  END
$$$$

 Created by Python create_sdf_string function

 26 30  0  0  0  0  0  0  0  0999 V2000
   10.0084   -1.8019   23.4945 C   0  0  0  0  0  0  0  0  0  0  0  0
   10.0005   -4.2520   16.5631 C   0  0  0  0  0  0  0  0  0  0  0  0
   10.2759   -4.0036   17.8845 C   0  0  0  0  0  0  0  0  0  0  0  0
    8.5652    1.5478   25.3778 N   0  0  0  0  0  0  0  0  0  0  0  0
    6.8048   -7.5457   17.8752 C   0  0  0  0  0  0  0  0  0  0  0  0
    6.1721   -8.2186   15.9886 N   0  0  0  0  0  0  0  0  0  0  0  0
   11.1764   -2.6600   19.5604 C   0  0  0  0  0  0  0  0  0  0  0  0
    9.5491   -0.6380   24.1912 C   0  0  0  0  0  0  0  0  0  0  0  0
    7.5337   -6.9256   16.9519 C   0  0  0  0  0  0  0  0  0  0  0  0
    9.6782    0.5671   23.5143 C   0  0  0  0  0  0  0  0  0  0  0  0
    8.4532    0.3482   26.0821 C   0  0  0  0  0  0  0  0  0  0  0  0
   10.4239   -1.7677   22.2230 N   0  0  0  0  0  0  0  0  0  0  0  0
    9.9468   -4.5953   20.1709 C   0  0  0  0  0  0  0  0  0  0  0  0
   10.0366   -3.0590   23.9864 N   0  0  0  0  0  0  0  0  0  0  0  0
    7.1191   -7.3636   15.7739 C   0  0  0  0  0  0  0  0  0  0  0  0
    5.9612   -8.3203   17.2732 N   0  0  0  0  0  0  0  0  0  0  0  0
    8.5296   -5.9814   17.1841 C   0  0  0  0  0  0  0  0  0  0  0  0
    9.1527   -5.2118   16.2116 C   0  0  0  0  0  0  0  0  0  0  0  0
   10.3364   -3.8368   22.9255 O   0  0  0  0  0  0  0  0  0  0  0  0
    9.6947   -4.8407   18.8534 C   0  0  0  0  0  0  0  0  0  0  0  0
    9.1596    1.7042   24.1381 C   0  0  0  0  0  0  0  0  0  0  0  0
   11.0456   -2.9774   18.2694 N   0  0  0  0  0  0  0  0  0  0  0  0
   10.4788   -3.0457   21.8593 C   0  0  0  0  0  0  0  0  0  0  0  0
    8.8693   -5.8099   18.4657 N   0  0  0  0  0  0  0  0  0  0  0  0
    8.9892   -0.7926   25.4573 C   0  0  0  0  0  0  0  0  0  0  0  0
   10.5677   -3.4462   20.5323 C   0  0  0  0  0  0  0  0  0  0  0  0
  1  8  1  0
  1 12  4  0
  1 14  4  0
  2  3  4  0
  2 18  4  0
  3 20  4  0
  3 22  4  0
  4 11  4  0
  4 21  4  0
  5  9  4  0
  5 16  4  0
  6 15  4  0
  6 16  4  0
  7 22  4  0
  7 26  4  0
  8 10  4  0
  8 25  4  0
  9 15  4  0
  9 17  1  0
 10 21  4  0
 11 25  4  0
 12 23  4  0
 13 20  4  0
 13 26  4  0
 14 19  4  0
 17 18  4  0
 17 24  4  0
 19 23  4  0
 20 24  4  0
 23 26  1  0
M  END
$$$$

 Created by Python create_sdf_string function

 26 30  0  0  0  0  0  0  0  0999 V2000
   10.0084   -1.8019   23.4945 C   0  0  0  0  0  0  0  0  0  0  0  0
   10.0005   -4.2520   16.5631 C   0  0  0  0  0  0  0  0  0  0  0  0
   10.2759   -4.0036   17.8845 C   0  0  0  0  0  0  0  0  0  0  0  0
    8.5652    1.5478   25.3778 N   0  0  0  0  0  0  0  0  0  0  0  0
    6.8048   -7.5457   17.8752 C   0  0  0  0  0  0  0  0  0  0  0  0
    6.1721   -8.2186   15.9886 N   0  0  0  0  0  0  0  0  0  0  0  0
   11.1764   -2.6600   19.5604 C   0  0  0  0  0  0  0  0  0  0  0  0
    9.5491   -0.6380   24.1912 C   0  0  0  0  0  0  0  0  0  0  0  0
    7.5337   -6.9256   16.9519 C   0  0  0  0  0  0  0  0  0  0  0  0
    9.6782    0.5671   23.5143 C   0  0  0  0  0  0  0  0  0  0  0  0
    8.4532    0.3482   26.0821 C   0  0  0  0  0  0  0  0  0  0  0  0
   10.4239   -1.7677   22.2230 N   0  0  0  0  0  0  0  0  0  0  0  0
    9.9468   -4.5953   20.1709 C   0  0  0  0  0  0  0  0  0  0  0  0
   10.0366   -3.0590   23.9864 N   0  0  0  0  0  0  0  0  0  0  0  0
    7.1191   -7.3636   15.7739 C   0  0  0  0  0  0  0  0  0  0  0  0
    5.9612   -8.3203   17.2732 N   0  0  0  0  0  0  0  0  0  0  0  0
    8.5296   -5.9814   17.1841 C   0  0  0  0  0  0  0  0  0  0  0  0
    9.1527   -5.2118   16.2116 C   0  0  0  0  0  0  0  0  0  0  0  0
   10.3364   -3.8368   22.9255 O   0  0  0  0  0  0  0  0  0  0  0  0
    9.6947   -4.8407   18.8534 C   0  0  0  0  0  0  0  0  0  0  0  0
    9.1596    1.7042   24.1381 C   0  0  0  0  0  0  0  0  0  0  0  0
   11.0456   -2.9774   18.2694 N   0  0  0  0  0  0  0  0  0  0  0  0
   10.4788   -3.0457   21.8593 C   0  0  0  0  0  0  0  0  0  0  0  0
    8.8693   -5.8099   18.4657 N   0  0  0  0  0  0  0  0  0  0  0  0
    8.9892   -0.7926   25.4573 C   0  0  0  0  0  0  0  0  0  0  0  0
   10.5677   -3.4462   20.5323 C   0  0  0  0  0  0  0  0  0  0  0  0
  1  8  1  0
  1 12  4  0
  1 14  4  0
  2  3  4  0
  2 18  4  0
  3 20  4  0
  3 22  4  0
  4 11  4  0
  4 21  4  0
  5  9  4  0
  5 16  4  0
  6 15  4  0
  6 16  4  0
  7 22  4  0
  7 26  4  0
  8 10  4  0
  8 25  4  0
  9 15  4  0
  9 17  1  0
 10 21  4  0
 11 25  4  0
 12 23  4  0
 13 20  4  0
 13 26  4  0
 14 19  4  0
 17 18  4  0
 17 24  4  0
 19 23  4  0
 20 24  4  0
 23 26  1  0
M  END
$$$$

 Created by Python create_sdf_string function

 26 30  0  0  0  0  0  0  0  0999 V2000
   10.0084   -1.8019   23.4945 C   0  0  0  0  0  0  0  0  0  0  0  0
   10.0005   -4.2520   16.5631 C   0  0  0  0  0  0  0  0  0  0  0  0
   10.2759   -4.0036   17.8845 C   0  0  0  0  0  0  0  0  0  0  0  0
    8.5652    1.5478   25.3778 N   0  0  0  0  0  0  0  0  0  0  0  0
    6.8048   -7.5457   17.8752 C   0  0  0  0  0  0  0  0  0  0  0  0
    6.1721   -8.2186   15.9886 N   0  0  0  0  0  0  0  0  0  0  0  0
   11.1764   -2.6600   19.5604 C   0  0  0  0  0  0  0  0  0  0  0  0
    9.5491   -0.6380   24.1912 C   0  0  0  0  0  0  0  0  0  0  0  0
    7.5337   -6.9256   16.9519 C   0  0  0  0  0  0  0  0  0  0  0  0
    9.6782    0.5671   23.5143 C   0  0  0  0  0  0  0  0  0  0  0  0
    8.4532    0.3482   26.0821 C   0  0  0  0  0  0  0  0  0  0  0  0
   10.4239   -1.7677   22.2230 N   0  0  0  0  0  0  0  0  0  0  0  0
    9.9468   -4.5953   20.1709 C   0  0  0  0  0  0  0  0  0  0  0  0
   10.0366   -3.0590   23.9864 N   0  0  0  0  0  0  0  0  0  0  0  0
    7.1191   -7.3636   15.7739 C   0  0  0  0  0  0  0  0  0  0  0  0
    5.9612   -8.3203   17.2732 N   0  0  0  0  0  0  0  0  0  0  0  0
    8.5296   -5.9814   17.1841 C   0  0  0  0  0  0  0  0  0  0  0  0
    9.1527   -5.2118   16.2116 C   0  0  0  0  0  0  0  0  0  0  0  0
   10.3364   -3.8368   22.9255 O   0  0  0  0  0  0  0  0  0  0  0  0
    9.6947   -4.8407   18.8534 C   0  0  0  0  0  0  0  0  0  0  0  0
    9.1596    1.7042   24.1381 C   0  0  0  0  0  0  0  0  0  0  0  0
   11.0456   -2.9774   18.2694 N   0  0  0  0  0  0  0  0  0  0  0  0
   10.4788   -3.0457   21.8593 C   0  0  0  0  0  0  0  0  0  0  0  0
    8.8693   -5.8099   18.4657 N   0  0  0  0  0  0  0  0  0  0  0  0
    8.9892   -0.7926   25.4573 C   0  0  0  0  0  0  0  0  0  0  0  0
   10.5677   -3.4462   20.5323 C   0  0  0  0  0  0  0  0  0  0  0  0
  1  8  1  0
  1 12  4  0
  1 14  4  0
  2  3  4  0
  2 18  4  0
  3 20  4  0
  3 22  4  0
  4 11  4  0
  4 21  4  0
  5  9  4  0
  5 16  4  0
  6 15  4  0
  6 16  4  0
  7 22  4  0
  7 26  4  0
  8 10  4  0
  8 25  4  0
  9 15  4  0
  9 17  1  0
 10 21  4  0
 11 25  4  0
 12 23  4  0
 13 20  4  0
 13 26  4  0
 14 19  4  0
 17 18  4  0
 17 24  4  0
 19 23  4  0
 20 24  4  0
 23 26  1  0
M  END
$$$$

 Created by Python create_sdf_string function

 26 30  0  0  0  0  0  0  0  0999 V2000
   10.0084   -1.8019   23.4945 C   0  0  0  0  0  0  0  0  0  0  0  0
   10.0005   -4.2520   16.5631 C   0  0  0  0  0  0  0  0  0  0  0  0
   10.2759   -4.0036   17.8845 C   0  0  0  0  0  0  0  0  0  0  0  0
    8.5652    1.5478   25.3778 N   0  0  0  0  0  0  0  0  0  0  0  0
    6.8048   -7.5457   17.8752 C   0  0  0  0  0  0  0  0  0  0  0  0
    6.1721   -8.2186   15.9886 N   0  0  0  0  0  0  0  0  0  0  0  0
   11.1764   -2.6600   19.5604 C   0  0  0  0  0  0  0  0  0  0  0  0
    9.5491   -0.6380   24.1912 C   0  0  0  0  0  0  0  0  0  0  0  0
    7.5337   -6.9256   16.9519 C   0  0  0  0  0  0  0  0  0  0  0  0
    9.6782    0.5671   23.5143 C   0  0  0  0  0  0  0  0  0  0  0  0
    8.4532    0.3482   26.0821 C   0  0  0  0  0  0  0  0  0  0  0  0
   10.4239   -1.7677   22.2230 N   0  0  0  0  0  0  0  0  0  0  0  0
    9.9468   -4.5953   20.1709 C   0  0  0  0  0  0  0  0  0  0  0  0
   10.0366   -3.0590   23.9864 N   0  0  0  0  0  0  0  0  0  0  0  0
    7.1191   -7.3636   15.7739 C   0  0  0  0  0  0  0  0  0  0  0  0
    5.9612   -8.3203   17.2732 N   0  0  0  0  0  0  0  0  0  0  0  0
    8.5296   -5.9814   17.1841 C   0  0  0  0  0  0  0  0  0  0  0  0
    9.1527   -5.2118   16.2116 C   0  0  0  0  0  0  0  0  0  0  0  0
   10.3364   -3.8368   22.9255 O   0  0  0  0  0  0  0  0  0  0  0  0
    9.6947   -4.8407   18.8534 C   0  0  0  0  0  0  0  0  0  0  0  0
    9.1596    1.7042   24.1381 C   0  0  0  0  0  0  0  0  0  0  0  0
   11.0456   -2.9774   18.2694 N   0  0  0  0  0  0  0  0  0  0  0  0
   10.4788   -3.0457   21.8593 C   0  0  0  0  0  0  0  0  0  0  0  0
    8.8693   -5.8099   18.4657 N   0  0  0  0  0  0  0  0  0  0  0  0
    8.9892   -0.7926   25.4573 C   0  0  0  0  0  0  0  0  0  0  0  0
   10.5677   -3.4462   20.5323 C   0  0  0  0  0  0  0  0  0  0  0  0
  1  8  1  0
  1 12  4  0
  1 14  4  0
  2  3  4  0
  2 18  4  0
  3 20  4  0
  3 22  4  0
  4 11  4  0
  4 21  4  0
  5  9  4  0
  5 16  4  0
  6 15  4  0
  6 16  4  0
  7 22  4  0
  7 26  4  0
  8 10  4  0
  8 25  4  0
  9 15  4  0
  9 17  1  0
 10 21  4  0
 11 25  4  0
 12 23  4  0
 13 20  4  0
 13 26  4  0
 14 19  4  0
 17 18  4  0
 17 24  4  0
 19 23  4  0
 20 24  4  0
 23 26  1  0
M  END
$$$$

 Created by Python create_sdf_string function

 26 30  0  0  0  0  0  0  0  0999 V2000
   10.0084   -1.8019   23.4945 C   0  0  0  0  0  0  0  0  0  0  0  0
   10.0005   -4.2520   16.5631 C   0  0  0  0  0  0  0  0  0  0  0  0
   10.2759   -4.0036   17.8845 C   0  0  0  0  0  0  0  0  0  0  0  0
    8.5652    1.5478   25.3778 N   0  0  0  0  0  0  0  0  0  0  0  0
    6.8048   -7.5457   17.8752 C   0  0  0  0  0  0  0  0  0  0  0  0
    6.1721   -8.2186   15.9886 N   0  0  0  0  0  0  0  0  0  0  0  0
   11.1764   -2.6600   19.5604 C   0  0  0  0  0  0  0  0  0  0  0  0
    9.5491   -0.6380   24.1912 C   0  0  0  0  0  0  0  0  0  0  0  0
    7.5337   -6.9256   16.9519 C   0  0  0  0  0  0  0  0  0  0  0  0
    9.6782    0.5671   23.5143 C   0  0  0  0  0  0  0  0  0  0  0  0
    8.4532    0.3482   26.0821 C   0  0  0  0  0  0  0  0  0  0  0  0
   10.4239   -1.7677   22.2230 N   0  0  0  0  0  0  0  0  0  0  0  0
    9.9468   -4.5953   20.1709 C   0  0  0  0  0  0  0  0  0  0  0  0
   10.0366   -3.0590   23.9864 N   0  0  0  0  0  0  0  0  0  0  0  0
    7.1191   -7.3636   15.7739 C   0  0  0  0  0  0  0  0  0  0  0  0
    5.9612   -8.3203   17.2732 N   0  0  0  0  0  0  0  0  0  0  0  0
    8.5296   -5.9814   17.1841 C   0  0  0  0  0  0  0  0  0  0  0  0
    9.1527   -5.2118   16.2116 C   0  0  0  0  0  0  0  0  0  0  0  0
   10.3364   -3.8368   22.9255 O   0  0  0  0  0  0  0  0  0  0  0  0
    9.6947   -4.8407   18.8534 C   0  0  0  0  0  0  0  0  0  0  0  0
    9.1596    1.7042   24.1381 C   0  0  0  0  0  0  0  0  0  0  0  0
   11.0456   -2.9774   18.2694 N   0  0  0  0  0  0  0  0  0  0  0  0
   10.4788   -3.0457   21.8593 C   0  0  0  0  0  0  0  0  0  0  0  0
    8.8693   -5.8099   18.4657 N   0  0  0  0  0  0  0  0  0  0  0  0
    8.9892   -0.7926   25.4573 C   0  0  0  0  0  0  0  0  0  0  0  0
   10.5677   -3.4462   20.5323 C   0  0  0  0  0  0  0  0  0  0  0  0
  1  8  1  0
  1 12  4  0
  1 14  4  0
  2  3  4  0
  2 18  4  0
  3 20  4  0
  3 22  4  0
  4 11  4  0
  4 21  4  0
  5  9  4  0
  5 16  4  0
  6 15  4  0
  6 16  4  0
  7 22  4  0
  7 26  4  0
  8 10  4  0
  8 25  4  0
  9 15  4  0
  9 17  1  0
 10 21  4  0
 11 25  4  0
 12 23  4  0
 13 20  4  0
 13 26  4  0
 14 19  4  0
 17 18  4  0
 17 24  4  0
 19 23  4  0
 20 24  4  0
 23 26  1  0
M  END
$$$$

 Created by Python create_sdf_string function

 26 30  0  0  0  0  0  0  0  0999 V2000
   10.0084   -1.8019   23.4945 C   0  0  0  0  0  0  0  0  0  0  0  0
   10.0005   -4.2520   16.5631 C   0  0  0  0  0  0  0  0  0  0  0  0
   10.2759   -4.0036   17.8845 C   0  0  0  0  0  0  0  0  0  0  0  0
    8.5652    1.5478   25.3778 N   0  0  0  0  0  0  0  0  0  0  0  0
    6.8048   -7.5457   17.8752 C   0  0  0  0  0  0  0  0  0  0  0  0
    6.1721   -8.2186   15.9886 N   0  0  0  0  0  0  0  0  0  0  0  0
   11.1764   -2.6600   19.5604 C   0  0  0  0  0  0  0  0  0  0  0  0
    9.5491   -0.6380   24.1912 C   0  0  0  0  0  0  0  0  0  0  0  0
    7.5337   -6.9256   16.9519 C   0  0  0  0  0  0  0  0  0  0  0  0
    9.6782    0.5671   23.5143 C   0  0  0  0  0  0  0  0  0  0  0  0
    8.4532    0.3482   26.0821 C   0  0  0  0  0  0  0  0  0  0  0  0
   10.4239   -1.7677   22.2230 N   0  0  0  0  0  0  0  0  0  0  0  0
    9.9468   -4.5953   20.1709 C   0  0  0  0  0  0  0  0  0  0  0  0
   10.0366   -3.0590   23.9864 N   0  0  0  0  0  0  0  0  0  0  0  0
    7.1191   -7.3636   15.7739 C   0  0  0  0  0  0  0  0  0  0  0  0
    5.9612   -8.3203   17.2732 N   0  0  0  0  0  0  0  0  0  0  0  0
    8.5296   -5.9814   17.1841 C   0  0  0  0  0  0  0  0  0  0  0  0
    9.1527   -5.2118   16.2116 C   0  0  0  0  0  0  0  0  0  0  0  0
   10.3364   -3.8368   22.9255 O   0  0  0  0  0  0  0  0  0  0  0  0
    9.6947   -4.8407   18.8534 C   0  0  0  0  0  0  0  0  0  0  0  0
    9.1596    1.7042   24.1381 C   0  0  0  0  0  0  0  0  0  0  0  0
   11.0456   -2.9774   18.2694 N   0  0  0  0  0  0  0  0  0  0  0  0
   10.4788   -3.0457   21.8593 C   0  0  0  0  0  0  0  0  0  0  0  0
    8.8693   -5.8099   18.4657 N   0  0  0  0  0  0  0  0  0  0  0  0
    8.9892   -0.7926   25.4573 C   0  0  0  0  0  0  0  0  0  0  0  0
   10.5677   -3.4462   20.5323 C   0  0  0  0  0  0  0  0  0  0  0  0
  1  8  1  0
  1 12  4  0
  1 14  4  0
  2  3  4  0
  2 18  4  0
  3 20  4  0
  3 22  4  0
  4 11  4  0
  4 21  4  0
  5  9  4  0
  5 16  4  0
  6 15  4  0
  6 16  4  0
  7 22  4  0
  7 26  4  0
  8 10  4  0
  8 25  4  0
  9 15  4  0
  9 17  1  0
 10 21  4  0
 11 25  4  0
 12 23  4  0
 13 20  4  0
 13 26  4  0
 14 19  4  0
 17 18  4  0
 17 24  4  0
 19 23  4  0
 20 24  4  0
 23 26  1  0
M  END
$$$$

 Created by Python create_sdf_string function

 26 30  0  0  0  0  0  0  0  0999 V2000
   10.0084   -1.8019   23.4945 C   0  0  0  0  0  0  0  0  0  0  0  0
   10.0005   -4.2520   16.5631 C   0  0  0  0  0  0  0  0  0  0  0  0
   10.2759   -4.0036   17.8845 C   0  0  0  0  0  0  0  0  0  0  0  0
    8.5652    1.5478   25.3778 N   0  0  0  0  0  0  0  0  0  0  0  0
    6.8048   -7.5457   17.8752 C   0  0  0  0  0  0  0  0  0  0  0  0
    6.1721   -8.2186   15.9886 N   0  0  0  0  0  0  0  0  0  0  0  0
   11.1764   -2.6600   19.5604 C   0  0  0  0  0  0  0  0  0  0  0  0
    9.5491   -0.6380   24.1912 C   0  0  0  0  0  0  0  0  0  0  0  0
    7.5337   -6.9256   16.9519 C   0  0  0  0  0  0  0  0  0  0  0  0
    9.6782    0.5671   23.5143 C   0  0  0  0  0  0  0  0  0  0  0  0
    8.4532    0.3482   26.0821 C   0  0  0  0  0  0  0  0  0  0  0  0
   10.4239   -1.7677   22.2230 N   0  0  0  0  0  0  0  0  0  0  0  0
    9.9468   -4.5953   20.1709 C   0  0  0  0  0  0  0  0  0  0  0  0
   10.0366   -3.0590   23.9864 N   0  0  0  0  0  0  0  0  0  0  0  0
    7.1191   -7.3636   15.7739 C   0  0  0  0  0  0  0  0  0  0  0  0
    5.9612   -8.3203   17.2732 N   0  0  0  0  0  0  0  0  0  0  0  0
    8.5296   -5.9814   17.1841 C   0  0  0  0  0  0  0  0  0  0  0  0
    9.1527   -5.2118   16.2116 C   0  0  0  0  0  0  0  0  0  0  0  0
   10.3364   -3.8368   22.9255 O   0  0  0  0  0  0  0  0  0  0  0  0
    9.6947   -4.8407   18.8534 C   0  0  0  0  0  0  0  0  0  0  0  0
    9.1596    1.7042   24.1381 C   0  0  0  0  0  0  0  0  0  0  0  0
   11.0456   -2.9774   18.2694 N   0  0  0  0  0  0  0  0  0  0  0  0
   10.4788   -3.0457   21.8593 C   0  0  0  0  0  0  0  0  0  0  0  0
    8.8693   -5.8099   18.4657 N   0  0  0  0  0  0  0  0  0  0  0  0
    8.9892   -0.7926   25.4573 C   0  0  0  0  0  0  0  0  0  0  0  0
   10.5677   -3.4462   20.5323 C   0  0  0  0  0  0  0  0  0  0  0  0
  1  8  1  0
  1 12  4  0
  1 14  4  0
  2  3  4  0
  2 18  4  0
  3 20  4  0
  3 22  4  0
  4 11  4  0
  4 21  4  0
  5  9  4  0
  5 16  4  0
  6 15  4  0
  6 16  4  0
  7 22  4  0
  7 26  4  0
  8 10  4  0
  8 25  4  0
  9 15  4  0
  9 17  1  0
 10 21  4  0
 11 25  4  0
 12 23  4  0
 13 20  4  0
 13 26  4  0
 14 19  4  0
 17 18  4  0
 17 24  4  0
 19 23  4  0
 20 24  4  0
 23 26  1  0
M  END
$$$$

 Created by Python create_sdf_string function

 26 30  0  0  0  0  0  0  0  0999 V2000
   10.0084   -1.8019   23.4945 C   0  0  0  0  0  0  0  0  0  0  0  0
   10.0005   -4.2520   16.5631 C   0  0  0  0  0  0  0  0  0  0  0  0
   10.2759   -4.0036   17.8845 C   0  0  0  0  0  0  0  0  0  0  0  0
    8.5652    1.5478   25.3778 N   0  0  0  0  0  0  0  0  0  0  0  0
    6.8048   -7.5457   17.8752 C   0  0  0  0  0  0  0  0  0  0  0  0
    6.1721   -8.2186   15.9886 N   0  0  0  0  0  0  0  0  0  0  0  0
   11.1764   -2.6600   19.5604 C   0  0  0  0  0  0  0  0  0  0  0  0
    9.5491   -0.6380   24.1912 C   0  0  0  0  0  0  0  0  0  0  0  0
    7.5337   -6.9256   16.9519 C   0  0  0  0  0  0  0  0  0  0  0  0
    9.6782    0.5671   23.5143 C   0  0  0  0  0  0  0  0  0  0  0  0
    8.4532    0.3482   26.0821 C   0  0  0  0  0  0  0  0  0  0  0  0
   10.4239   -1.7677   22.2230 N   0  0  0  0  0  0  0  0  0  0  0  0
    9.9468   -4.5953   20.1709 C   0  0  0  0  0  0  0  0  0  0  0  0
   10.0366   -3.0590   23.9864 N   0  0  0  0  0  0  0  0  0  0  0  0
    7.1191   -7.3636   15.7739 C   0  0  0  0  0  0  0  0  0  0  0  0
    5.9612   -8.3203   17.2732 N   0  0  0  0  0  0  0  0  0  0  0  0
    8.5296   -5.9814   17.1841 C   0  0  0  0  0  0  0  0  0  0  0  0
    9.1527   -5.2118   16.2116 C   0  0  0  0  0  0  0  0  0  0  0  0
   10.3364   -3.8368   22.9255 O   0  0  0  0  0  0  0  0  0  0  0  0
    9.6947   -4.8407   18.8534 C   0  0  0  0  0  0  0  0  0  0  0  0
    9.1596    1.7042   24.1381 C   0  0  0  0  0  0  0  0  0  0  0  0
   11.0456   -2.9774   18.2694 N   0  0  0  0  0  0  0  0  0  0  0  0
   10.4788   -3.0457   21.8593 C   0  0  0  0  0  0  0  0  0  0  0  0
    8.8693   -5.8099   18.4657 N   0  0  0  0  0  0  0  0  0  0  0  0
    8.9892   -0.7926   25.4573 C   0  0  0  0  0  0  0  0  0  0  0  0
   10.5677   -3.4462   20.5323 C   0  0  0  0  0  0  0  0  0  0  0  0
  1  8  1  0
  1 12  4  0
  1 14  4  0
  2  3  4  0
  2 18  4  0
  3 20  4  0
  3 22  4  0
  4 11  4  0
  4 21  4  0
  5  9  4  0
  5 16  4  0
  6 15  4  0
  6 16  4  0
  7 22  4  0
  7 26  4  0
  8 10  4  0
  8 25  4  0
  9 15  4  0
  9 17  1  0
 10 21  4  0
 11 25  4  0
 12 23  4  0
 13 20  4  0
 13 26  4  0
 14 19  4  0
 17 18  4  0
 17 24  4  0
 19 23  4  0
 20 24  4  0
 23 26  1  0
M  END
$$$$

 Created by Python create_sdf_string function

 26 30  0  0  0  0  0  0  0  0999 V2000
   10.0084   -1.8019   23.4945 C   0  0  0  0  0  0  0  0  0  0  0  0
   10.0005   -4.2520   16.5631 C   0  0  0  0  0  0  0  0  0  0  0  0
   10.2759   -4.0036   17.8845 C   0  0  0  0  0  0  0  0  0  0  0  0
    8.5652    1.5478   25.3778 N   0  0  0  0  0  0  0  0  0  0  0  0
    6.8048   -7.5457   17.8752 C   0  0  0  0  0  0  0  0  0  0  0  0
    6.1721   -8.2186   15.9886 N   0  0  0  0  0  0  0  0  0  0  0  0
   11.1764   -2.6600   19.5604 C   0  0  0  0  0  0  0  0  0  0  0  0
    9.5491   -0.6380   24.1912 C   0  0  0  0  0  0  0  0  0  0  0  0
    7.5337   -6.9256   16.9519 C   0  0  0  0  0  0  0  0  0  0  0  0
    9.6782    0.5671   23.5143 C   0  0  0  0  0  0  0  0  0  0  0  0
    8.4532    0.3482   26.0821 C   0  0  0  0  0  0  0  0  0  0  0  0
   10.4239   -1.7677   22.2230 N   0  0  0  0  0  0  0  0  0  0  0  0
    9.9468   -4.5953   20.1709 C   0  0  0  0  0  0  0  0  0  0  0  0
   10.0366   -3.0590   23.9864 N   0  0  0  0  0  0  0  0  0  0  0  0
    7.1191   -7.3636   15.7739 C   0  0  0  0  0  0  0  0  0  0  0  0
    5.9612   -8.3203   17.2732 N   0  0  0  0  0  0  0  0  0  0  0  0
    8.5296   -5.9814   17.1841 C   0  0  0  0  0  0  0  0  0  0  0  0
    9.1527   -5.2118   16.2116 C   0  0  0  0  0  0  0  0  0  0  0  0
   10.3364   -3.8368   22.9255 O   0  0  0  0  0  0  0  0  0  0  0  0
    9.6947   -4.8407   18.8534 C   0  0  0  0  0  0  0  0  0  0  0  0
    9.1596    1.7042   24.1381 C   0  0  0  0  0  0  0  0  0  0  0  0
   11.0456   -2.9774   18.2694 N   0  0  0  0  0  0  0  0  0  0  0  0
   10.4788   -3.0457   21.8593 C   0  0  0  0  0  0  0  0  0  0  0  0
    8.8693   -5.8099   18.4657 N   0  0  0  0  0  0  0  0  0  0  0  0
    8.9892   -0.7926   25.4573 C   0  0  0  0  0  0  0  0  0  0  0  0
   10.5677   -3.4462   20.5323 C   0  0  0  0  0  0  0  0  0  0  0  0
  1  8  1  0
  1 12  4  0
  1 14  4  0
  2  3  4  0
  2 18  4  0
  3 20  4  0
  3 22  4  0
  4 11  4  0
  4 21  4  0
  5  9  4  0
  5 16  4  0
  6 15  4  0
  6 16  4  0
  7 22  4  0
  7 26  4  0
  8 10  4  0
  8 25  4  0
  9 15  4  0
  9 17  1  0
 10 21  4  0
 11 25  4  0
 12 23  4  0
 13 20  4  0
 13 26  4  0
 14 19  4  0
 17 18  4  0
 17 24  4  0
 19 23  4  0
 20 24  4  0
 23 26  1  0
M  END
$$$$

 Created by Python create_sdf_string function

 26 30  0  0  0  0  0  0  0  0999 V2000
   10.0084   -1.8019   23.4945 C   0  0  0  0  0  0  0  0  0  0  0  0
   10.0005   -4.2520   16.5631 C   0  0  0  0  0  0  0  0  0  0  0  0
   10.2759   -4.0036   17.8845 C   0  0  0  0  0  0  0  0  0  0  0  0
    8.5652    1.5478   25.3778 N   0  0  0  0  0  0  0  0  0  0  0  0
    6.8048   -7.5457   17.8752 C   0  0  0  0  0  0  0  0  0  0  0  0
    6.1721   -8.2186   15.9886 N   0  0  0  0  0  0  0  0  0  0  0  0
   11.1764   -2.6600   19.5604 C   0  0  0  0  0  0  0  0  0  0  0  0
    9.5491   -0.6380   24.1912 C   0  0  0  0  0  0  0  0  0  0  0  0
    7.5337   -6.9256   16.9519 C   0  0  0  0  0  0  0  0  0  0  0  0
    9.6782    0.5671   23.5143 C   0  0  0  0  0  0  0  0  0  0  0  0
    8.4532    0.3482   26.0821 C   0  0  0  0  0  0  0  0  0  0  0  0
   10.4239   -1.7677   22.2230 N   0  0  0  0  0  0  0  0  0  0  0  0
    9.9468   -4.5953   20.1709 C   0  0  0  0  0  0  0  0  0  0  0  0
   10.0366   -3.0590   23.9864 N   0  0  0  0  0  0  0  0  0  0  0  0
    7.1191   -7.3636   15.7739 C   0  0  0  0  0  0  0  0  0  0  0  0
    5.9612   -8.3203   17.2732 N   0  0  0  0  0  0  0  0  0  0  0  0
    8.5296   -5.9814   17.1841 C   0  0  0  0  0  0  0  0  0  0  0  0
    9.1527   -5.2118   16.2116 C   0  0  0  0  0  0  0  0  0  0  0  0
   10.3364   -3.8368   22.9255 O   0  0  0  0  0  0  0  0  0  0  0  0
    9.6947   -4.8407   18.8534 C   0  0  0  0  0  0  0  0  0  0  0  0
    9.1596    1.7042   24.1381 C   0  0  0  0  0  0  0  0  0  0  0  0
   11.0456   -2.9774   18.2694 N   0  0  0  0  0  0  0  0  0  0  0  0
   10.4788   -3.0457   21.8593 C   0  0  0  0  0  0  0  0  0  0  0  0
    8.8693   -5.8099   18.4657 N   0  0  0  0  0  0  0  0  0  0  0  0
    8.9892   -0.7926   25.4573 C   0  0  0  0  0  0  0  0  0  0  0  0
   10.5677   -3.4462   20.5323 C   0  0  0  0  0  0  0  0  0  0  0  0
  1  8  1  0
  1 12  4  0
  1 14  4  0
  2  3  4  0
  2 18  4  0
  3 20  4  0
  3 22  4  0
  4 11  4  0
  4 21  4  0
  5  9  4  0
  5 16  4  0
  6 15  4  0
  6 16  4  0
  7 22  4  0
  7 26  4  0
  8 10  4  0
  8 25  4  0
  9 15  4  0
  9 17  1  0
 10 21  4  0
 11 25  4  0
 12 23  4  0
 13 20  4  0
 13 26  4  0
 14 19  4  0
 17 18  4  0
 17 24  4  0
 19 23  4  0
 20 24  4  0
 23 26  1  0
M  END
$$$$

 Created by Python create_sdf_string function

 26 30  0  0  0  0  0  0  0  0999 V2000
   10.0084   -1.8019   23.4945 C   0  0  0  0  0  0  0  0  0  0  0  0
   10.0005   -4.2520   16.5631 C   0  0  0  0  0  0  0  0  0  0  0  0
   10.2759   -4.0036   17.8845 C   0  0  0  0  0  0  0  0  0  0  0  0
    8.5652    1.5478   25.3778 N   0  0  0  0  0  0  0  0  0  0  0  0
    6.8048   -7.5457   17.8752 C   0  0  0  0  0  0  0  0  0  0  0  0
    6.1721   -8.2186   15.9886 N   0  0  0  0  0  0  0  0  0  0  0  0
   11.1764   -2.6600   19.5604 C   0  0  0  0  0  0  0  0  0  0  0  0
    9.5491   -0.6380   24.1912 C   0  0  0  0  0  0  0  0  0  0  0  0
    7.5337   -6.9256   16.9519 C   0  0  0  0  0  0  0  0  0  0  0  0
    9.6782    0.5671   23.5143 C   0  0  0  0  0  0  0  0  0  0  0  0
    8.4532    0.3482   26.0821 C   0  0  0  0  0  0  0  0  0  0  0  0
   10.4239   -1.7677   22.2230 N   0  0  0  0  0  0  0  0  0  0  0  0
    9.9468   -4.5953   20.1709 C   0  0  0  0  0  0  0  0  0  0  0  0
   10.0366   -3.0590   23.9864 N   0  0  0  0  0  0  0  0  0  0  0  0
    7.1191   -7.3636   15.7739 C   0  0  0  0  0  0  0  0  0  0  0  0
    5.9612   -8.3203   17.2732 N   0  0  0  0  0  0  0  0  0  0  0  0
    8.5296   -5.9814   17.1841 C   0  0  0  0  0  0  0  0  0  0  0  0
    9.1527   -5.2118   16.2116 C   0  0  0  0  0  0  0  0  0  0  0  0
   10.3364   -3.8368   22.9255 O   0  0  0  0  0  0  0  0  0  0  0  0
    9.6947   -4.8407   18.8534 C   0  0  0  0  0  0  0  0  0  0  0  0
    9.1596    1.7042   24.1381 C   0  0  0  0  0  0  0  0  0  0  0  0
   11.0456   -2.9774   18.2694 N   0  0  0  0  0  0  0  0  0  0  0  0
   10.4788   -3.0457   21.8593 C   0  0  0  0  0  0  0  0  0  0  0  0
    8.8693   -5.8099   18.4657 N   0  0  0  0  0  0  0  0  0  0  0  0
    8.9892   -0.7926   25.4573 C   0  0  0  0  0  0  0  0  0  0  0  0
   10.5677   -3.4462   20.5323 C   0  0  0  0  0  0  0  0  0  0  0  0
  1  8  1  0
  1 12  4  0
  1 14  4  0
  2  3  4  0
  2 18  4  0
  3 20  4  0
  3 22  4  0
  4 11  4  0
  4 21  4  0
  5  9  4  0
  5 16  4  0
  6 15  4  0
  6 16  4  0
  7 22  4  0
  7 26  4  0
  8 10  4  0
  8 25  4  0
  9 15  4  0
  9 17  1  0
 10 21  4  0
 11 25  4  0
 12 23  4  0
 13 20  4  0
 13 26  4  0
 14 19  4  0
 17 18  4  0
 17 24  4  0
 19 23  4  0
 20 24  4  0
 23 26  1  0
M  END
$$$$

 Created by Python create_sdf_string function

 26 30  0  0  0  0  0  0  0  0999 V2000
   10.0084   -1.8019   23.4945 C   0  0  0  0  0  0  0  0  0  0  0  0
   10.0005   -4.2520   16.5631 C   0  0  0  0  0  0  0  0  0  0  0  0
   10.2759   -4.0036   17.8845 C   0  0  0  0  0  0  0  0  0  0  0  0
    8.5652    1.5478   25.3778 N   0  0  0  0  0  0  0  0  0  0  0  0
    6.8048   -7.5457   17.8752 C   0  0  0  0  0  0  0  0  0  0  0  0
    6.1721   -8.2186   15.9886 N   0  0  0  0  0  0  0  0  0  0  0  0
   11.1764   -2.6600   19.5604 C   0  0  0  0  0  0  0  0  0  0  0  0
    9.5491   -0.6380   24.1912 C   0  0  0  0  0  0  0  0  0  0  0  0
    7.5337   -6.9256   16.9519 C   0  0  0  0  0  0  0  0  0  0  0  0
    9.6782    0.5671   23.5143 C   0  0  0  0  0  0  0  0  0  0  0  0
    8.4532    0.3482   26.0821 C   0  0  0  0  0  0  0  0  0  0  0  0
   10.4239   -1.7677   22.2230 N   0  0  0  0  0  0  0  0  0  0  0  0
    9.9468   -4.5953   20.1709 C   0  0  0  0  0  0  0  0  0  0  0  0
   10.0366   -3.0590   23.9864 N   0  0  0  0  0  0  0  0  0  0  0  0
    7.1191   -7.3636   15.7739 C   0  0  0  0  0  0  0  0  0  0  0  0
    5.9612   -8.3203   17.2732 N   0  0  0  0  0  0  0  0  0  0  0  0
    8.5296   -5.9814   17.1841 C   0  0  0  0  0  0  0  0  0  0  0  0
    9.1527   -5.2118   16.2116 C   0  0  0  0  0  0  0  0  0  0  0  0
   10.3364   -3.8368   22.9255 O   0  0  0  0  0  0  0  0  0  0  0  0
    9.6947   -4.8407   18.8534 C   0  0  0  0  0  0  0  0  0  0  0  0
    9.1596    1.7042   24.1381 C   0  0  0  0  0  0  0  0  0  0  0  0
   11.0456   -2.9774   18.2694 N   0  0  0  0  0  0  0  0  0  0  0  0
   10.4788   -3.0457   21.8593 C   0  0  0  0  0  0  0  0  0  0  0  0
    8.8693   -5.8099   18.4657 N   0  0  0  0  0  0  0  0  0  0  0  0
    8.9892   -0.7926   25.4573 C   0  0  0  0  0  0  0  0  0  0  0  0
   10.5677   -3.4462   20.5323 C   0  0  0  0  0  0  0  0  0  0  0  0
  1  8  1  0
  1 12  4  0
  1 14  4  0
  2  3  4  0
  2 18  4  0
  3 20  4  0
  3 22  4  0
  4 11  4  0
  4 21  4  0
  5  9  4  0
  5 16  4  0
  6 15  4  0
  6 16  4  0
  7 22  4  0
  7 26  4  0
  8 10  4  0
  8 25  4  0
  9 15  4  0
  9 17  1  0
 10 21  4  0
 11 25  4  0
 12 23  4  0
 13 20  4  0
 13 26  4  0
 14 19  4  0
 17 18  4  0
 17 24  4  0
 19 23  4  0
 20 24  4  0
 23 26  1  0
M  END
$$$$

 Created by Python create_sdf_string function

 26 30  0  0  0  0  0  0  0  0999 V2000
   10.0084   -1.8019   23.4945 C   0  0  0  0  0  0  0  0  0  0  0  0
   10.0005   -4.2520   16.5631 C   0  0  0  0  0  0  0  0  0  0  0  0
   10.2759   -4.0036   17.8845 C   0  0  0  0  0  0  0  0  0  0  0  0
    8.5652    1.5478   25.3778 N   0  0  0  0  0  0  0  0  0  0  0  0
    6.8048   -7.5457   17.8752 C   0  0  0  0  0  0  0  0  0  0  0  0
    6.1721   -8.2186   15.9886 N   0  0  0  0  0  0  0  0  0  0  0  0
   11.1764   -2.6600   19.5604 C   0  0  0  0  0  0  0  0  0  0  0  0
    9.5491   -0.6380   24.1912 C   0  0  0  0  0  0  0  0  0  0  0  0
    7.5337   -6.9256   16.9519 C   0  0  0  0  0  0  0  0  0  0  0  0
    9.6782    0.5671   23.5143 C   0  0  0  0  0  0  0  0  0  0  0  0
    8.4532    0.3482   26.0821 C   0  0  0  0  0  0  0  0  0  0  0  0
   10.4239   -1.7677   22.2230 N   0  0  0  0  0  0  0  0  0  0  0  0
    9.9468   -4.5953   20.1709 C   0  0  0  0  0  0  0  0  0  0  0  0
   10.0366   -3.0590   23.9864 N   0  0  0  0  0  0  0  0  0  0  0  0
    7.1191   -7.3636   15.7739 C   0  0  0  0  0  0  0  0  0  0  0  0
    5.9612   -8.3203   17.2732 N   0  0  0  0  0  0  0  0  0  0  0  0
    8.5296   -5.9814   17.1841 C   0  0  0  0  0  0  0  0  0  0  0  0
    9.1527   -5.2118   16.2116 C   0  0  0  0  0  0  0  0  0  0  0  0
   10.3364   -3.8368   22.9255 O   0  0  0  0  0  0  0  0  0  0  0  0
    9.6947   -4.8407   18.8534 C   0  0  0  0  0  0  0  0  0  0  0  0
    9.1596    1.7042   24.1381 C   0  0  0  0  0  0  0  0  0  0  0  0
   11.0456   -2.9774   18.2694 N   0  0  0  0  0  0  0  0  0  0  0  0
   10.4788   -3.0457   21.8593 C   0  0  0  0  0  0  0  0  0  0  0  0
    8.8693   -5.8099   18.4657 N   0  0  0  0  0  0  0  0  0  0  0  0
    8.9892   -0.7926   25.4573 C   0  0  0  0  0  0  0  0  0  0  0  0
   10.5677   -3.4462   20.5323 C   0  0  0  0  0  0  0  0  0  0  0  0
  1  8  1  0
  1 12  4  0
  1 14  4  0
  2  3  4  0
  2 18  4  0
  3 20  4  0
  3 22  4  0
  4 11  4  0
  4 21  4  0
  5  9  4  0
  5 16  4  0
  6 15  4  0
  6 16  4  0
  7 22  4  0
  7 26  4  0
  8 10  4  0
  8 25  4  0
  9 15  4  0
  9 17  1  0
 10 21  4  0
 11 25  4  0
 12 23  4  0
 13 20  4  0
 13 26  4  0
 14 19  4  0
 17 18  4  0
 17 24  4  0
 19 23  4  0
 20 24  4  0
 23 26  1  0
M  END
$$$$

 Created by Python create_sdf_string function

 26 30  0  0  0  0  0  0  0  0999 V2000
   10.0084   -1.8019   23.4945 C   0  0  0  0  0  0  0  0  0  0  0  0
   10.0005   -4.2520   16.5631 C   0  0  0  0  0  0  0  0  0  0  0  0
   10.2759   -4.0036   17.8845 C   0  0  0  0  0  0  0  0  0  0  0  0
    8.5652    1.5478   25.3778 N   0  0  0  0  0  0  0  0  0  0  0  0
    6.8048   -7.5457   17.8752 C   0  0  0  0  0  0  0  0  0  0  0  0
    6.1721   -8.2186   15.9886 N   0  0  0  0  0  0  0  0  0  0  0  0
   11.1764   -2.6600   19.5604 C   0  0  0  0  0  0  0  0  0  0  0  0
    9.5491   -0.6380   24.1912 C   0  0  0  0  0  0  0  0  0  0  0  0
    7.5337   -6.9256   16.9519 C   0  0  0  0  0  0  0  0  0  0  0  0
    9.6782    0.5671   23.5143 C   0  0  0  0  0  0  0  0  0  0  0  0
    8.4532    0.3482   26.0821 C   0  0  0  0  0  0  0  0  0  0  0  0
   10.4239   -1.7677   22.2230 N   0  0  0  0  0  0  0  0  0  0  0  0
    9.9468   -4.5953   20.1709 C   0  0  0  0  0  0  0  0  0  0  0  0
   10.0366   -3.0590   23.9864 N   0  0  0  0  0  0  0  0  0  0  0  0
    7.1191   -7.3636   15.7739 C   0  0  0  0  0  0  0  0  0  0  0  0
    5.9612   -8.3203   17.2732 N   0  0  0  0  0  0  0  0  0  0  0  0
    8.5296   -5.9814   17.1841 C   0  0  0  0  0  0  0  0  0  0  0  0
    9.1527   -5.2118   16.2116 C   0  0  0  0  0  0  0  0  0  0  0  0
   10.3364   -3.8368   22.9255 O   0  0  0  0  0  0  0  0  0  0  0  0
    9.6947   -4.8407   18.8534 C   0  0  0  0  0  0  0  0  0  0  0  0
    9.1596    1.7042   24.1381 C   0  0  0  0  0  0  0  0  0  0  0  0
   11.0456   -2.9774   18.2694 N   0  0  0  0  0  0  0  0  0  0  0  0
   10.4788   -3.0457   21.8593 C   0  0  0  0  0  0  0  0  0  0  0  0
    8.8693   -5.8099   18.4657 N   0  0  0  0  0  0  0  0  0  0  0  0
    8.9892   -0.7926   25.4573 C   0  0  0  0  0  0  0  0  0  0  0  0
   10.5677   -3.4462   20.5323 C   0  0  0  0  0  0  0  0  0  0  0  0
  1  8  1  0
  1 12  4  0
  1 14  4  0
  2  3  4  0
  2 18  4  0
  3 20  4  0
  3 22  4  0
  4 11  4  0
  4 21  4  0
  5  9  4  0
  5 16  4  0
  6 15  4  0
  6 16  4  0
  7 22  4  0
  7 26  4  0
  8 10  4  0
  8 25  4  0
  9 15  4  0
  9 17  1  0
 10 21  4  0
 11 25  4  0
 12 23  4  0
 13 20  4  0
 13 26  4  0
 14 19  4  0
 17 18  4  0
 17 24  4  0
 19 23  4  0
 20 24  4  0
 23 26  1  0
M  END
$$$$

 Created by Python create_sdf_string function

 26 30  0  0  0  0  0  0  0  0999 V2000
   10.0084   -1.8019   23.4945 C   0  0  0  0  0  0  0  0  0  0  0  0
   10.0005   -4.2520   16.5631 C   0  0  0  0  0  0  0  0  0  0  0  0
   10.2759   -4.0036   17.8845 C   0  0  0  0  0  0  0  0  0  0  0  0
    8.5652    1.5478   25.3778 N   0  0  0  0  0  0  0  0  0  0  0  0
    6.8048   -7.5457   17.8752 C   0  0  0  0  0  0  0  0  0  0  0  0
    6.1721   -8.2186   15.9886 N   0  0  0  0  0  0  0  0  0  0  0  0
   11.1764   -2.6600   19.5604 C   0  0  0  0  0  0  0  0  0  0  0  0
    9.5491   -0.6380   24.1912 C   0  0  0  0  0  0  0  0  0  0  0  0
    7.5337   -6.9256   16.9519 C   0  0  0  0  0  0  0  0  0  0  0  0
    9.6782    0.5671   23.5143 C   0  0  0  0  0  0  0  0  0  0  0  0
    8.4532    0.3482   26.0821 C   0  0  0  0  0  0  0  0  0  0  0  0
   10.4239   -1.7677   22.2230 N   0  0  0  0  0  0  0  0  0  0  0  0
    9.9468   -4.5953   20.1709 C   0  0  0  0  0  0  0  0  0  0  0  0
   10.0366   -3.0590   23.9864 N   0  0  0  0  0  0  0  0  0  0  0  0
    7.1191   -7.3636   15.7739 C   0  0  0  0  0  0  0  0  0  0  0  0
    5.9612   -8.3203   17.2732 N   0  0  0  0  0  0  0  0  0  0  0  0
    8.5296   -5.9814   17.1841 C   0  0  0  0  0  0  0  0  0  0  0  0
    9.1527   -5.2118   16.2116 C   0  0  0  0  0  0  0  0  0  0  0  0
   10.3364   -3.8368   22.9255 O   0  0  0  0  0  0  0  0  0  0  0  0
    9.6947   -4.8407   18.8534 C   0  0  0  0  0  0  0  0  0  0  0  0
    9.1596    1.7042   24.1381 C   0  0  0  0  0  0  0  0  0  0  0  0
   11.0456   -2.9774   18.2694 N   0  0  0  0  0  0  0  0  0  0  0  0
   10.4788   -3.0457   21.8593 C   0  0  0  0  0  0  0  0  0  0  0  0
    8.8693   -5.8099   18.4657 N   0  0  0  0  0  0  0  0  0  0  0  0
    8.9892   -0.7926   25.4573 C   0  0  0  0  0  0  0  0  0  0  0  0
   10.5677   -3.4462   20.5323 C   0  0  0  0  0  0  0  0  0  0  0  0
  1  8  1  0
  1 12  4  0
  1 14  4  0
  2  3  4  0
  2 18  4  0
  3 20  4  0
  3 22  4  0
  4 11  4  0
  4 21  4  0
  5  9  4  0
  5 16  4  0
  6 15  4  0
  6 16  4  0
  7 22  4  0
  7 26  4  0
  8 10  4  0
  8 25  4  0
  9 15  4  0
  9 17  1  0
 10 21  4  0
 11 25  4  0
 12 23  4  0
 13 20  4  0
 13 26  4  0
 14 19  4  0
 17 18  4  0
 17 24  4  0
 19 23  4  0
 20 24  4  0
 23 26  1  0
M  END
$$$$

 Created by Python create_sdf_string function

 26 30  0  0  0  0  0  0  0  0999 V2000
   10.0084   -1.8019   23.4945 C   0  0  0  0  0  0  0  0  0  0  0  0
   10.0005   -4.2520   16.5631 C   0  0  0  0  0  0  0  0  0  0  0  0
   10.2759   -4.0036   17.8845 C   0  0  0  0  0  0  0  0  0  0  0  0
    8.5652    1.5478   25.3778 N   0  0  0  0  0  0  0  0  0  0  0  0
    6.8048   -7.5457   17.8752 C   0  0  0  0  0  0  0  0  0  0  0  0
    6.1721   -8.2186   15.9886 N   0  0  0  0  0  0  0  0  0  0  0  0
   11.1764   -2.6600   19.5604 C   0  0  0  0  0  0  0  0  0  0  0  0
    9.5491   -0.6380   24.1912 C   0  0  0  0  0  0  0  0  0  0  0  0
    7.5337   -6.9256   16.9519 C   0  0  0  0  0  0  0  0  0  0  0  0
    9.6782    0.5671   23.5143 C   0  0  0  0  0  0  0  0  0  0  0  0
    8.4532    0.3482   26.0821 C   0  0  0  0  0  0  0  0  0  0  0  0
   10.4239   -1.7677   22.2230 N   0  0  0  0  0  0  0  0  0  0  0  0
    9.9468   -4.5953   20.1709 C   0  0  0  0  0  0  0  0  0  0  0  0
   10.0366   -3.0590   23.9864 N   0  0  0  0  0  0  0  0  0  0  0  0
    7.1191   -7.3636   15.7739 C   0  0  0  0  0  0  0  0  0  0  0  0
    5.9612   -8.3203   17.2732 N   0  0  0  0  0  0  0  0  0  0  0  0
    8.5296   -5.9814   17.1841 C   0  0  0  0  0  0  0  0  0  0  0  0
    9.1527   -5.2118   16.2116 C   0  0  0  0  0  0  0  0  0  0  0  0
   10.3364   -3.8368   22.9255 O   0  0  0  0  0  0  0  0  0  0  0  0
    9.6947   -4.8407   18.8534 C   0  0  0  0  0  0  0  0  0  0  0  0
    9.1596    1.7042   24.1381 C   0  0  0  0  0  0  0  0  0  0  0  0
   11.0456   -2.9774   18.2694 N   0  0  0  0  0  0  0  0  0  0  0  0
   10.4788   -3.0457   21.8593 C   0  0  0  0  0  0  0  0  0  0  0  0
    8.8693   -5.8099   18.4657 N   0  0  0  0  0  0  0  0  0  0  0  0
    8.9892   -0.7926   25.4573 C   0  0  0  0  0  0  0  0  0  0  0  0
   10.5677   -3.4462   20.5323 C   0  0  0  0  0  0  0  0  0  0  0  0
  1  8  1  0
  1 12  4  0
  1 14  4  0
  2  3  4  0
  2 18  4  0
  3 20  4  0
  3 22  4  0
  4 11  4  0
  4 21  4  0
  5  9  4  0
  5 16  4  0
  6 15  4  0
  6 16  4  0
  7 22  4  0
  7 26  4  0
  8 10  4  0
  8 25  4  0
  9 15  4  0
  9 17  1  0
 10 21  4  0
 11 25  4  0
 12 23  4  0
 13 20  4  0
 13 26  4  0
 14 19  4  0
 17 18  4  0
 17 24  4  0
 19 23  4  0
 20 24  4  0
 23 26  1  0
M  END
$$$$

 Created by Python create_sdf_string function

 26 30  0  0  0  0  0  0  0  0999 V2000
   10.0084   -1.8019   23.4945 C   0  0  0  0  0  0  0  0  0  0  0  0
   10.0005   -4.2520   16.5631 C   0  0  0  0  0  0  0  0  0  0  0  0
   10.2759   -4.0036   17.8845 C   0  0  0  0  0  0  0  0  0  0  0  0
    8.5652    1.5478   25.3778 N   0  0  0  0  0  0  0  0  0  0  0  0
    6.8048   -7.5457   17.8752 C   0  0  0  0  0  0  0  0  0  0  0  0
    6.1721   -8.2186   15.9886 N   0  0  0  0  0  0  0  0  0  0  0  0
   11.1764   -2.6600   19.5604 C   0  0  0  0  0  0  0  0  0  0  0  0
    9.5491   -0.6380   24.1912 C   0  0  0  0  0  0  0  0  0  0  0  0
    7.5337   -6.9256   16.9519 C   0  0  0  0  0  0  0  0  0  0  0  0
    9.6782    0.5671   23.5143 C   0  0  0  0  0  0  0  0  0  0  0  0
    8.4532    0.3482   26.0821 C   0  0  0  0  0  0  0  0  0  0  0  0
   10.4239   -1.7677   22.2230 N   0  0  0  0  0  0  0  0  0  0  0  0
    9.9468   -4.5953   20.1709 C   0  0  0  0  0  0  0  0  0  0  0  0
   10.0366   -3.0590   23.9864 N   0  0  0  0  0  0  0  0  0  0  0  0
    7.1191   -7.3636   15.7739 C   0  0  0  0  0  0  0  0  0  0  0  0
    5.9612   -8.3203   17.2732 N   0  0  0  0  0  0  0  0  0  0  0  0
    8.5296   -5.9814   17.1841 C   0  0  0  0  0  0  0  0  0  0  0  0
    9.1527   -5.2118   16.2116 C   0  0  0  0  0  0  0  0  0  0  0  0
   10.3364   -3.8368   22.9255 O   0  0  0  0  0  0  0  0  0  0  0  0
    9.6947   -4.8407   18.8534 C   0  0  0  0  0  0  0  0  0  0  0  0
    9.1596    1.7042   24.1381 C   0  0  0  0  0  0  0  0  0  0  0  0
   11.0456   -2.9774   18.2694 N   0  0  0  0  0  0  0  0  0  0  0  0
   10.4788   -3.0457   21.8593 C   0  0  0  0  0  0  0  0  0  0  0  0
    8.8693   -5.8099   18.4657 N   0  0  0  0  0  0  0  0  0  0  0  0
    8.9892   -0.7926   25.4573 C   0  0  0  0  0  0  0  0  0  0  0  0
   10.5677   -3.4462   20.5323 C   0  0  0  0  0  0  0  0  0  0  0  0
  1  8  1  0
  1 12  4  0
  1 14  4  0
  2  3  4  0
  2 18  4  0
  3 20  4  0
  3 22  4  0
  4 11  4  0
  4 21  4  0
  5  9  4  0
  5 16  4  0
  6 15  4  0
  6 16  4  0
  7 22  4  0
  7 26  4  0
  8 10  4  0
  8 25  4  0
  9 15  4  0
  9 17  1  0
 10 21  4  0
 11 25  4  0
 12 23  4  0
 13 20  4  0
 13 26  4  0
 14 19  4  0
 17 18  4  0
 17 24  4  0
 19 23  4  0
 20 24  4  0
 23 26  1  0
M  END
$$$$

 Created by Python create_sdf_string function

 26 30  0  0  0  0  0  0  0  0999 V2000
   10.0084   -1.8019   23.4945 C   0  0  0  0  0  0  0  0  0  0  0  0
   10.0005   -4.2520   16.5631 C   0  0  0  0  0  0  0  0  0  0  0  0
   10.2759   -4.0036   17.8845 C   0  0  0  0  0  0  0  0  0  0  0  0
    8.5652    1.5478   25.3778 N   0  0  0  0  0  0  0  0  0  0  0  0
    6.8048   -7.5457   17.8752 C   0  0  0  0  0  0  0  0  0  0  0  0
    6.1721   -8.2186   15.9886 N   0  0  0  0  0  0  0  0  0  0  0  0
   11.1764   -2.6600   19.5604 C   0  0  0  0  0  0  0  0  0  0  0  0
    9.5491   -0.6380   24.1912 C   0  0  0  0  0  0  0  0  0  0  0  0
    7.5337   -6.9256   16.9519 C   0  0  0  0  0  0  0  0  0  0  0  0
    9.6782    0.5671   23.5143 C   0  0  0  0  0  0  0  0  0  0  0  0
    8.4532    0.3482   26.0821 C   0  0  0  0  0  0  0  0  0  0  0  0
   10.4239   -1.7677   22.2230 N   0  0  0  0  0  0  0  0  0  0  0  0
    9.9468   -4.5953   20.1709 C   0  0  0  0  0  0  0  0  0  0  0  0
   10.0366   -3.0590   23.9864 N   0  0  0  0  0  0  0  0  0  0  0  0
    7.1191   -7.3636   15.7739 C   0  0  0  0  0  0  0  0  0  0  0  0
    5.9612   -8.3203   17.2732 N   0  0  0  0  0  0  0  0  0  0  0  0
    8.5296   -5.9814   17.1841 C   0  0  0  0  0  0  0  0  0  0  0  0
    9.1527   -5.2118   16.2116 C   0  0  0  0  0  0  0  0  0  0  0  0
   10.3364   -3.8368   22.9255 O   0  0  0  0  0  0  0  0  0  0  0  0
    9.6947   -4.8407   18.8534 C   0  0  0  0  0  0  0  0  0  0  0  0
    9.1596    1.7042   24.1381 C   0  0  0  0  0  0  0  0  0  0  0  0
   11.0456   -2.9774   18.2694 N   0  0  0  0  0  0  0  0  0  0  0  0
   10.4788   -3.0457   21.8593 C   0  0  0  0  0  0  0  0  0  0  0  0
    8.8693   -5.8099   18.4657 N   0  0  0  0  0  0  0  0  0  0  0  0
    8.9892   -0.7926   25.4573 C   0  0  0  0  0  0  0  0  0  0  0  0
   10.5677   -3.4462   20.5323 C   0  0  0  0  0  0  0  0  0  0  0  0
  1  8  1  0
  1 12  4  0
  1 14  4  0
  2  3  4  0
  2 18  4  0
  3 20  4  0
  3 22  4  0
  4 11  4  0
  4 21  4  0
  5  9  4  0
  5 16  4  0
  6 15  4  0
  6 16  4  0
  7 22  4  0
  7 26  4  0
  8 10  4  0
  8 25  4  0
  9 15  4  0
  9 17  1  0
 10 21  4  0
 11 25  4  0
 12 23  4  0
 13 20  4  0
 13 26  4  0
 14 19  4  0
 17 18  4  0
 17 24  4  0
 19 23  4  0
 20 24  4  0
 23 26  1  0
M  END
$$$$

 Created by Python create_sdf_string function

 26 30  0  0  0  0  0  0  0  0999 V2000
   10.0084   -1.8019   23.4945 C   0  0  0  0  0  0  0  0  0  0  0  0
   10.0005   -4.2520   16.5631 C   0  0  0  0  0  0  0  0  0  0  0  0
   10.2759   -4.0036   17.8845 C   0  0  0  0  0  0  0  0  0  0  0  0
    8.5652    1.5478   25.3778 N   0  0  0  0  0  0  0  0  0  0  0  0
    6.8048   -7.5457   17.8752 C   0  0  0  0  0  0  0  0  0  0  0  0
    6.1721   -8.2186   15.9886 N   0  0  0  0  0  0  0  0  0  0  0  0
   11.1764   -2.6600   19.5604 C   0  0  0  0  0  0  0  0  0  0  0  0
    9.5491   -0.6380   24.1912 C   0  0  0  0  0  0  0  0  0  0  0  0
    7.5337   -6.9256   16.9519 C   0  0  0  0  0  0  0  0  0  0  0  0
    9.6782    0.5671   23.5143 C   0  0  0  0  0  0  0  0  0  0  0  0
    8.4532    0.3482   26.0821 C   0  0  0  0  0  0  0  0  0  0  0  0
   10.4239   -1.7677   22.2230 N   0  0  0  0  0  0  0  0  0  0  0  0
    9.9468   -4.5953   20.1709 C   0  0  0  0  0  0  0  0  0  0  0  0
   10.0366   -3.0590   23.9864 N   0  0  0  0  0  0  0  0  0  0  0  0
    7.1191   -7.3636   15.7739 C   0  0  0  0  0  0  0  0  0  0  0  0
    5.9612   -8.3203   17.2732 N   0  0  0  0  0  0  0  0  0  0  0  0
    8.5296   -5.9814   17.1841 C   0  0  0  0  0  0  0  0  0  0  0  0
    9.1527   -5.2118   16.2116 C   0  0  0  0  0  0  0  0  0  0  0  0
   10.3364   -3.8368   22.9255 O   0  0  0  0  0  0  0  0  0  0  0  0
    9.6947   -4.8407   18.8534 C   0  0  0  0  0  0  0  0  0  0  0  0
    9.1596    1.7042   24.1381 C   0  0  0  0  0  0  0  0  0  0  0  0
   11.0456   -2.9774   18.2694 N   0  0  0  0  0  0  0  0  0  0  0  0
   10.4788   -3.0457   21.8593 C   0  0  0  0  0  0  0  0  0  0  0  0
    8.8693   -5.8099   18.4657 N   0  0  0  0  0  0  0  0  0  0  0  0
    8.9892   -0.7926   25.4573 C   0  0  0  0  0  0  0  0  0  0  0  0
   10.5677   -3.4462   20.5323 C   0  0  0  0  0  0  0  0  0  0  0  0
  1  8  1  0
  1 12  4  0
  1 14  4  0
  2  3  4  0
  2 18  4  0
  3 20  4  0
  3 22  4  0
  4 11  4  0
  4 21  4  0
  5  9  4  0
  5 16  4  0
  6 15  4  0
  6 16  4  0
  7 22  4  0
  7 26  4  0
  8 10  4  0
  8 25  4  0
  9 15  4  0
  9 17  1  0
 10 21  4  0
 11 25  4  0
 12 23  4  0
 13 20  4  0
 13 26  4  0
 14 19  4  0
 17 18  4  0
 17 24  4  0
 19 23  4  0
 20 24  4  0
 23 26  1  0
M  END
$$$$

 Created by Python create_sdf_string function

 26 30  0  0  0  0  0  0  0  0999 V2000
   10.0084   -1.8019   23.4945 C   0  0  0  0  0  0  0  0  0  0  0  0
   10.0005   -4.2520   16.5631 C   0  0  0  0  0  0  0  0  0  0  0  0
   10.2759   -4.0036   17.8845 C   0  0  0  0  0  0  0  0  0  0  0  0
    8.5652    1.5478   25.3778 N   0  0  0  0  0  0  0  0  0  0  0  0
    6.8048   -7.5457   17.8752 C   0  0  0  0  0  0  0  0  0  0  0  0
    6.1721   -8.2186   15.9886 N   0  0  0  0  0  0  0  0  0  0  0  0
   11.1764   -2.6600   19.5604 C   0  0  0  0  0  0  0  0  0  0  0  0
    9.5491   -0.6380   24.1912 C   0  0  0  0  0  0  0  0  0  0  0  0
    7.5337   -6.9256   16.9519 C   0  0  0  0  0  0  0  0  0  0  0  0
    9.6782    0.5671   23.5143 C   0  0  0  0  0  0  0  0  0  0  0  0
    8.4532    0.3482   26.0821 C   0  0  0  0  0  0  0  0  0  0  0  0
   10.4239   -1.7677   22.2230 N   0  0  0  0  0  0  0  0  0  0  0  0
    9.9468   -4.5953   20.1709 C   0  0  0  0  0  0  0  0  0  0  0  0
   10.0366   -3.0590   23.9864 N   0  0  0  0  0  0  0  0  0  0  0  0
    7.1191   -7.3636   15.7739 C   0  0  0  0  0  0  0  0  0  0  0  0
    5.9612   -8.3203   17.2732 N   0  0  0  0  0  0  0  0  0  0  0  0
    8.5296   -5.9814   17.1841 C   0  0  0  0  0  0  0  0  0  0  0  0
    9.1527   -5.2118   16.2116 C   0  0  0  0  0  0  0  0  0  0  0  0
   10.3364   -3.8368   22.9255 O   0  0  0  0  0  0  0  0  0  0  0  0
    9.6947   -4.8407   18.8534 C   0  0  0  0  0  0  0  0  0  0  0  0
    9.1596    1.7042   24.1381 C   0  0  0  0  0  0  0  0  0  0  0  0
   11.0456   -2.9774   18.2694 N   0  0  0  0  0  0  0  0  0  0  0  0
   10.4788   -3.0457   21.8593 C   0  0  0  0  0  0  0  0  0  0  0  0
    8.8693   -5.8099   18.4657 N   0  0  0  0  0  0  0  0  0  0  0  0
    8.9892   -0.7926   25.4573 C   0  0  0  0  0  0  0  0  0  0  0  0
   10.5677   -3.4462   20.5323 C   0  0  0  0  0  0  0  0  0  0  0  0
  1  8  1  0
  1 12  4  0
  1 14  4  0
  2  3  4  0
  2 18  4  0
  3 20  4  0
  3 22  4  0
  4 11  4  0
  4 21  4  0
  5  9  4  0
  5 16  4  0
  6 15  4  0
  6 16  4  0
  7 22  4  0
  7 26  4  0
  8 10  4  0
  8 25  4  0
  9 15  4  0
  9 17  1  0
 10 21  4  0
 11 25  4  0
 12 23  4  0
 13 20  4  0
 13 26  4  0
 14 19  4  0
 17 18  4  0
 17 24  4  0
 19 23  4  0
 20 24  4  0
 23 26  1  0
M  END
$$$$

 Created by Python create_sdf_string function

 26 30  0  0  0  0  0  0  0  0999 V2000
   10.0084   -1.8019   23.4945 C   0  0  0  0  0  0  0  0  0  0  0  0
   10.0005   -4.2520   16.5631 C   0  0  0  0  0  0  0  0  0  0  0  0
   10.2759   -4.0036   17.8845 C   0  0  0  0  0  0  0  0  0  0  0  0
    8.5652    1.5478   25.3778 N   0  0  0  0  0  0  0  0  0  0  0  0
    6.8048   -7.5457   17.8752 C   0  0  0  0  0  0  0  0  0  0  0  0
    6.1721   -8.2186   15.9886 N   0  0  0  0  0  0  0  0  0  0  0  0
   11.1764   -2.6600   19.5604 C   0  0  0  0  0  0  0  0  0  0  0  0
    9.5491   -0.6380   24.1912 C   0  0  0  0  0  0  0  0  0  0  0  0
    7.5337   -6.9256   16.9519 C   0  0  0  0  0  0  0  0  0  0  0  0
    9.6782    0.5671   23.5143 C   0  0  0  0  0  0  0  0  0  0  0  0
    8.4532    0.3482   26.0821 C   0  0  0  0  0  0  0  0  0  0  0  0
   10.4239   -1.7677   22.2230 N   0  0  0  0  0  0  0  0  0  0  0  0
    9.9468   -4.5953   20.1709 C   0  0  0  0  0  0  0  0  0  0  0  0
   10.0366   -3.0590   23.9864 N   0  0  0  0  0  0  0  0  0  0  0  0
    7.1191   -7.3636   15.7739 C   0  0  0  0  0  0  0  0  0  0  0  0
    5.9612   -8.3203   17.2732 N   0  0  0  0  0  0  0  0  0  0  0  0
    8.5296   -5.9814   17.1841 C   0  0  0  0  0  0  0  0  0  0  0  0
    9.1527   -5.2118   16.2116 C   0  0  0  0  0  0  0  0  0  0  0  0
   10.3364   -3.8368   22.9255 O   0  0  0  0  0  0  0  0  0  0  0  0
    9.6947   -4.8407   18.8534 C   0  0  0  0  0  0  0  0  0  0  0  0
    9.1596    1.7042   24.1381 C   0  0  0  0  0  0  0  0  0  0  0  0
   11.0456   -2.9774   18.2694 N   0  0  0  0  0  0  0  0  0  0  0  0
   10.4788   -3.0457   21.8593 C   0  0  0  0  0  0  0  0  0  0  0  0
    8.8693   -5.8099   18.4657 N   0  0  0  0  0  0  0  0  0  0  0  0
    8.9892   -0.7926   25.4573 C   0  0  0  0  0  0  0  0  0  0  0  0
   10.5677   -3.4462   20.5323 C   0  0  0  0  0  0  0  0  0  0  0  0
  1  8  1  0
  1 12  4  0
  1 14  4  0
  2  3  4  0
  2 18  4  0
  3 20  4  0
  3 22  4  0
  4 11  4  0
  4 21  4  0
  5  9  4  0
  5 16  4  0
  6 15  4  0
  6 16  4  0
  7 22  4  0
  7 26  4  0
  8 10  4  0
  8 25  4  0
  9 15  4  0
  9 17  1  0
 10 21  4  0
 11 25  4  0
 12 23  4  0
 13 20  4  0
 13 26  4  0
 14 19  4  0
 17 18  4  0
 17 24  4  0
 19 23  4  0
 20 24  4  0
 23 26  1  0
M  END
$$$$

 Created by Python create_sdf_string function

 26 30  0  0  0  0  0  0  0  0999 V2000
   10.0084   -1.8019   23.4945 C   0  0  0  0  0  0  0  0  0  0  0  0
   10.0005   -4.2520   16.5631 C   0  0  0  0  0  0  0  0  0  0  0  0
   10.2759   -4.0036   17.8845 C   0  0  0  0  0  0  0  0  0  0  0  0
    8.5652    1.5478   25.3778 N   0  0  0  0  0  0  0  0  0  0  0  0
    6.8048   -7.5457   17.8752 C   0  0  0  0  0  0  0  0  0  0  0  0
    6.1721   -8.2186   15.9886 N   0  0  0  0  0  0  0  0  0  0  0  0
   11.1764   -2.6600   19.5604 C   0  0  0  0  0  0  0  0  0  0  0  0
    9.5491   -0.6380   24.1912 C   0  0  0  0  0  0  0  0  0  0  0  0
    7.5337   -6.9256   16.9519 C   0  0  0  0  0  0  0  0  0  0  0  0
    9.6782    0.5671   23.5143 C   0  0  0  0  0  0  0  0  0  0  0  0
    8.4532    0.3482   26.0821 C   0  0  0  0  0  0  0  0  0  0  0  0
   10.4239   -1.7677   22.2230 N   0  0  0  0  0  0  0  0  0  0  0  0
    9.9468   -4.5953   20.1709 C   0  0  0  0  0  0  0  0  0  0  0  0
   10.0366   -3.0590   23.9864 N   0  0  0  0  0  0  0  0  0  0  0  0
    7.1191   -7.3636   15.7739 C   0  0  0  0  0  0  0  0  0  0  0  0
    5.9612   -8.3203   17.2732 N   0  0  0  0  0  0  0  0  0  0  0  0
    8.5296   -5.9814   17.1841 C   0  0  0  0  0  0  0  0  0  0  0  0
    9.1527   -5.2118   16.2116 C   0  0  0  0  0  0  0  0  0  0  0  0
   10.3364   -3.8368   22.9255 O   0  0  0  0  0  0  0  0  0  0  0  0
    9.6947   -4.8407   18.8534 C   0  0  0  0  0  0  0  0  0  0  0  0
    9.1596    1.7042   24.1381 C   0  0  0  0  0  0  0  0  0  0  0  0
   11.0456   -2.9774   18.2694 N   0  0  0  0  0  0  0  0  0  0  0  0
   10.4788   -3.0457   21.8593 C   0  0  0  0  0  0  0  0  0  0  0  0
    8.8693   -5.8099   18.4657 N   0  0  0  0  0  0  0  0  0  0  0  0
    8.9892   -0.7926   25.4573 C   0  0  0  0  0  0  0  0  0  0  0  0
   10.5677   -3.4462   20.5323 C   0  0  0  0  0  0  0  0  0  0  0  0
  1  8  1  0
  1 12  4  0
  1 14  4  0
  2  3  4  0
  2 18  4  0
  3 20  4  0
  3 22  4  0
  4 11  4  0
  4 21  4  0
  5  9  4  0
  5 16  4  0
  6 15  4  0
  6 16  4  0
  7 22  4  0
  7 26  4  0
  8 10  4  0
  8 25  4  0
  9 15  4  0
  9 17  1  0
 10 21  4  0
 11 25  4  0
 12 23  4  0
 13 20  4  0
 13 26  4  0
 14 19  4  0
 17 18  4  0
 17 24  4  0
 19 23  4  0
 20 24  4  0
 23 26  1  0
M  END
$$$$

 Created by Python create_sdf_string function

 26 30  0  0  0  0  0  0  0  0999 V2000
   10.0084   -1.8019   23.4945 C   0  0  0  0  0  0  0  0  0  0  0  0
   10.0005   -4.2520   16.5631 C   0  0  0  0  0  0  0  0  0  0  0  0
   10.2759   -4.0036   17.8845 C   0  0  0  0  0  0  0  0  0  0  0  0
    8.5652    1.5478   25.3778 N   0  0  0  0  0  0  0  0  0  0  0  0
    6.8048   -7.5457   17.8752 C   0  0  0  0  0  0  0  0  0  0  0  0
    6.1721   -8.2186   15.9886 N   0  0  0  0  0  0  0  0  0  0  0  0
   11.1764   -2.6600   19.5604 C   0  0  0  0  0  0  0  0  0  0  0  0
    9.5491   -0.6380   24.1912 C   0  0  0  0  0  0  0  0  0  0  0  0
    7.5337   -6.9256   16.9519 C   0  0  0  0  0  0  0  0  0  0  0  0
    9.6782    0.5671   23.5143 C   0  0  0  0  0  0  0  0  0  0  0  0
    8.4532    0.3482   26.0821 C   0  0  0  0  0  0  0  0  0  0  0  0
   10.4239   -1.7677   22.2230 N   0  0  0  0  0  0  0  0  0  0  0  0
    9.9468   -4.5953   20.1709 C   0  0  0  0  0  0  0  0  0  0  0  0
   10.0366   -3.0590   23.9864 N   0  0  0  0  0  0  0  0  0  0  0  0
    7.1191   -7.3636   15.7739 C   0  0  0  0  0  0  0  0  0  0  0  0
    5.9612   -8.3203   17.2732 N   0  0  0  0  0  0  0  0  0  0  0  0
    8.5296   -5.9814   17.1841 C   0  0  0  0  0  0  0  0  0  0  0  0
    9.1527   -5.2118   16.2116 C   0  0  0  0  0  0  0  0  0  0  0  0
   10.3364   -3.8368   22.9255 O   0  0  0  0  0  0  0  0  0  0  0  0
    9.6947   -4.8407   18.8534 C   0  0  0  0  0  0  0  0  0  0  0  0
    9.1596    1.7042   24.1381 C   0  0  0  0  0  0  0  0  0  0  0  0
   11.0456   -2.9774   18.2694 N   0  0  0  0  0  0  0  0  0  0  0  0
   10.4788   -3.0457   21.8593 C   0  0  0  0  0  0  0  0  0  0  0  0
    8.8693   -5.8099   18.4657 N   0  0  0  0  0  0  0  0  0  0  0  0
    8.9892   -0.7926   25.4573 C   0  0  0  0  0  0  0  0  0  0  0  0
   10.5677   -3.4462   20.5323 C   0  0  0  0  0  0  0  0  0  0  0  0
  1  8  1  0
  1 12  4  0
  1 14  4  0
  2  3  4  0
  2 18  4  0
  3 20  4  0
  3 22  4  0
  4 11  4  0
  4 21  4  0
  5  9  4  0
  5 16  4  0
  6 15  4  0
  6 16  4  0
  7 22  4  0
  7 26  4  0
  8 10  4  0
  8 25  4  0
  9 15  4  0
  9 17  1  0
 10 21  4  0
 11 25  4  0
 12 23  4  0
 13 20  4  0
 13 26  4  0
 14 19  4  0
 17 18  4  0
 17 24  4  0
 19 23  4  0
 20 24  4  0
 23 26  1  0
M  END
$$$$

 Created by Python create_sdf_string function

 26 30  0  0  0  0  0  0  0  0999 V2000
   10.0084   -1.8019   23.4945 C   0  0  0  0  0  0  0  0  0  0  0  0
   10.0005   -4.2520   16.5631 C   0  0  0  0  0  0  0  0  0  0  0  0
   10.2759   -4.0036   17.8845 C   0  0  0  0  0  0  0  0  0  0  0  0
    8.5652    1.5478   25.3778 N   0  0  0  0  0  0  0  0  0  0  0  0
    6.8048   -7.5457   17.8752 C   0  0  0  0  0  0  0  0  0  0  0  0
    6.1721   -8.2186   15.9886 N   0  0  0  0  0  0  0  0  0  0  0  0
   11.1764   -2.6600   19.5604 C   0  0  0  0  0  0  0  0  0  0  0  0
    9.5491   -0.6380   24.1912 C   0  0  0  0  0  0  0  0  0  0  0  0
    7.5337   -6.9256   16.9519 C   0  0  0  0  0  0  0  0  0  0  0  0
    9.6782    0.5671   23.5143 C   0  0  0  0  0  0  0  0  0  0  0  0
    8.4532    0.3482   26.0821 C   0  0  0  0  0  0  0  0  0  0  0  0
   10.4239   -1.7677   22.2230 N   0  0  0  0  0  0  0  0  0  0  0  0
    9.9468   -4.5953   20.1709 C   0  0  0  0  0  0  0  0  0  0  0  0
   10.0366   -3.0590   23.9864 N   0  0  0  0  0  0  0  0  0  0  0  0
    7.1191   -7.3636   15.7739 C   0  0  0  0  0  0  0  0  0  0  0  0
    5.9612   -8.3203   17.2732 N   0  0  0  0  0  0  0  0  0  0  0  0
    8.5296   -5.9814   17.1841 C   0  0  0  0  0  0  0  0  0  0  0  0
    9.1527   -5.2118   16.2116 C   0  0  0  0  0  0  0  0  0  0  0  0
   10.3364   -3.8368   22.9255 O   0  0  0  0  0  0  0  0  0  0  0  0
    9.6947   -4.8407   18.8534 C   0  0  0  0  0  0  0  0  0  0  0  0
    9.1596    1.7042   24.1381 C   0  0  0  0  0  0  0  0  0  0  0  0
   11.0456   -2.9774   18.2694 N   0  0  0  0  0  0  0  0  0  0  0  0
   10.4788   -3.0457   21.8593 C   0  0  0  0  0  0  0  0  0  0  0  0
    8.8693   -5.8099   18.4657 N   0  0  0  0  0  0  0  0  0  0  0  0
    8.9892   -0.7926   25.4573 C   0  0  0  0  0  0  0  0  0  0  0  0
   10.5677   -3.4462   20.5323 C   0  0  0  0  0  0  0  0  0  0  0  0
  1  8  1  0
  1 12  4  0
  1 14  4  0
  2  3  4  0
  2 18  4  0
  3 20  4  0
  3 22  4  0
  4 11  4  0
  4 21  4  0
  5  9  4  0
  5 16  4  0
  6 15  4  0
  6 16  4  0
  7 22  4  0
  7 26  4  0
  8 10  4  0
  8 25  4  0
  9 15  4  0
  9 17  1  0
 10 21  4  0
 11 25  4  0
 12 23  4  0
 13 20  4  0
 13 26  4  0
 14 19  4  0
 17 18  4  0
 17 24  4  0
 19 23  4  0
 20 24  4  0
 23 26  1  0
M  END
$$$$

 Created by Python create_sdf_string function

 26 30  0  0  0  0  0  0  0  0999 V2000
   10.0084   -1.8019   23.4945 C   0  0  0  0  0  0  0  0  0  0  0  0
   10.0005   -4.2520   16.5631 C   0  0  0  0  0  0  0  0  0  0  0  0
   10.2759   -4.0036   17.8845 C   0  0  0  0  0  0  0  0  0  0  0  0
    8.5652    1.5478   25.3778 N   0  0  0  0  0  0  0  0  0  0  0  0
    6.8048   -7.5457   17.8752 C   0  0  0  0  0  0  0  0  0  0  0  0
    6.1721   -8.2186   15.9886 N   0  0  0  0  0  0  0  0  0  0  0  0
   11.1764   -2.6600   19.5604 C   0  0  0  0  0  0  0  0  0  0  0  0
    9.5491   -0.6380   24.1912 C   0  0  0  0  0  0  0  0  0  0  0  0
    7.5337   -6.9256   16.9519 C   0  0  0  0  0  0  0  0  0  0  0  0
    9.6782    0.5671   23.5143 C   0  0  0  0  0  0  0  0  0  0  0  0
    8.4532    0.3482   26.0821 C   0  0  0  0  0  0  0  0  0  0  0  0
   10.4239   -1.7677   22.2230 N   0  0  0  0  0  0  0  0  0  0  0  0
    9.9468   -4.5953   20.1709 C   0  0  0  0  0  0  0  0  0  0  0  0
   10.0366   -3.0590   23.9864 N   0  0  0  0  0  0  0  0  0  0  0  0
    7.1191   -7.3636   15.7739 C   0  0  0  0  0  0  0  0  0  0  0  0
    5.9612   -8.3203   17.2732 N   0  0  0  0  0  0  0  0  0  0  0  0
    8.5296   -5.9814   17.1841 C   0  0  0  0  0  0  0  0  0  0  0  0
    9.1527   -5.2118   16.2116 C   0  0  0  0  0  0  0  0  0  0  0  0
   10.3364   -3.8368   22.9255 O   0  0  0  0  0  0  0  0  0  0  0  0
    9.6947   -4.8407   18.8534 C   0  0  0  0  0  0  0  0  0  0  0  0
    9.1596    1.7042   24.1381 C   0  0  0  0  0  0  0  0  0  0  0  0
   11.0456   -2.9774   18.2694 N   0  0  0  0  0  0  0  0  0  0  0  0
   10.4788   -3.0457   21.8593 C   0  0  0  0  0  0  0  0  0  0  0  0
    8.8693   -5.8099   18.4657 N   0  0  0  0  0  0  0  0  0  0  0  0
    8.9892   -0.7926   25.4573 C   0  0  0  0  0  0  0  0  0  0  0  0
   10.5677   -3.4462   20.5323 C   0  0  0  0  0  0  0  0  0  0  0  0
  1  8  1  0
  1 12  4  0
  1 14  4  0
  2  3  4  0
  2 18  4  0
  3 20  4  0
  3 22  4  0
  4 11  4  0
  4 21  4  0
  5  9  4  0
  5 16  4  0
  6 15  4  0
  6 16  4  0
  7 22  4  0
  7 26  4  0
  8 10  4  0
  8 25  4  0
  9 15  4  0
  9 17  1  0
 10 21  4  0
 11 25  4  0
 12 23  4  0
 13 20  4  0
 13 26  4  0
 14 19  4  0
 17 18  4  0
 17 24  4  0
 19 23  4  0
 20 24  4  0
 23 26  1  0
M  END
$$$$

 Created by Python create_sdf_string function

 26 30  0  0  0  0  0  0  0  0999 V2000
   10.0084   -1.8019   23.4945 C   0  0  0  0  0  0  0  0  0  0  0  0
   10.0005   -4.2520   16.5631 C   0  0  0  0  0  0  0  0  0  0  0  0
   10.2759   -4.0036   17.8845 C   0  0  0  0  0  0  0  0  0  0  0  0
    8.5652    1.5478   25.3778 N   0  0  0  0  0  0  0  0  0  0  0  0
    6.8048   -7.5457   17.8752 C   0  0  0  0  0  0  0  0  0  0  0  0
    6.1721   -8.2186   15.9886 N   0  0  0  0  0  0  0  0  0  0  0  0
   11.1764   -2.6600   19.5604 C   0  0  0  0  0  0  0  0  0  0  0  0
    9.5491   -0.6380   24.1912 C   0  0  0  0  0  0  0  0  0  0  0  0
    7.5337   -6.9256   16.9519 C   0  0  0  0  0  0  0  0  0  0  0  0
    9.6782    0.5671   23.5143 C   0  0  0  0  0  0  0  0  0  0  0  0
    8.4532    0.3482   26.0821 C   0  0  0  0  0  0  0  0  0  0  0  0
   10.4239   -1.7677   22.2230 N   0  0  0  0  0  0  0  0  0  0  0  0
    9.9468   -4.5953   20.1709 C   0  0  0  0  0  0  0  0  0  0  0  0
   10.0366   -3.0590   23.9864 N   0  0  0  0  0  0  0  0  0  0  0  0
    7.1191   -7.3636   15.7739 C   0  0  0  0  0  0  0  0  0  0  0  0
    5.9612   -8.3203   17.2732 N   0  0  0  0  0  0  0  0  0  0  0  0
    8.5296   -5.9814   17.1841 C   0  0  0  0  0  0  0  0  0  0  0  0
    9.1527   -5.2118   16.2116 C   0  0  0  0  0  0  0  0  0  0  0  0
   10.3364   -3.8368   22.9255 O   0  0  0  0  0  0  0  0  0  0  0  0
    9.6947   -4.8407   18.8534 C   0  0  0  0  0  0  0  0  0  0  0  0
    9.1596    1.7042   24.1381 C   0  0  0  0  0  0  0  0  0  0  0  0
   11.0456   -2.9774   18.2694 N   0  0  0  0  0  0  0  0  0  0  0  0
   10.4788   -3.0457   21.8593 C   0  0  0  0  0  0  0  0  0  0  0  0
    8.8693   -5.8099   18.4657 N   0  0  0  0  0  0  0  0  0  0  0  0
    8.9892   -0.7926   25.4573 C   0  0  0  0  0  0  0  0  0  0  0  0
   10.5677   -3.4462   20.5323 C   0  0  0  0  0  0  0  0  0  0  0  0
  1  8  1  0
  1 12  4  0
  1 14  4  0
  2  3  4  0
  2 18  4  0
  3 20  4  0
  3 22  4  0
  4 11  4  0
  4 21  4  0
  5  9  4  0
  5 16  4  0
  6 15  4  0
  6 16  4  0
  7 22  4  0
  7 26  4  0
  8 10  4  0
  8 25  4  0
  9 15  4  0
  9 17  1  0
 10 21  4  0
 11 25  4  0
 12 23  4  0
 13 20  4  0
 13 26  4  0
 14 19  4  0
 17 18  4  0
 17 24  4  0
 19 23  4  0
 20 24  4  0
 23 26  1  0
M  END
$$$$

 Created by Python create_sdf_string function

 26 30  0  0  0  0  0  0  0  0999 V2000
   10.0084   -1.8019   23.4945 C   0  0  0  0  0  0  0  0  0  0  0  0
   10.0005   -4.2520   16.5631 C   0  0  0  0  0  0  0  0  0  0  0  0
   10.2759   -4.0036   17.8845 C   0  0  0  0  0  0  0  0  0  0  0  0
    8.5652    1.5478   25.3778 N   0  0  0  0  0  0  0  0  0  0  0  0
    6.8048   -7.5457   17.8752 C   0  0  0  0  0  0  0  0  0  0  0  0
    6.1721   -8.2186   15.9886 N   0  0  0  0  0  0  0  0  0  0  0  0
   11.1764   -2.6600   19.5604 C   0  0  0  0  0  0  0  0  0  0  0  0
    9.5491   -0.6380   24.1912 C   0  0  0  0  0  0  0  0  0  0  0  0
    7.5337   -6.9256   16.9519 C   0  0  0  0  0  0  0  0  0  0  0  0
    9.6782    0.5671   23.5143 C   0  0  0  0  0  0  0  0  0  0  0  0
    8.4532    0.3482   26.0821 C   0  0  0  0  0  0  0  0  0  0  0  0
   10.4239   -1.7677   22.2230 N   0  0  0  0  0  0  0  0  0  0  0  0
    9.9468   -4.5953   20.1709 C   0  0  0  0  0  0  0  0  0  0  0  0
   10.0366   -3.0590   23.9864 N   0  0  0  0  0  0  0  0  0  0  0  0
    7.1191   -7.3636   15.7739 C   0  0  0  0  0  0  0  0  0  0  0  0
    5.9612   -8.3203   17.2732 N   0  0  0  0  0  0  0  0  0  0  0  0
    8.5296   -5.9814   17.1841 C   0  0  0  0  0  0  0  0  0  0  0  0
    9.1527   -5.2118   16.2116 C   0  0  0  0  0  0  0  0  0  0  0  0
   10.3364   -3.8368   22.9255 O   0  0  0  0  0  0  0  0  0  0  0  0
    9.6947   -4.8407   18.8534 C   0  0  0  0  0  0  0  0  0  0  0  0
    9.1596    1.7042   24.1381 C   0  0  0  0  0  0  0  0  0  0  0  0
   11.0456   -2.9774   18.2694 N   0  0  0  0  0  0  0  0  0  0  0  0
   10.4788   -3.0457   21.8593 C   0  0  0  0  0  0  0  0  0  0  0  0
    8.8693   -5.8099   18.4657 N   0  0  0  0  0  0  0  0  0  0  0  0
    8.9892   -0.7926   25.4573 C   0  0  0  0  0  0  0  0  0  0  0  0
   10.5677   -3.4462   20.5323 C   0  0  0  0  0  0  0  0  0  0  0  0
  1  8  1  0
  1 12  4  0
  1 14  4  0
  2  3  4  0
  2 18  4  0
  3 20  4  0
  3 22  4  0
  4 11  4  0
  4 21  4  0
  5  9  4  0
  5 16  4  0
  6 15  4  0
  6 16  4  0
  7 22  4  0
  7 26  4  0
  8 10  4  0
  8 25  4  0
  9 15  4  0
  9 17  1  0
 10 21  4  0
 11 25  4  0
 12 23  4  0
 13 20  4  0
 13 26  4  0
 14 19  4  0
 17 18  4  0
 17 24  4  0
 19 23  4  0
 20 24  4  0
 23 26  1  0
M  END
$$$$

 Created by Python create_sdf_string function

 26 30  0  0  0  0  0  0  0  0999 V2000
   10.0084   -1.8019   23.4945 C   0  0  0  0  0  0  0  0  0  0  0  0
   10.0005   -4.2520   16.5631 C   0  0  0  0  0  0  0  0  0  0  0  0
   10.2759   -4.0036   17.8845 C   0  0  0  0  0  0  0  0  0  0  0  0
    8.5652    1.5478   25.3778 N   0  0  0  0  0  0  0  0  0  0  0  0
    6.8048   -7.5457   17.8752 C   0  0  0  0  0  0  0  0  0  0  0  0
    6.1721   -8.2186   15.9886 N   0  0  0  0  0  0  0  0  0  0  0  0
   11.1764   -2.6600   19.5604 C   0  0  0  0  0  0  0  0  0  0  0  0
    9.5491   -0.6380   24.1912 C   0  0  0  0  0  0  0  0  0  0  0  0
    7.5337   -6.9256   16.9519 C   0  0  0  0  0  0  0  0  0  0  0  0
    9.6782    0.5671   23.5143 C   0  0  0  0  0  0  0  0  0  0  0  0
    8.4532    0.3482   26.0821 C   0  0  0  0  0  0  0  0  0  0  0  0
   10.4239   -1.7677   22.2230 N   0  0  0  0  0  0  0  0  0  0  0  0
    9.9468   -4.5953   20.1709 C   0  0  0  0  0  0  0  0  0  0  0  0
   10.0366   -3.0590   23.9864 N   0  0  0  0  0  0  0  0  0  0  0  0
    7.1191   -7.3636   15.7739 C   0  0  0  0  0  0  0  0  0  0  0  0
    5.9612   -8.3203   17.2732 N   0  0  0  0  0  0  0  0  0  0  0  0
    8.5296   -5.9814   17.1841 C   0  0  0  0  0  0  0  0  0  0  0  0
    9.1527   -5.2118   16.2116 C   0  0  0  0  0  0  0  0  0  0  0  0
   10.3364   -3.8368   22.9255 O   0  0  0  0  0  0  0  0  0  0  0  0
    9.6947   -4.8407   18.8534 C   0  0  0  0  0  0  0  0  0  0  0  0
    9.1596    1.7042   24.1381 C   0  0  0  0  0  0  0  0  0  0  0  0
   11.0456   -2.9774   18.2694 N   0  0  0  0  0  0  0  0  0  0  0  0
   10.4788   -3.0457   21.8593 C   0  0  0  0  0  0  0  0  0  0  0  0
    8.8693   -5.8099   18.4657 N   0  0  0  0  0  0  0  0  0  0  0  0
    8.9892   -0.7926   25.4573 C   0  0  0  0  0  0  0  0  0  0  0  0
   10.5677   -3.4462   20.5323 C   0  0  0  0  0  0  0  0  0  0  0  0
  1  8  1  0
  1 12  4  0
  1 14  4  0
  2  3  4  0
  2 18  4  0
  3 20  4  0
  3 22  4  0
  4 11  4  0
  4 21  4  0
  5  9  4  0
  5 16  4  0
  6 15  4  0
  6 16  4  0
  7 22  4  0
  7 26  4  0
  8 10  4  0
  8 25  4  0
  9 15  4  0
  9 17  1  0
 10 21  4  0
 11 25  4  0
 12 23  4  0
 13 20  4  0
 13 26  4  0
 14 19  4  0
 17 18  4  0
 17 24  4  0
 19 23  4  0
 20 24  4  0
 23 26  1  0
M  END
$$$$

 Created by Python create_sdf_string function

 26 30  0  0  0  0  0  0  0  0999 V2000
   10.0084   -1.8019   23.4945 C   0  0  0  0  0  0  0  0  0  0  0  0
   10.0005   -4.2520   16.5631 C   0  0  0  0  0  0  0  0  0  0  0  0
   10.2759   -4.0036   17.8845 C   0  0  0  0  0  0  0  0  0  0  0  0
    8.5652    1.5478   25.3778 N   0  0  0  0  0  0  0  0  0  0  0  0
    6.8048   -7.5457   17.8752 C   0  0  0  0  0  0  0  0  0  0  0  0
    6.1721   -8.2186   15.9886 N   0  0  0  0  0  0  0  0  0  0  0  0
   11.1764   -2.6600   19.5604 C   0  0  0  0  0  0  0  0  0  0  0  0
    9.5491   -0.6380   24.1912 C   0  0  0  0  0  0  0  0  0  0  0  0
    7.5337   -6.9256   16.9519 C   0  0  0  0  0  0  0  0  0  0  0  0
    9.6782    0.5671   23.5143 C   0  0  0  0  0  0  0  0  0  0  0  0
    8.4532    0.3482   26.0821 C   0  0  0  0  0  0  0  0  0  0  0  0
   10.4239   -1.7677   22.2230 N   0  0  0  0  0  0  0  0  0  0  0  0
    9.9468   -4.5953   20.1709 C   0  0  0  0  0  0  0  0  0  0  0  0
   10.0366   -3.0590   23.9864 N   0  0  0  0  0  0  0  0  0  0  0  0
    7.1191   -7.3636   15.7739 C   0  0  0  0  0  0  0  0  0  0  0  0
    5.9612   -8.3203   17.2732 N   0  0  0  0  0  0  0  0  0  0  0  0
    8.5296   -5.9814   17.1841 C   0  0  0  0  0  0  0  0  0  0  0  0
    9.1527   -5.2118   16.2116 C   0  0  0  0  0  0  0  0  0  0  0  0
   10.3364   -3.8368   22.9255 O   0  0  0  0  0  0  0  0  0  0  0  0
    9.6947   -4.8407   18.8534 C   0  0  0  0  0  0  0  0  0  0  0  0
    9.1596    1.7042   24.1381 C   0  0  0  0  0  0  0  0  0  0  0  0
   11.0456   -2.9774   18.2694 N   0  0  0  0  0  0  0  0  0  0  0  0
   10.4788   -3.0457   21.8593 C   0  0  0  0  0  0  0  0  0  0  0  0
    8.8693   -5.8099   18.4657 N   0  0  0  0  0  0  0  0  0  0  0  0
    8.9892   -0.7926   25.4573 C   0  0  0  0  0  0  0  0  0  0  0  0
   10.5677   -3.4462   20.5323 C   0  0  0  0  0  0  0  0  0  0  0  0
  1  8  1  0
  1 12  4  0
  1 14  4  0
  2  3  4  0
  2 18  4  0
  3 20  4  0
  3 22  4  0
  4 11  4  0
  4 21  4  0
  5  9  4  0
  5 16  4  0
  6 15  4  0
  6 16  4  0
  7 22  4  0
  7 26  4  0
  8 10  4  0
  8 25  4  0
  9 15  4  0
  9 17  1  0
 10 21  4  0
 11 25  4  0
 12 23  4  0
 13 20  4  0
 13 26  4  0
 14 19  4  0
 17 18  4  0
 17 24  4  0
 19 23  4  0
 20 24  4  0
 23 26  1  0
M  END
$$$$

 Created by Python create_sdf_string function

 26 30  0  0  0  0  0  0  0  0999 V2000
   10.0084   -1.8019   23.4945 C   0  0  0  0  0  0  0  0  0  0  0  0
   10.0005   -4.2520   16.5631 C   0  0  0  0  0  0  0  0  0  0  0  0
   10.2759   -4.0036   17.8845 C   0  0  0  0  0  0  0  0  0  0  0  0
    8.5652    1.5478   25.3778 N   0  0  0  0  0  0  0  0  0  0  0  0
    6.8048   -7.5457   17.8752 C   0  0  0  0  0  0  0  0  0  0  0  0
    6.1721   -8.2186   15.9886 N   0  0  0  0  0  0  0  0  0  0  0  0
   11.1764   -2.6600   19.5604 C   0  0  0  0  0  0  0  0  0  0  0  0
    9.5491   -0.6380   24.1912 C   0  0  0  0  0  0  0  0  0  0  0  0
    7.5337   -6.9256   16.9519 C   0  0  0  0  0  0  0  0  0  0  0  0
    9.6782    0.5671   23.5143 C   0  0  0  0  0  0  0  0  0  0  0  0
    8.4532    0.3482   26.0821 C   0  0  0  0  0  0  0  0  0  0  0  0
   10.4239   -1.7677   22.2230 N   0  0  0  0  0  0  0  0  0  0  0  0
    9.9468   -4.5953   20.1709 C   0  0  0  0  0  0  0  0  0  0  0  0
   10.0366   -3.0590   23.9864 N   0  0  0  0  0  0  0  0  0  0  0  0
    7.1191   -7.3636   15.7739 C   0  0  0  0  0  0  0  0  0  0  0  0
    5.9612   -8.3203   17.2732 N   0  0  0  0  0  0  0  0  0  0  0  0
    8.5296   -5.9814   17.1841 C   0  0  0  0  0  0  0  0  0  0  0  0
    9.1527   -5.2118   16.2116 C   0  0  0  0  0  0  0  0  0  0  0  0
   10.3364   -3.8368   22.9255 O   0  0  0  0  0  0  0  0  0  0  0  0
    9.6947   -4.8407   18.8534 C   0  0  0  0  0  0  0  0  0  0  0  0
    9.1596    1.7042   24.1381 C   0  0  0  0  0  0  0  0  0  0  0  0
   11.0456   -2.9774   18.2694 N   0  0  0  0  0  0  0  0  0  0  0  0
   10.4788   -3.0457   21.8593 C   0  0  0  0  0  0  0  0  0  0  0  0
    8.8693   -5.8099   18.4657 N   0  0  0  0  0  0  0  0  0  0  0  0
    8.9892   -0.7926   25.4573 C   0  0  0  0  0  0  0  0  0  0  0  0
   10.5677   -3.4462   20.5323 C   0  0  0  0  0  0  0  0  0  0  0  0
  1  8  1  0
  1 12  4  0
  1 14  4  0
  2  3  4  0
  2 18  4  0
  3 20  4  0
  3 22  4  0
  4 11  4  0
  4 21  4  0
  5  9  4  0
  5 16  4  0
  6 15  4  0
  6 16  4  0
  7 22  4  0
  7 26  4  0
  8 10  4  0
  8 25  4  0
  9 15  4  0
  9 17  1  0
 10 21  4  0
 11 25  4  0
 12 23  4  0
 13 20  4  0
 13 26  4  0
 14 19  4  0
 17 18  4  0
 17 24  4  0
 19 23  4  0
 20 24  4  0
 23 26  1  0
M  END
$$$$

 Created by Python create_sdf_string function

 26 30  0  0  0  0  0  0  0  0999 V2000
   10.0084   -1.8019   23.4945 C   0  0  0  0  0  0  0  0  0  0  0  0
   10.0005   -4.2520   16.5631 C   0  0  0  0  0  0  0  0  0  0  0  0
   10.2759   -4.0036   17.8845 C   0  0  0  0  0  0  0  0  0  0  0  0
    8.5652    1.5478   25.3778 N   0  0  0  0  0  0  0  0  0  0  0  0
    6.8048   -7.5457   17.8752 C   0  0  0  0  0  0  0  0  0  0  0  0
    6.1721   -8.2186   15.9886 N   0  0  0  0  0  0  0  0  0  0  0  0
   11.1764   -2.6600   19.5604 C   0  0  0  0  0  0  0  0  0  0  0  0
    9.5491   -0.6380   24.1912 C   0  0  0  0  0  0  0  0  0  0  0  0
    7.5337   -6.9256   16.9519 C   0  0  0  0  0  0  0  0  0  0  0  0
    9.6782    0.5671   23.5143 C   0  0  0  0  0  0  0  0  0  0  0  0
    8.4532    0.3482   26.0821 C   0  0  0  0  0  0  0  0  0  0  0  0
   10.4239   -1.7677   22.2230 N   0  0  0  0  0  0  0  0  0  0  0  0
    9.9468   -4.5953   20.1709 C   0  0  0  0  0  0  0  0  0  0  0  0
   10.0366   -3.0590   23.9864 N   0  0  0  0  0  0  0  0  0  0  0  0
    7.1191   -7.3636   15.7739 C   0  0  0  0  0  0  0  0  0  0  0  0
    5.9612   -8.3203   17.2732 N   0  0  0  0  0  0  0  0  0  0  0  0
    8.5296   -5.9814   17.1841 C   0  0  0  0  0  0  0  0  0  0  0  0
    9.1527   -5.2118   16.2116 C   0  0  0  0  0  0  0  0  0  0  0  0
   10.3364   -3.8368   22.9255 O   0  0  0  0  0  0  0  0  0  0  0  0
    9.6947   -4.8407   18.8534 C   0  0  0  0  0  0  0  0  0  0  0  0
    9.1596    1.7042   24.1381 C   0  0  0  0  0  0  0  0  0  0  0  0
   11.0456   -2.9774   18.2694 N   0  0  0  0  0  0  0  0  0  0  0  0
   10.4788   -3.0457   21.8593 C   0  0  0  0  0  0  0  0  0  0  0  0
    8.8693   -5.8099   18.4657 N   0  0  0  0  0  0  0  0  0  0  0  0
    8.9892   -0.7926   25.4573 C   0  0  0  0  0  0  0  0  0  0  0  0
   10.5677   -3.4462   20.5323 C   0  0  0  0  0  0  0  0  0  0  0  0
  1  8  1  0
  1 12  4  0
  1 14  4  0
  2  3  4  0
  2 18  4  0
  3 20  4  0
  3 22  4  0
  4 11  4  0
  4 21  4  0
  5  9  4  0
  5 16  4  0
  6 15  4  0
  6 16  4  0
  7 22  4  0
  7 26  4  0
  8 10  4  0
  8 25  4  0
  9 15  4  0
  9 17  1  0
 10 21  4  0
 11 25  4  0
 12 23  4  0
 13 20  4  0
 13 26  4  0
 14 19  4  0
 17 18  4  0
 17 24  4  0
 19 23  4  0
 20 24  4  0
 23 26  1  0
M  END
$$$$

 Created by Python create_sdf_string function

 26 30  0  0  0  0  0  0  0  0999 V2000
   10.0084   -1.8019   23.4945 C   0  0  0  0  0  0  0  0  0  0  0  0
   10.0005   -4.2520   16.5631 C   0  0  0  0  0  0  0  0  0  0  0  0
   10.2759   -4.0036   17.8845 C   0  0  0  0  0  0  0  0  0  0  0  0
    8.5652    1.5478   25.3778 N   0  0  0  0  0  0  0  0  0  0  0  0
    6.8048   -7.5457   17.8752 C   0  0  0  0  0  0  0  0  0  0  0  0
    6.1721   -8.2186   15.9886 N   0  0  0  0  0  0  0  0  0  0  0  0
   11.1764   -2.6600   19.5604 C   0  0  0  0  0  0  0  0  0  0  0  0
    9.5491   -0.6380   24.1912 C   0  0  0  0  0  0  0  0  0  0  0  0
    7.5337   -6.9256   16.9519 C   0  0  0  0  0  0  0  0  0  0  0  0
    9.6782    0.5671   23.5143 C   0  0  0  0  0  0  0  0  0  0  0  0
    8.4532    0.3482   26.0821 C   0  0  0  0  0  0  0  0  0  0  0  0
   10.4239   -1.7677   22.2230 N   0  0  0  0  0  0  0  0  0  0  0  0
    9.9468   -4.5953   20.1709 C   0  0  0  0  0  0  0  0  0  0  0  0
   10.0366   -3.0590   23.9864 N   0  0  0  0  0  0  0  0  0  0  0  0
    7.1191   -7.3636   15.7739 C   0  0  0  0  0  0  0  0  0  0  0  0
    5.9612   -8.3203   17.2732 N   0  0  0  0  0  0  0  0  0  0  0  0
    8.5296   -5.9814   17.1841 C   0  0  0  0  0  0  0  0  0  0  0  0
    9.1527   -5.2118   16.2116 C   0  0  0  0  0  0  0  0  0  0  0  0
   10.3364   -3.8368   22.9255 O   0  0  0  0  0  0  0  0  0  0  0  0
    9.6947   -4.8407   18.8534 C   0  0  0  0  0  0  0  0  0  0  0  0
    9.1596    1.7042   24.1381 C   0  0  0  0  0  0  0  0  0  0  0  0
   11.0456   -2.9774   18.2694 N   0  0  0  0  0  0  0  0  0  0  0  0
   10.4788   -3.0457   21.8593 C   0  0  0  0  0  0  0  0  0  0  0  0
    8.8693   -5.8099   18.4657 N   0  0  0  0  0  0  0  0  0  0  0  0
    8.9892   -0.7926   25.4573 C   0  0  0  0  0  0  0  0  0  0  0  0
   10.5677   -3.4462   20.5323 C   0  0  0  0  0  0  0  0  0  0  0  0
  1  8  1  0
  1 12  4  0
  1 14  4  0
  2  3  4  0
  2 18  4  0
  3 20  4  0
  3 22  4  0
  4 11  4  0
  4 21  4  0
  5  9  4  0
  5 16  4  0
  6 15  4  0
  6 16  4  0
  7 22  4  0
  7 26  4  0
  8 10  4  0
  8 25  4  0
  9 15  4  0
  9 17  1  0
 10 21  4  0
 11 25  4  0
 12 23  4  0
 13 20  4  0
 13 26  4  0
 14 19  4  0
 17 18  4  0
 17 24  4  0
 19 23  4  0
 20 24  4  0
 23 26  1  0
M  END
$$$$

 Created by Python create_sdf_string function

 26 30  0  0  0  0  0  0  0  0999 V2000
   10.0084   -1.8019   23.4945 C   0  0  0  0  0  0  0  0  0  0  0  0
   10.0005   -4.2520   16.5631 C   0  0  0  0  0  0  0  0  0  0  0  0
   10.2759   -4.0036   17.8845 C   0  0  0  0  0  0  0  0  0  0  0  0
    8.5652    1.5478   25.3778 N   0  0  0  0  0  0  0  0  0  0  0  0
    6.8048   -7.5457   17.8752 C   0  0  0  0  0  0  0  0  0  0  0  0
    6.1721   -8.2186   15.9886 N   0  0  0  0  0  0  0  0  0  0  0  0
   11.1764   -2.6600   19.5604 C   0  0  0  0  0  0  0  0  0  0  0  0
    9.5491   -0.6380   24.1912 C   0  0  0  0  0  0  0  0  0  0  0  0
    7.5337   -6.9256   16.9519 C   0  0  0  0  0  0  0  0  0  0  0  0
    9.6782    0.5671   23.5143 C   0  0  0  0  0  0  0  0  0  0  0  0
    8.4532    0.3482   26.0821 C   0  0  0  0  0  0  0  0  0  0  0  0
   10.4239   -1.7677   22.2230 N   0  0  0  0  0  0  0  0  0  0  0  0
    9.9468   -4.5953   20.1709 C   0  0  0  0  0  0  0  0  0  0  0  0
   10.0366   -3.0590   23.9864 N   0  0  0  0  0  0  0  0  0  0  0  0
    7.1191   -7.3636   15.7739 C   0  0  0  0  0  0  0  0  0  0  0  0
    5.9612   -8.3203   17.2732 N   0  0  0  0  0  0  0  0  0  0  0  0
    8.5296   -5.9814   17.1841 C   0  0  0  0  0  0  0  0  0  0  0  0
    9.1527   -5.2118   16.2116 C   0  0  0  0  0  0  0  0  0  0  0  0
   10.3364   -3.8368   22.9255 O   0  0  0  0  0  0  0  0  0  0  0  0
    9.6947   -4.8407   18.8534 C   0  0  0  0  0  0  0  0  0  0  0  0
    9.1596    1.7042   24.1381 C   0  0  0  0  0  0  0  0  0  0  0  0
   11.0456   -2.9774   18.2694 N   0  0  0  0  0  0  0  0  0  0  0  0
   10.4788   -3.0457   21.8593 C   0  0  0  0  0  0  0  0  0  0  0  0
    8.8693   -5.8099   18.4657 N   0  0  0  0  0  0  0  0  0  0  0  0
    8.9892   -0.7926   25.4573 C   0  0  0  0  0  0  0  0  0  0  0  0
   10.5677   -3.4462   20.5323 C   0  0  0  0  0  0  0  0  0  0  0  0
  1  8  1  0
  1 12  4  0
  1 14  4  0
  2  3  4  0
  2 18  4  0
  3 20  4  0
  3 22  4  0
  4 11  4  0
  4 21  4  0
  5  9  4  0
  5 16  4  0
  6 15  4  0
  6 16  4  0
  7 22  4  0
  7 26  4  0
  8 10  4  0
  8 25  4  0
  9 15  4  0
  9 17  1  0
 10 21  4  0
 11 25  4  0
 12 23  4  0
 13 20  4  0
 13 26  4  0
 14 19  4  0
 17 18  4  0
 17 24  4  0
 19 23  4  0
 20 24  4  0
 23 26  1  0
M  END
$$$$

 Created by Python create_sdf_string function

 26 30  0  0  0  0  0  0  0  0999 V2000
   10.0084   -1.8019   23.4945 C   0  0  0  0  0  0  0  0  0  0  0  0
   10.0005   -4.2520   16.5631 C   0  0  0  0  0  0  0  0  0  0  0  0
   10.2759   -4.0036   17.8845 C   0  0  0  0  0  0  0  0  0  0  0  0
    8.5652    1.5478   25.3778 N   0  0  0  0  0  0  0  0  0  0  0  0
    6.8048   -7.5457   17.8752 C   0  0  0  0  0  0  0  0  0  0  0  0
    6.1721   -8.2186   15.9886 N   0  0  0  0  0  0  0  0  0  0  0  0
   11.1764   -2.6600   19.5604 C   0  0  0  0  0  0  0  0  0  0  0  0
    9.5491   -0.6380   24.1912 C   0  0  0  0  0  0  0  0  0  0  0  0
    7.5337   -6.9256   16.9519 C   0  0  0  0  0  0  0  0  0  0  0  0
    9.6782    0.5671   23.5143 C   0  0  0  0  0  0  0  0  0  0  0  0
    8.4532    0.3482   26.0821 C   0  0  0  0  0  0  0  0  0  0  0  0
   10.4239   -1.7677   22.2230 N   0  0  0  0  0  0  0  0  0  0  0  0
    9.9468   -4.5953   20.1709 C   0  0  0  0  0  0  0  0  0  0  0  0
   10.0366   -3.0590   23.9864 N   0  0  0  0  0  0  0  0  0  0  0  0
    7.1191   -7.3636   15.7739 C   0  0  0  0  0  0  0  0  0  0  0  0
    5.9612   -8.3203   17.2732 N   0  0  0  0  0  0  0  0  0  0  0  0
    8.5296   -5.9814   17.1841 C   0  0  0  0  0  0  0  0  0  0  0  0
    9.1527   -5.2118   16.2116 C   0  0  0  0  0  0  0  0  0  0  0  0
   10.3364   -3.8368   22.9255 O   0  0  0  0  0  0  0  0  0  0  0  0
    9.6947   -4.8407   18.8534 C   0  0  0  0  0  0  0  0  0  0  0  0
    9.1596    1.7042   24.1381 C   0  0  0  0  0  0  0  0  0  0  0  0
   11.0456   -2.9774   18.2694 N   0  0  0  0  0  0  0  0  0  0  0  0
   10.4788   -3.0457   21.8593 C   0  0  0  0  0  0  0  0  0  0  0  0
    8.8693   -5.8099   18.4657 N   0  0  0  0  0  0  0  0  0  0  0  0
    8.9892   -0.7926   25.4573 C   0  0  0  0  0  0  0  0  0  0  0  0
   10.5677   -3.4462   20.5323 C   0  0  0  0  0  0  0  0  0  0  0  0
  1  8  1  0
  1 12  4  0
  1 14  4  0
  2  3  4  0
  2 18  4  0
  3 20  4  0
  3 22  4  0
  4 11  4  0
  4 21  4  0
  5  9  4  0
  5 16  4  0
  6 15  4  0
  6 16  4  0
  7 22  4  0
  7 26  4  0
  8 10  4  0
  8 25  4  0
  9 15  4  0
  9 17  1  0
 10 21  4  0
 11 25  4  0
 12 23  4  0
 13 20  4  0
 13 26  4  0
 14 19  4  0
 17 18  4  0
 17 24  4  0
 19 23  4  0
 20 24  4  0
 23 26  1  0
M  END
$$$$

 Created by Python create_sdf_string function

 26 30  0  0  0  0  0  0  0  0999 V2000
   10.0084   -1.8019   23.4945 C   0  0  0  0  0  0  0  0  0  0  0  0
   10.0005   -4.2520   16.5631 C   0  0  0  0  0  0  0  0  0  0  0  0
   10.2759   -4.0036   17.8845 C   0  0  0  0  0  0  0  0  0  0  0  0
    8.5652    1.5478   25.3778 N   0  0  0  0  0  0  0  0  0  0  0  0
    6.8048   -7.5457   17.8752 C   0  0  0  0  0  0  0  0  0  0  0  0
    6.1721   -8.2186   15.9886 N   0  0  0  0  0  0  0  0  0  0  0  0
   11.1764   -2.6600   19.5604 C   0  0  0  0  0  0  0  0  0  0  0  0
    9.5491   -0.6380   24.1912 C   0  0  0  0  0  0  0  0  0  0  0  0
    7.5337   -6.9256   16.9519 C   0  0  0  0  0  0  0  0  0  0  0  0
    9.6782    0.5671   23.5143 C   0  0  0  0  0  0  0  0  0  0  0  0
    8.4532    0.3482   26.0821 C   0  0  0  0  0  0  0  0  0  0  0  0
   10.4239   -1.7677   22.2230 N   0  0  0  0  0  0  0  0  0  0  0  0
    9.9468   -4.5953   20.1709 C   0  0  0  0  0  0  0  0  0  0  0  0
   10.0366   -3.0590   23.9864 N   0  0  0  0  0  0  0  0  0  0  0  0
    7.1191   -7.3636   15.7739 C   0  0  0  0  0  0  0  0  0  0  0  0
    5.9612   -8.3203   17.2732 N   0  0  0  0  0  0  0  0  0  0  0  0
    8.5296   -5.9814   17.1841 C   0  0  0  0  0  0  0  0  0  0  0  0
    9.1527   -5.2118   16.2116 C   0  0  0  0  0  0  0  0  0  0  0  0
   10.3364   -3.8368   22.9255 O   0  0  0  0  0  0  0  0  0  0  0  0
    9.6947   -4.8407   18.8534 C   0  0  0  0  0  0  0  0  0  0  0  0
    9.1596    1.7042   24.1381 C   0  0  0  0  0  0  0  0  0  0  0  0
   11.0456   -2.9774   18.2694 N   0  0  0  0  0  0  0  0  0  0  0  0
   10.4788   -3.0457   21.8593 C   0  0  0  0  0  0  0  0  0  0  0  0
    8.8693   -5.8099   18.4657 N   0  0  0  0  0  0  0  0  0  0  0  0
    8.9892   -0.7926   25.4573 C   0  0  0  0  0  0  0  0  0  0  0  0
   10.5677   -3.4462   20.5323 C   0  0  0  0  0  0  0  0  0  0  0  0
  1  8  1  0
  1 12  4  0
  1 14  4  0
  2  3  4  0
  2 18  4  0
  3 20  4  0
  3 22  4  0
  4 11  4  0
  4 21  4  0
  5  9  4  0
  5 16  4  0
  6 15  4  0
  6 16  4  0
  7 22  4  0
  7 26  4  0
  8 10  4  0
  8 25  4  0
  9 15  4  0
  9 17  1  0
 10 21  4  0
 11 25  4  0
 12 23  4  0
 13 20  4  0
 13 26  4  0
 14 19  4  0
 17 18  4  0
 17 24  4  0
 19 23  4  0
 20 24  4  0
 23 26  1  0
M  END
$$$$

 Created by Python create_sdf_string function

 26 30  0  0  0  0  0  0  0  0999 V2000
   10.0084   -1.8019   23.4945 C   0  0  0  0  0  0  0  0  0  0  0  0
   10.0005   -4.2520   16.5631 C   0  0  0  0  0  0  0  0  0  0  0  0
   10.2759   -4.0036   17.8845 C   0  0  0  0  0  0  0  0  0  0  0  0
    8.5652    1.5478   25.3778 N   0  0  0  0  0  0  0  0  0  0  0  0
    6.8048   -7.5457   17.8752 C   0  0  0  0  0  0  0  0  0  0  0  0
    6.1721   -8.2186   15.9886 N   0  0  0  0  0  0  0  0  0  0  0  0
   11.1764   -2.6600   19.5604 C   0  0  0  0  0  0  0  0  0  0  0  0
    9.5491   -0.6380   24.1912 C   0  0  0  0  0  0  0  0  0  0  0  0
    7.5337   -6.9256   16.9519 C   0  0  0  0  0  0  0  0  0  0  0  0
    9.6782    0.5671   23.5143 C   0  0  0  0  0  0  0  0  0  0  0  0
    8.4532    0.3482   26.0821 C   0  0  0  0  0  0  0  0  0  0  0  0
   10.4239   -1.7677   22.2230 N   0  0  0  0  0  0  0  0  0  0  0  0
    9.9468   -4.5953   20.1709 C   0  0  0  0  0  0  0  0  0  0  0  0
   10.0366   -3.0590   23.9864 N   0  0  0  0  0  0  0  0  0  0  0  0
    7.1191   -7.3636   15.7739 C   0  0  0  0  0  0  0  0  0  0  0  0
    5.9612   -8.3203   17.2732 N   0  0  0  0  0  0  0  0  0  0  0  0
    8.5296   -5.9814   17.1841 C   0  0  0  0  0  0  0  0  0  0  0  0
    9.1527   -5.2118   16.2116 C   0  0  0  0  0  0  0  0  0  0  0  0
   10.3364   -3.8368   22.9255 O   0  0  0  0  0  0  0  0  0  0  0  0
    9.6947   -4.8407   18.8534 C   0  0  0  0  0  0  0  0  0  0  0  0
    9.1596    1.7042   24.1381 C   0  0  0  0  0  0  0  0  0  0  0  0
   11.0456   -2.9774   18.2694 N   0  0  0  0  0  0  0  0  0  0  0  0
   10.4788   -3.0457   21.8593 C   0  0  0  0  0  0  0  0  0  0  0  0
    8.8693   -5.8099   18.4657 N   0  0  0  0  0  0  0  0  0  0  0  0
    8.9892   -0.7926   25.4573 C   0  0  0  0  0  0  0  0  0  0  0  0
   10.5677   -3.4462   20.5323 C   0  0  0  0  0  0  0  0  0  0  0  0
  1  8  1  0
  1 12  4  0
  1 14  4  0
  2  3  4  0
  2 18  4  0
  3 20  4  0
  3 22  4  0
  4 11  4  0
  4 21  4  0
  5  9  4  0
  5 16  4  0
  6 15  4  0
  6 16  4  0
  7 22  4  0
  7 26  4  0
  8 10  4  0
  8 25  4  0
  9 15  4  0
  9 17  1  0
 10 21  4  0
 11 25  4  0
 12 23  4  0
 13 20  4  0
 13 26  4  0
 14 19  4  0
 17 18  4  0
 17 24  4  0
 19 23  4  0
 20 24  4  0
 23 26  1  0
M  END
$$$$

 Created by Python create_sdf_string function

 26 30  0  0  0  0  0  0  0  0999 V2000
   10.0084   -1.8019   23.4945 C   0  0  0  0  0  0  0  0  0  0  0  0
   10.0005   -4.2520   16.5631 C   0  0  0  0  0  0  0  0  0  0  0  0
   10.2759   -4.0036   17.8845 C   0  0  0  0  0  0  0  0  0  0  0  0
    8.5652    1.5478   25.3778 N   0  0  0  0  0  0  0  0  0  0  0  0
    6.8048   -7.5457   17.8752 C   0  0  0  0  0  0  0  0  0  0  0  0
    6.1721   -8.2186   15.9886 N   0  0  0  0  0  0  0  0  0  0  0  0
   11.1764   -2.6600   19.5604 C   0  0  0  0  0  0  0  0  0  0  0  0
    9.5491   -0.6380   24.1912 C   0  0  0  0  0  0  0  0  0  0  0  0
    7.5337   -6.9256   16.9519 C   0  0  0  0  0  0  0  0  0  0  0  0
    9.6782    0.5671   23.5143 C   0  0  0  0  0  0  0  0  0  0  0  0
    8.4532    0.3482   26.0821 C   0  0  0  0  0  0  0  0  0  0  0  0
   10.4239   -1.7677   22.2230 N   0  0  0  0  0  0  0  0  0  0  0  0
    9.9468   -4.5953   20.1709 C   0  0  0  0  0  0  0  0  0  0  0  0
   10.0366   -3.0590   23.9864 N   0  0  0  0  0  0  0  0  0  0  0  0
    7.1191   -7.3636   15.7739 C   0  0  0  0  0  0  0  0  0  0  0  0
    5.9612   -8.3203   17.2732 N   0  0  0  0  0  0  0  0  0  0  0  0
    8.5296   -5.9814   17.1841 C   0  0  0  0  0  0  0  0  0  0  0  0
    9.1527   -5.2118   16.2116 C   0  0  0  0  0  0  0  0  0  0  0  0
   10.3364   -3.8368   22.9255 O   0  0  0  0  0  0  0  0  0  0  0  0
    9.6947   -4.8407   18.8534 C   0  0  0  0  0  0  0  0  0  0  0  0
    9.1596    1.7042   24.1381 C   0  0  0  0  0  0  0  0  0  0  0  0
   11.0456   -2.9774   18.2694 N   0  0  0  0  0  0  0  0  0  0  0  0
   10.4788   -3.0457   21.8593 C   0  0  0  0  0  0  0  0  0  0  0  0
    8.8693   -5.8099   18.4657 N   0  0  0  0  0  0  0  0  0  0  0  0
    8.9892   -0.7926   25.4573 C   0  0  0  0  0  0  0  0  0  0  0  0
   10.5677   -3.4462   20.5323 C   0  0  0  0  0  0  0  0  0  0  0  0
  1  8  1  0
  1 12  4  0
  1 14  4  0
  2  3  4  0
  2 18  4  0
  3 20  4  0
  3 22  4  0
  4 11  4  0
  4 21  4  0
  5  9  4  0
  5 16  4  0
  6 15  4  0
  6 16  4  0
  7 22  4  0
  7 26  4  0
  8 10  4  0
  8 25  4  0
  9 15  4  0
  9 17  1  0
 10 21  4  0
 11 25  4  0
 12 23  4  0
 13 20  4  0
 13 26  4  0
 14 19  4  0
 17 18  4  0
 17 24  4  0
 19 23  4  0
 20 24  4  0
 23 26  1  0
M  END
$$$$

 Created by Python create_sdf_string function

 26 30  0  0  0  0  0  0  0  0999 V2000
   10.0084   -1.8019   23.4945 C   0  0  0  0  0  0  0  0  0  0  0  0
   10.0005   -4.2520   16.5631 C   0  0  0  0  0  0  0  0  0  0  0  0
   10.2759   -4.0036   17.8845 C   0  0  0  0  0  0  0  0  0  0  0  0
    8.5652    1.5478   25.3778 N   0  0  0  0  0  0  0  0  0  0  0  0
    6.8048   -7.5457   17.8752 C   0  0  0  0  0  0  0  0  0  0  0  0
    6.1721   -8.2186   15.9886 N   0  0  0  0  0  0  0  0  0  0  0  0
   11.1764   -2.6600   19.5604 C   0  0  0  0  0  0  0  0  0  0  0  0
    9.5491   -0.6380   24.1912 C   0  0  0  0  0  0  0  0  0  0  0  0
    7.5337   -6.9256   16.9519 C   0  0  0  0  0  0  0  0  0  0  0  0
    9.6782    0.5671   23.5143 C   0  0  0  0  0  0  0  0  0  0  0  0
    8.4532    0.3482   26.0821 C   0  0  0  0  0  0  0  0  0  0  0  0
   10.4239   -1.7677   22.2230 N   0  0  0  0  0  0  0  0  0  0  0  0
    9.9468   -4.5953   20.1709 C   0  0  0  0  0  0  0  0  0  0  0  0
   10.0366   -3.0590   23.9864 N   0  0  0  0  0  0  0  0  0  0  0  0
    7.1191   -7.3636   15.7739 C   0  0  0  0  0  0  0  0  0  0  0  0
    5.9612   -8.3203   17.2732 N   0  0  0  0  0  0  0  0  0  0  0  0
    8.5296   -5.9814   17.1841 C   0  0  0  0  0  0  0  0  0  0  0  0
    9.1527   -5.2118   16.2116 C   0  0  0  0  0  0  0  0  0  0  0  0
   10.3364   -3.8368   22.9255 O   0  0  0  0  0  0  0  0  0  0  0  0
    9.6947   -4.8407   18.8534 C   0  0  0  0  0  0  0  0  0  0  0  0
    9.1596    1.7042   24.1381 C   0  0  0  0  0  0  0  0  0  0  0  0
   11.0456   -2.9774   18.2694 N   0  0  0  0  0  0  0  0  0  0  0  0
   10.4788   -3.0457   21.8593 C   0  0  0  0  0  0  0  0  0  0  0  0
    8.8693   -5.8099   18.4657 N   0  0  0  0  0  0  0  0  0  0  0  0
    8.9892   -0.7926   25.4573 C   0  0  0  0  0  0  0  0  0  0  0  0
   10.5677   -3.4462   20.5323 C   0  0  0  0  0  0  0  0  0  0  0  0
  1  8  1  0
  1 12  4  0
  1 14  4  0
  2  3  4  0
  2 18  4  0
  3 20  4  0
  3 22  4  0
  4 11  4  0
  4 21  4  0
  5  9  4  0
  5 16  4  0
  6 15  4  0
  6 16  4  0
  7 22  4  0
  7 26  4  0
  8 10  4  0
  8 25  4  0
  9 15  4  0
  9 17  1  0
 10 21  4  0
 11 25  4  0
 12 23  4  0
 13 20  4  0
 13 26  4  0
 14 19  4  0
 17 18  4  0
 17 24  4  0
 19 23  4  0
 20 24  4  0
 23 26  1  0
M  END
$$$$

 Created by Python create_sdf_string function

 26 30  0  0  0  0  0  0  0  0999 V2000
   10.0084   -1.8019   23.4945 C   0  0  0  0  0  0  0  0  0  0  0  0
   10.0005   -4.2520   16.5631 C   0  0  0  0  0  0  0  0  0  0  0  0
   10.2759   -4.0036   17.8845 C   0  0  0  0  0  0  0  0  0  0  0  0
    8.5652    1.5478   25.3778 N   0  0  0  0  0  0  0  0  0  0  0  0
    6.8048   -7.5457   17.8752 C   0  0  0  0  0  0  0  0  0  0  0  0
    6.1721   -8.2186   15.9886 N   0  0  0  0  0  0  0  0  0  0  0  0
   11.1764   -2.6600   19.5604 C   0  0  0  0  0  0  0  0  0  0  0  0
    9.5491   -0.6380   24.1912 C   0  0  0  0  0  0  0  0  0  0  0  0
    7.5337   -6.9256   16.9519 C   0  0  0  0  0  0  0  0  0  0  0  0
    9.6782    0.5671   23.5143 C   0  0  0  0  0  0  0  0  0  0  0  0
    8.4532    0.3482   26.0821 C   0  0  0  0  0  0  0  0  0  0  0  0
   10.4239   -1.7677   22.2230 N   0  0  0  0  0  0  0  0  0  0  0  0
    9.9468   -4.5953   20.1709 C   0  0  0  0  0  0  0  0  0  0  0  0
   10.0366   -3.0590   23.9864 N   0  0  0  0  0  0  0  0  0  0  0  0
    7.1191   -7.3636   15.7739 C   0  0  0  0  0  0  0  0  0  0  0  0
    5.9612   -8.3203   17.2732 N   0  0  0  0  0  0  0  0  0  0  0  0
    8.5296   -5.9814   17.1841 C   0  0  0  0  0  0  0  0  0  0  0  0
    9.1527   -5.2118   16.2116 C   0  0  0  0  0  0  0  0  0  0  0  0
   10.3364   -3.8368   22.9255 O   0  0  0  0  0  0  0  0  0  0  0  0
    9.6947   -4.8407   18.8534 C   0  0  0  0  0  0  0  0  0  0  0  0
    9.1596    1.7042   24.1381 C   0  0  0  0  0  0  0  0  0  0  0  0
   11.0456   -2.9774   18.2694 N   0  0  0  0  0  0  0  0  0  0  0  0
   10.4788   -3.0457   21.8593 C   0  0  0  0  0  0  0  0  0  0  0  0
    8.8693   -5.8099   18.4657 N   0  0  0  0  0  0  0  0  0  0  0  0
    8.9892   -0.7926   25.4573 C   0  0  0  0  0  0  0  0  0  0  0  0
   10.5677   -3.4462   20.5323 C   0  0  0  0  0  0  0  0  0  0  0  0
  1  8  1  0
  1 12  4  0
  1 14  4  0
  2  3  4  0
  2 18  4  0
  3 20  4  0
  3 22  4  0
  4 11  4  0
  4 21  4  0
  5  9  4  0
  5 16  4  0
  6 15  4  0
  6 16  4  0
  7 22  4  0
  7 26  4  0
  8 10  4  0
  8 25  4  0
  9 15  4  0
  9 17  1  0
 10 21  4  0
 11 25  4  0
 12 23  4  0
 13 20  4  0
 13 26  4  0
 14 19  4  0
 17 18  4  0
 17 24  4  0
 19 23  4  0
 20 24  4  0
 23 26  1  0
M  END
$$$$

 Created by Python create_sdf_string function

 26 30  0  0  0  0  0  0  0  0999 V2000
   10.0084   -1.8019   23.4945 C   0  0  0  0  0  0  0  0  0  0  0  0
   10.0005   -4.2520   16.5631 C   0  0  0  0  0  0  0  0  0  0  0  0
   10.2759   -4.0036   17.8845 C   0  0  0  0  0  0  0  0  0  0  0  0
    8.5652    1.5478   25.3778 N   0  0  0  0  0  0  0  0  0  0  0  0
    6.8048   -7.5457   17.8752 C   0  0  0  0  0  0  0  0  0  0  0  0
    6.1721   -8.2186   15.9886 N   0  0  0  0  0  0  0  0  0  0  0  0
   11.1764   -2.6600   19.5604 C   0  0  0  0  0  0  0  0  0  0  0  0
    9.5491   -0.6380   24.1912 C   0  0  0  0  0  0  0  0  0  0  0  0
    7.5337   -6.9256   16.9519 C   0  0  0  0  0  0  0  0  0  0  0  0
    9.6782    0.5671   23.5143 C   0  0  0  0  0  0  0  0  0  0  0  0
    8.4532    0.3482   26.0821 C   0  0  0  0  0  0  0  0  0  0  0  0
   10.4239   -1.7677   22.2230 N   0  0  0  0  0  0  0  0  0  0  0  0
    9.9468   -4.5953   20.1709 C   0  0  0  0  0  0  0  0  0  0  0  0
   10.0366   -3.0590   23.9864 N   0  0  0  0  0  0  0  0  0  0  0  0
    7.1191   -7.3636   15.7739 C   0  0  0  0  0  0  0  0  0  0  0  0
    5.9612   -8.3203   17.2732 N   0  0  0  0  0  0  0  0  0  0  0  0
    8.5296   -5.9814   17.1841 C   0  0  0  0  0  0  0  0  0  0  0  0
    9.1527   -5.2118   16.2116 C   0  0  0  0  0  0  0  0  0  0  0  0
   10.3364   -3.8368   22.9255 O   0  0  0  0  0  0  0  0  0  0  0  0
    9.6947   -4.8407   18.8534 C   0  0  0  0  0  0  0  0  0  0  0  0
    9.1596    1.7042   24.1381 C   0  0  0  0  0  0  0  0  0  0  0  0
   11.0456   -2.9774   18.2694 N   0  0  0  0  0  0  0  0  0  0  0  0
   10.4788   -3.0457   21.8593 C   0  0  0  0  0  0  0  0  0  0  0  0
    8.8693   -5.8099   18.4657 N   0  0  0  0  0  0  0  0  0  0  0  0
    8.9892   -0.7926   25.4573 C   0  0  0  0  0  0  0  0  0  0  0  0
   10.5677   -3.4462   20.5323 C   0  0  0  0  0  0  0  0  0  0  0  0
  1  8  1  0
  1 12  4  0
  1 14  4  0
  2  3  4  0
  2 18  4  0
  3 20  4  0
  3 22  4  0
  4 11  4  0
  4 21  4  0
  5  9  4  0
  5 16  4  0
  6 15  4  0
  6 16  4  0
  7 22  4  0
  7 26  4  0
  8 10  4  0
  8 25  4  0
  9 15  4  0
  9 17  1  0
 10 21  4  0
 11 25  4  0
 12 23  4  0
 13 20  4  0
 13 26  4  0
 14 19  4  0
 17 18  4  0
 17 24  4  0
 19 23  4  0
 20 24  4  0
 23 26  1  0
M  END
$$$$

 Created by Python create_sdf_string function

 26 30  0  0  0  0  0  0  0  0999 V2000
   10.0084   -1.8019   23.4945 C   0  0  0  0  0  0  0  0  0  0  0  0
   10.0005   -4.2520   16.5631 C   0  0  0  0  0  0  0  0  0  0  0  0
   10.2759   -4.0036   17.8845 C   0  0  0  0  0  0  0  0  0  0  0  0
    8.5652    1.5478   25.3778 N   0  0  0  0  0  0  0  0  0  0  0  0
    6.8048   -7.5457   17.8752 C   0  0  0  0  0  0  0  0  0  0  0  0
    6.1721   -8.2186   15.9886 N   0  0  0  0  0  0  0  0  0  0  0  0
   11.1764   -2.6600   19.5604 C   0  0  0  0  0  0  0  0  0  0  0  0
    9.5491   -0.6380   24.1912 C   0  0  0  0  0  0  0  0  0  0  0  0
    7.5337   -6.9256   16.9519 C   0  0  0  0  0  0  0  0  0  0  0  0
    9.6782    0.5671   23.5143 C   0  0  0  0  0  0  0  0  0  0  0  0
    8.4532    0.3482   26.0821 C   0  0  0  0  0  0  0  0  0  0  0  0
   10.4239   -1.7677   22.2230 N   0  0  0  0  0  0  0  0  0  0  0  0
    9.9468   -4.5953   20.1709 C   0  0  0  0  0  0  0  0  0  0  0  0
   10.0366   -3.0590   23.9864 N   0  0  0  0  0  0  0  0  0  0  0  0
    7.1191   -7.3636   15.7739 C   0  0  0  0  0  0  0  0  0  0  0  0
    5.9612   -8.3203   17.2732 N   0  0  0  0  0  0  0  0  0  0  0  0
    8.5296   -5.9814   17.1841 C   0  0  0  0  0  0  0  0  0  0  0  0
    9.1527   -5.2118   16.2116 C   0  0  0  0  0  0  0  0  0  0  0  0
   10.3364   -3.8368   22.9255 O   0  0  0  0  0  0  0  0  0  0  0  0
    9.6947   -4.8407   18.8534 C   0  0  0  0  0  0  0  0  0  0  0  0
    9.1596    1.7042   24.1381 C   0  0  0  0  0  0  0  0  0  0  0  0
   11.0456   -2.9774   18.2694 N   0  0  0  0  0  0  0  0  0  0  0  0
   10.4788   -3.0457   21.8593 C   0  0  0  0  0  0  0  0  0  0  0  0
    8.8693   -5.8099   18.4657 N   0  0  0  0  0  0  0  0  0  0  0  0
    8.9892   -0.7926   25.4573 C   0  0  0  0  0  0  0  0  0  0  0  0
   10.5677   -3.4462   20.5323 C   0  0  0  0  0  0  0  0  0  0  0  0
  1  8  1  0
  1 12  4  0
  1 14  4  0
  2  3  4  0
  2 18  4  0
  3 20  4  0
  3 22  4  0
  4 11  4  0
  4 21  4  0
  5  9  4  0
  5 16  4  0
  6 15  4  0
  6 16  4  0
  7 22  4  0
  7 26  4  0
  8 10  4  0
  8 25  4  0
  9 15  4  0
  9 17  1  0
 10 21  4  0
 11 25  4  0
 12 23  4  0
 13 20  4  0
 13 26  4  0
 14 19  4  0
 17 18  4  0
 17 24  4  0
 19 23  4  0
 20 24  4  0
 23 26  1  0
M  END
$$$$

 Created by Python create_sdf_string function

 26 30  0  0  0  0  0  0  0  0999 V2000
   10.0084   -1.8019   23.4945 C   0  0  0  0  0  0  0  0  0  0  0  0
   10.0005   -4.2520   16.5631 C   0  0  0  0  0  0  0  0  0  0  0  0
   10.2759   -4.0036   17.8845 C   0  0  0  0  0  0  0  0  0  0  0  0
    8.5652    1.5478   25.3778 N   0  0  0  0  0  0  0  0  0  0  0  0
    6.8048   -7.5457   17.8752 C   0  0  0  0  0  0  0  0  0  0  0  0
    6.1721   -8.2186   15.9886 N   0  0  0  0  0  0  0  0  0  0  0  0
   11.1764   -2.6600   19.5604 C   0  0  0  0  0  0  0  0  0  0  0  0
    9.5491   -0.6380   24.1912 C   0  0  0  0  0  0  0  0  0  0  0  0
    7.5337   -6.9256   16.9519 C   0  0  0  0  0  0  0  0  0  0  0  0
    9.6782    0.5671   23.5143 C   0  0  0  0  0  0  0  0  0  0  0  0
    8.4532    0.3482   26.0821 C   0  0  0  0  0  0  0  0  0  0  0  0
   10.4239   -1.7677   22.2230 N   0  0  0  0  0  0  0  0  0  0  0  0
    9.9468   -4.5953   20.1709 C   0  0  0  0  0  0  0  0  0  0  0  0
   10.0366   -3.0590   23.9864 N   0  0  0  0  0  0  0  0  0  0  0  0
    7.1191   -7.3636   15.7739 C   0  0  0  0  0  0  0  0  0  0  0  0
    5.9612   -8.3203   17.2732 N   0  0  0  0  0  0  0  0  0  0  0  0
    8.5296   -5.9814   17.1841 C   0  0  0  0  0  0  0  0  0  0  0  0
    9.1527   -5.2118   16.2116 C   0  0  0  0  0  0  0  0  0  0  0  0
   10.3364   -3.8368   22.9255 O   0  0  0  0  0  0  0  0  0  0  0  0
    9.6947   -4.8407   18.8534 C   0  0  0  0  0  0  0  0  0  0  0  0
    9.1596    1.7042   24.1381 C   0  0  0  0  0  0  0  0  0  0  0  0
   11.0456   -2.9774   18.2694 N   0  0  0  0  0  0  0  0  0  0  0  0
   10.4788   -3.0457   21.8593 C   0  0  0  0  0  0  0  0  0  0  0  0
    8.8693   -5.8099   18.4657 N   0  0  0  0  0  0  0  0  0  0  0  0
    8.9892   -0.7926   25.4573 C   0  0  0  0  0  0  0  0  0  0  0  0
   10.5677   -3.4462   20.5323 C   0  0  0  0  0  0  0  0  0  0  0  0
  1  8  1  0
  1 12  4  0
  1 14  4  0
  2  3  4  0
  2 18  4  0
  3 20  4  0
  3 22  4  0
  4 11  4  0
  4 21  4  0
  5  9  4  0
  5 16  4  0
  6 15  4  0
  6 16  4  0
  7 22  4  0
  7 26  4  0
  8 10  4  0
  8 25  4  0
  9 15  4  0
  9 17  1  0
 10 21  4  0
 11 25  4  0
 12 23  4  0
 13 20  4  0
 13 26  4  0
 14 19  4  0
 17 18  4  0
 17 24  4  0
 19 23  4  0
 20 24  4  0
 23 26  1  0
M  END
$$$$

 Created by Python create_sdf_string function

 26 30  0  0  0  0  0  0  0  0999 V2000
   10.0084   -1.8019   23.4945 C   0  0  0  0  0  0  0  0  0  0  0  0
   10.0005   -4.2520   16.5631 C   0  0  0  0  0  0  0  0  0  0  0  0
   10.2759   -4.0036   17.8845 C   0  0  0  0  0  0  0  0  0  0  0  0
    8.5652    1.5478   25.3778 N   0  0  0  0  0  0  0  0  0  0  0  0
    6.8048   -7.5457   17.8752 C   0  0  0  0  0  0  0  0  0  0  0  0
    6.1721   -8.2186   15.9886 N   0  0  0  0  0  0  0  0  0  0  0  0
   11.1764   -2.6600   19.5604 C   0  0  0  0  0  0  0  0  0  0  0  0
    9.5491   -0.6380   24.1912 C   0  0  0  0  0  0  0  0  0  0  0  0
    7.5337   -6.9256   16.9519 C   0  0  0  0  0  0  0  0  0  0  0  0
    9.6782    0.5671   23.5143 C   0  0  0  0  0  0  0  0  0  0  0  0
    8.4532    0.3482   26.0821 C   0  0  0  0  0  0  0  0  0  0  0  0
   10.4239   -1.7677   22.2230 N   0  0  0  0  0  0  0  0  0  0  0  0
    9.9468   -4.5953   20.1709 C   0  0  0  0  0  0  0  0  0  0  0  0
   10.0366   -3.0590   23.9864 N   0  0  0  0  0  0  0  0  0  0  0  0
    7.1191   -7.3636   15.7739 C   0  0  0  0  0  0  0  0  0  0  0  0
    5.9612   -8.3203   17.2732 N   0  0  0  0  0  0  0  0  0  0  0  0
    8.5296   -5.9814   17.1841 C   0  0  0  0  0  0  0  0  0  0  0  0
    9.1527   -5.2118   16.2116 C   0  0  0  0  0  0  0  0  0  0  0  0
   10.3364   -3.8368   22.9255 O   0  0  0  0  0  0  0  0  0  0  0  0
    9.6947   -4.8407   18.8534 C   0  0  0  0  0  0  0  0  0  0  0  0
    9.1596    1.7042   24.1381 C   0  0  0  0  0  0  0  0  0  0  0  0
   11.0456   -2.9774   18.2694 N   0  0  0  0  0  0  0  0  0  0  0  0
   10.4788   -3.0457   21.8593 C   0  0  0  0  0  0  0  0  0  0  0  0
    8.8693   -5.8099   18.4657 N   0  0  0  0  0  0  0  0  0  0  0  0
    8.9892   -0.7926   25.4573 C   0  0  0  0  0  0  0  0  0  0  0  0
   10.5677   -3.4462   20.5323 C   0  0  0  0  0  0  0  0  0  0  0  0
  1  8  1  0
  1 12  4  0
  1 14  4  0
  2  3  4  0
  2 18  4  0
  3 20  4  0
  3 22  4  0
  4 11  4  0
  4 21  4  0
  5  9  4  0
  5 16  4  0
  6 15  4  0
  6 16  4  0
  7 22  4  0
  7 26  4  0
  8 10  4  0
  8 25  4  0
  9 15  4  0
  9 17  1  0
 10 21  4  0
 11 25  4  0
 12 23  4  0
 13 20  4  0
 13 26  4  0
 14 19  4  0
 17 18  4  0
 17 24  4  0
 19 23  4  0
 20 24  4  0
 23 26  1  0
M  END
$$$$

 Created by Python create_sdf_string function

 26 30  0  0  0  0  0  0  0  0999 V2000
   10.0084   -1.8019   23.4945 C   0  0  0  0  0  0  0  0  0  0  0  0
   10.0005   -4.2520   16.5631 C   0  0  0  0  0  0  0  0  0  0  0  0
   10.2759   -4.0036   17.8845 C   0  0  0  0  0  0  0  0  0  0  0  0
    8.5652    1.5478   25.3778 N   0  0  0  0  0  0  0  0  0  0  0  0
    6.8048   -7.5457   17.8752 C   0  0  0  0  0  0  0  0  0  0  0  0
    6.1721   -8.2186   15.9886 N   0  0  0  0  0  0  0  0  0  0  0  0
   11.1764   -2.6600   19.5604 C   0  0  0  0  0  0  0  0  0  0  0  0
    9.5491   -0.6380   24.1912 C   0  0  0  0  0  0  0  0  0  0  0  0
    7.5337   -6.9256   16.9519 C   0  0  0  0  0  0  0  0  0  0  0  0
    9.6782    0.5671   23.5143 C   0  0  0  0  0  0  0  0  0  0  0  0
    8.4532    0.3482   26.0821 C   0  0  0  0  0  0  0  0  0  0  0  0
   10.4239   -1.7677   22.2230 N   0  0  0  0  0  0  0  0  0  0  0  0
    9.9468   -4.5953   20.1709 C   0  0  0  0  0  0  0  0  0  0  0  0
   10.0366   -3.0590   23.9864 N   0  0  0  0  0  0  0  0  0  0  0  0
    7.1191   -7.3636   15.7739 C   0  0  0  0  0  0  0  0  0  0  0  0
    5.9612   -8.3203   17.2732 N   0  0  0  0  0  0  0  0  0  0  0  0
    8.5296   -5.9814   17.1841 C   0  0  0  0  0  0  0  0  0  0  0  0
    9.1527   -5.2118   16.2116 C   0  0  0  0  0  0  0  0  0  0  0  0
   10.3364   -3.8368   22.9255 O   0  0  0  0  0  0  0  0  0  0  0  0
    9.6947   -4.8407   18.8534 C   0  0  0  0  0  0  0  0  0  0  0  0
    9.1596    1.7042   24.1381 C   0  0  0  0  0  0  0  0  0  0  0  0
   11.0456   -2.9774   18.2694 N   0  0  0  0  0  0  0  0  0  0  0  0
   10.4788   -3.0457   21.8593 C   0  0  0  0  0  0  0  0  0  0  0  0
    8.8693   -5.8099   18.4657 N   0  0  0  0  0  0  0  0  0  0  0  0
    8.9892   -0.7926   25.4573 C   0  0  0  0  0  0  0  0  0  0  0  0
   10.5677   -3.4462   20.5323 C   0  0  0  0  0  0  0  0  0  0  0  0
  1  8  1  0
  1 12  4  0
  1 14  4  0
  2  3  4  0
  2 18  4  0
  3 20  4  0
  3 22  4  0
  4 11  4  0
  4 21  4  0
  5  9  4  0
  5 16  4  0
  6 15  4  0
  6 16  4  0
  7 22  4  0
  7 26  4  0
  8 10  4  0
  8 25  4  0
  9 15  4  0
  9 17  1  0
 10 21  4  0
 11 25  4  0
 12 23  4  0
 13 20  4  0
 13 26  4  0
 14 19  4  0
 17 18  4  0
 17 24  4  0
 19 23  4  0
 20 24  4  0
 23 26  1  0
M  END
$$$$

 Created by Python create_sdf_string function

 26 30  0  0  0  0  0  0  0  0999 V2000
   10.0084   -1.8019   23.4945 C   0  0  0  0  0  0  0  0  0  0  0  0
   10.0005   -4.2520   16.5631 C   0  0  0  0  0  0  0  0  0  0  0  0
   10.2759   -4.0036   17.8845 C   0  0  0  0  0  0  0  0  0  0  0  0
    8.5652    1.5478   25.3778 N   0  0  0  0  0  0  0  0  0  0  0  0
    6.8048   -7.5457   17.8752 C   0  0  0  0  0  0  0  0  0  0  0  0
    6.1721   -8.2186   15.9886 N   0  0  0  0  0  0  0  0  0  0  0  0
   11.1764   -2.6600   19.5604 C   0  0  0  0  0  0  0  0  0  0  0  0
    9.5491   -0.6380   24.1912 C   0  0  0  0  0  0  0  0  0  0  0  0
    7.5337   -6.9256   16.9519 C   0  0  0  0  0  0  0  0  0  0  0  0
    9.6782    0.5671   23.5143 C   0  0  0  0  0  0  0  0  0  0  0  0
    8.4532    0.3482   26.0821 C   0  0  0  0  0  0  0  0  0  0  0  0
   10.4239   -1.7677   22.2230 N   0  0  0  0  0  0  0  0  0  0  0  0
    9.9468   -4.5953   20.1709 C   0  0  0  0  0  0  0  0  0  0  0  0
   10.0366   -3.0590   23.9864 N   0  0  0  0  0  0  0  0  0  0  0  0
    7.1191   -7.3636   15.7739 C   0  0  0  0  0  0  0  0  0  0  0  0
    5.9612   -8.3203   17.2732 N   0  0  0  0  0  0  0  0  0  0  0  0
    8.5296   -5.9814   17.1841 C   0  0  0  0  0  0  0  0  0  0  0  0
    9.1527   -5.2118   16.2116 C   0  0  0  0  0  0  0  0  0  0  0  0
   10.3364   -3.8368   22.9255 O   0  0  0  0  0  0  0  0  0  0  0  0
    9.6947   -4.8407   18.8534 C   0  0  0  0  0  0  0  0  0  0  0  0
    9.1596    1.7042   24.1381 C   0  0  0  0  0  0  0  0  0  0  0  0
   11.0456   -2.9774   18.2694 N   0  0  0  0  0  0  0  0  0  0  0  0
   10.4788   -3.0457   21.8593 C   0  0  0  0  0  0  0  0  0  0  0  0
    8.8693   -5.8099   18.4657 N   0  0  0  0  0  0  0  0  0  0  0  0
    8.9892   -0.7926   25.4573 C   0  0  0  0  0  0  0  0  0  0  0  0
   10.5677   -3.4462   20.5323 C   0  0  0  0  0  0  0  0  0  0  0  0
  1  8  1  0
  1 12  4  0
  1 14  4  0
  2  3  4  0
  2 18  4  0
  3 20  4  0
  3 22  4  0
  4 11  4  0
  4 21  4  0
  5  9  4  0
  5 16  4  0
  6 15  4  0
  6 16  4  0
  7 22  4  0
  7 26  4  0
  8 10  4  0
  8 25  4  0
  9 15  4  0
  9 17  1  0
 10 21  4  0
 11 25  4  0
 12 23  4  0
 13 20  4  0
 13 26  4  0
 14 19  4  0
 17 18  4  0
 17 24  4  0
 19 23  4  0
 20 24  4  0
 23 26  1  0
M  END
$$$$

 Created by Python create_sdf_string function

 26 30  0  0  0  0  0  0  0  0999 V2000
   10.0084   -1.8019   23.4945 C   0  0  0  0  0  0  0  0  0  0  0  0
   10.0005   -4.2520   16.5631 C   0  0  0  0  0  0  0  0  0  0  0  0
   10.2759   -4.0036   17.8845 C   0  0  0  0  0  0  0  0  0  0  0  0
    8.5652    1.5478   25.3778 N   0  0  0  0  0  0  0  0  0  0  0  0
    6.8048   -7.5457   17.8752 C   0  0  0  0  0  0  0  0  0  0  0  0
    6.1721   -8.2186   15.9886 N   0  0  0  0  0  0  0  0  0  0  0  0
   11.1764   -2.6600   19.5604 C   0  0  0  0  0  0  0  0  0  0  0  0
    9.5491   -0.6380   24.1912 C   0  0  0  0  0  0  0  0  0  0  0  0
    7.5337   -6.9256   16.9519 C   0  0  0  0  0  0  0  0  0  0  0  0
    9.6782    0.5671   23.5143 C   0  0  0  0  0  0  0  0  0  0  0  0
    8.4532    0.3482   26.0821 C   0  0  0  0  0  0  0  0  0  0  0  0
   10.4239   -1.7677   22.2230 N   0  0  0  0  0  0  0  0  0  0  0  0
    9.9468   -4.5953   20.1709 C   0  0  0  0  0  0  0  0  0  0  0  0
   10.0366   -3.0590   23.9864 N   0  0  0  0  0  0  0  0  0  0  0  0
    7.1191   -7.3636   15.7739 C   0  0  0  0  0  0  0  0  0  0  0  0
    5.9612   -8.3203   17.2732 N   0  0  0  0  0  0  0  0  0  0  0  0
    8.5296   -5.9814   17.1841 C   0  0  0  0  0  0  0  0  0  0  0  0
    9.1527   -5.2118   16.2116 C   0  0  0  0  0  0  0  0  0  0  0  0
   10.3364   -3.8368   22.9255 O   0  0  0  0  0  0  0  0  0  0  0  0
    9.6947   -4.8407   18.8534 C   0  0  0  0  0  0  0  0  0  0  0  0
    9.1596    1.7042   24.1381 C   0  0  0  0  0  0  0  0  0  0  0  0
   11.0456   -2.9774   18.2694 N   0  0  0  0  0  0  0  0  0  0  0  0
   10.4788   -3.0457   21.8593 C   0  0  0  0  0  0  0  0  0  0  0  0
    8.8693   -5.8099   18.4657 N   0  0  0  0  0  0  0  0  0  0  0  0
    8.9892   -0.7926   25.4573 C   0  0  0  0  0  0  0  0  0  0  0  0
   10.5677   -3.4462   20.5323 C   0  0  0  0  0  0  0  0  0  0  0  0
  1  8  1  0
  1 12  4  0
  1 14  4  0
  2  3  4  0
  2 18  4  0
  3 20  4  0
  3 22  4  0
  4 11  4  0
  4 21  4  0
  5  9  4  0
  5 16  4  0
  6 15  4  0
  6 16  4  0
  7 22  4  0
  7 26  4  0
  8 10  4  0
  8 25  4  0
  9 15  4  0
  9 17  1  0
 10 21  4  0
 11 25  4  0
 12 23  4  0
 13 20  4  0
 13 26  4  0
 14 19  4  0
 17 18  4  0
 17 24  4  0
 19 23  4  0
 20 24  4  0
 23 26  1  0
M  END
$$$$

 Created by Python create_sdf_string function

 26 30  0  0  0  0  0  0  0  0999 V2000
   10.0084   -1.8019   23.4945 C   0  0  0  0  0  0  0  0  0  0  0  0
   10.0005   -4.2520   16.5631 C   0  0  0  0  0  0  0  0  0  0  0  0
   10.2759   -4.0036   17.8845 C   0  0  0  0  0  0  0  0  0  0  0  0
    8.5652    1.5478   25.3778 N   0  0  0  0  0  0  0  0  0  0  0  0
    6.8048   -7.5457   17.8752 C   0  0  0  0  0  0  0  0  0  0  0  0
    6.1721   -8.2186   15.9886 N   0  0  0  0  0  0  0  0  0  0  0  0
   11.1764   -2.6600   19.5604 C   0  0  0  0  0  0  0  0  0  0  0  0
    9.5491   -0.6380   24.1912 C   0  0  0  0  0  0  0  0  0  0  0  0
    7.5337   -6.9256   16.9519 C   0  0  0  0  0  0  0  0  0  0  0  0
    9.6782    0.5671   23.5143 C   0  0  0  0  0  0  0  0  0  0  0  0
    8.4532    0.3482   26.0821 C   0  0  0  0  0  0  0  0  0  0  0  0
   10.4239   -1.7677   22.2230 N   0  0  0  0  0  0  0  0  0  0  0  0
    9.9468   -4.5953   20.1709 C   0  0  0  0  0  0  0  0  0  0  0  0
   10.0366   -3.0590   23.9864 N   0  0  0  0  0  0  0  0  0  0  0  0
    7.1191   -7.3636   15.7739 C   0  0  0  0  0  0  0  0  0  0  0  0
    5.9612   -8.3203   17.2732 N   0  0  0  0  0  0  0  0  0  0  0  0
    8.5296   -5.9814   17.1841 C   0  0  0  0  0  0  0  0  0  0  0  0
    9.1527   -5.2118   16.2116 C   0  0  0  0  0  0  0  0  0  0  0  0
   10.3364   -3.8368   22.9255 O   0  0  0  0  0  0  0  0  0  0  0  0
    9.6947   -4.8407   18.8534 C   0  0  0  0  0  0  0  0  0  0  0  0
    9.1596    1.7042   24.1381 C   0  0  0  0  0  0  0  0  0  0  0  0
   11.0456   -2.9774   18.2694 N   0  0  0  0  0  0  0  0  0  0  0  0
   10.4788   -3.0457   21.8593 C   0  0  0  0  0  0  0  0  0  0  0  0
    8.8693   -5.8099   18.4657 N   0  0  0  0  0  0  0  0  0  0  0  0
    8.9892   -0.7926   25.4573 C   0  0  0  0  0  0  0  0  0  0  0  0
   10.5677   -3.4462   20.5323 C   0  0  0  0  0  0  0  0  0  0  0  0
  1  8  1  0
  1 12  4  0
  1 14  4  0
  2  3  4  0
  2 18  4  0
  3 20  4  0
  3 22  4  0
  4 11  4  0
  4 21  4  0
  5  9  4  0
  5 16  4  0
  6 15  4  0
  6 16  4  0
  7 22  4  0
  7 26  4  0
  8 10  4  0
  8 25  4  0
  9 15  4  0
  9 17  1  0
 10 21  4  0
 11 25  4  0
 12 23  4  0
 13 20  4  0
 13 26  4  0
 14 19  4  0
 17 18  4  0
 17 24  4  0
 19 23  4  0
 20 24  4  0
 23 26  1  0
M  END
$$$$

 Created by Python create_sdf_string function

 26 30  0  0  0  0  0  0  0  0999 V2000
   10.0084   -1.8019   23.4945 C   0  0  0  0  0  0  0  0  0  0  0  0
   10.0005   -4.2520   16.5631 C   0  0  0  0  0  0  0  0  0  0  0  0
   10.2759   -4.0036   17.8845 C   0  0  0  0  0  0  0  0  0  0  0  0
    8.5652    1.5478   25.3778 N   0  0  0  0  0  0  0  0  0  0  0  0
    6.8048   -7.5457   17.8752 C   0  0  0  0  0  0  0  0  0  0  0  0
    6.1721   -8.2186   15.9886 N   0  0  0  0  0  0  0  0  0  0  0  0
   11.1764   -2.6600   19.5604 C   0  0  0  0  0  0  0  0  0  0  0  0
    9.5491   -0.6380   24.1912 C   0  0  0  0  0  0  0  0  0  0  0  0
    7.5337   -6.9256   16.9519 C   0  0  0  0  0  0  0  0  0  0  0  0
    9.6782    0.5671   23.5143 C   0  0  0  0  0  0  0  0  0  0  0  0
    8.4532    0.3482   26.0821 C   0  0  0  0  0  0  0  0  0  0  0  0
   10.4239   -1.7677   22.2230 N   0  0  0  0  0  0  0  0  0  0  0  0
    9.9468   -4.5953   20.1709 C   0  0  0  0  0  0  0  0  0  0  0  0
   10.0366   -3.0590   23.9864 N   0  0  0  0  0  0  0  0  0  0  0  0
    7.1191   -7.3636   15.7739 C   0  0  0  0  0  0  0  0  0  0  0  0
    5.9612   -8.3203   17.2732 N   0  0  0  0  0  0  0  0  0  0  0  0
    8.5296   -5.9814   17.1841 C   0  0  0  0  0  0  0  0  0  0  0  0
    9.1527   -5.2118   16.2116 C   0  0  0  0  0  0  0  0  0  0  0  0
   10.3364   -3.8368   22.9255 O   0  0  0  0  0  0  0  0  0  0  0  0
    9.6947   -4.8407   18.8534 C   0  0  0  0  0  0  0  0  0  0  0  0
    9.1596    1.7042   24.1381 C   0  0  0  0  0  0  0  0  0  0  0  0
   11.0456   -2.9774   18.2694 N   0  0  0  0  0  0  0  0  0  0  0  0
   10.4788   -3.0457   21.8593 C   0  0  0  0  0  0  0  0  0  0  0  0
    8.8693   -5.8099   18.4657 N   0  0  0  0  0  0  0  0  0  0  0  0
    8.9892   -0.7926   25.4573 C   0  0  0  0  0  0  0  0  0  0  0  0
   10.5677   -3.4462   20.5323 C   0  0  0  0  0  0  0  0  0  0  0  0
  1  8  1  0
  1 12  4  0
  1 14  4  0
  2  3  4  0
  2 18  4  0
  3 20  4  0
  3 22  4  0
  4 11  4  0
  4 21  4  0
  5  9  4  0
  5 16  4  0
  6 15  4  0
  6 16  4  0
  7 22  4  0
  7 26  4  0
  8 10  4  0
  8 25  4  0
  9 15  4  0
  9 17  1  0
 10 21  4  0
 11 25  4  0
 12 23  4  0
 13 20  4  0
 13 26  4  0
 14 19  4  0
 17 18  4  0
 17 24  4  0
 19 23  4  0
 20 24  4  0
 23 26  1  0
M  END
$$$$

 Created by Python create_sdf_string function

 26 30  0  0  0  0  0  0  0  0999 V2000
   10.0084   -1.8019   23.4945 C   0  0  0  0  0  0  0  0  0  0  0  0
   10.0005   -4.2520   16.5631 C   0  0  0  0  0  0  0  0  0  0  0  0
   10.2759   -4.0036   17.8845 C   0  0  0  0  0  0  0  0  0  0  0  0
    8.5652    1.5478   25.3778 N   0  0  0  0  0  0  0  0  0  0  0  0
    6.8048   -7.5457   17.8752 C   0  0  0  0  0  0  0  0  0  0  0  0
    6.1721   -8.2186   15.9886 N   0  0  0  0  0  0  0  0  0  0  0  0
   11.1764   -2.6600   19.5604 C   0  0  0  0  0  0  0  0  0  0  0  0
    9.5491   -0.6380   24.1912 C   0  0  0  0  0  0  0  0  0  0  0  0
    7.5337   -6.9256   16.9519 C   0  0  0  0  0  0  0  0  0  0  0  0
    9.6782    0.5671   23.5143 C   0  0  0  0  0  0  0  0  0  0  0  0
    8.4532    0.3482   26.0821 C   0  0  0  0  0  0  0  0  0  0  0  0
   10.4239   -1.7677   22.2230 N   0  0  0  0  0  0  0  0  0  0  0  0
    9.9468   -4.5953   20.1709 C   0  0  0  0  0  0  0  0  0  0  0  0
   10.0366   -3.0590   23.9864 N   0  0  0  0  0  0  0  0  0  0  0  0
    7.1191   -7.3636   15.7739 C   0  0  0  0  0  0  0  0  0  0  0  0
    5.9612   -8.3203   17.2732 N   0  0  0  0  0  0  0  0  0  0  0  0
    8.5296   -5.9814   17.1841 C   0  0  0  0  0  0  0  0  0  0  0  0
    9.1527   -5.2118   16.2116 C   0  0  0  0  0  0  0  0  0  0  0  0
   10.3364   -3.8368   22.9255 O   0  0  0  0  0  0  0  0  0  0  0  0
    9.6947   -4.8407   18.8534 C   0  0  0  0  0  0  0  0  0  0  0  0
    9.1596    1.7042   24.1381 C   0  0  0  0  0  0  0  0  0  0  0  0
   11.0456   -2.9774   18.2694 N   0  0  0  0  0  0  0  0  0  0  0  0
   10.4788   -3.0457   21.8593 C   0  0  0  0  0  0  0  0  0  0  0  0
    8.8693   -5.8099   18.4657 N   0  0  0  0  0  0  0  0  0  0  0  0
    8.9892   -0.7926   25.4573 C   0  0  0  0  0  0  0  0  0  0  0  0
   10.5677   -3.4462   20.5323 C   0  0  0  0  0  0  0  0  0  0  0  0
  1  8  1  0
  1 12  4  0
  1 14  4  0
  2  3  4  0
  2 18  4  0
  3 20  4  0
  3 22  4  0
  4 11  4  0
  4 21  4  0
  5  9  4  0
  5 16  4  0
  6 15  4  0
  6 16  4  0
  7 22  4  0
  7 26  4  0
  8 10  4  0
  8 25  4  0
  9 15  4  0
  9 17  1  0
 10 21  4  0
 11 25  4  0
 12 23  4  0
 13 20  4  0
 13 26  4  0
 14 19  4  0
 17 18  4  0
 17 24  4  0
 19 23  4  0
 20 24  4  0
 23 26  1  0
M  END
$$$$

 Created by Python create_sdf_string function

 26 30  0  0  0  0  0  0  0  0999 V2000
   10.0084   -1.8019   23.4945 C   0  0  0  0  0  0  0  0  0  0  0  0
   10.0005   -4.2520   16.5631 C   0  0  0  0  0  0  0  0  0  0  0  0
   10.2759   -4.0036   17.8845 C   0  0  0  0  0  0  0  0  0  0  0  0
    8.5652    1.5478   25.3778 N   0  0  0  0  0  0  0  0  0  0  0  0
    6.8048   -7.5457   17.8752 C   0  0  0  0  0  0  0  0  0  0  0  0
    6.1721   -8.2186   15.9886 N   0  0  0  0  0  0  0  0  0  0  0  0
   11.1764   -2.6600   19.5604 C   0  0  0  0  0  0  0  0  0  0  0  0
    9.5491   -0.6380   24.1912 C   0  0  0  0  0  0  0  0  0  0  0  0
    7.5337   -6.9256   16.9519 C   0  0  0  0  0  0  0  0  0  0  0  0
    9.6782    0.5671   23.5143 C   0  0  0  0  0  0  0  0  0  0  0  0
    8.4532    0.3482   26.0821 C   0  0  0  0  0  0  0  0  0  0  0  0
   10.4239   -1.7677   22.2230 N   0  0  0  0  0  0  0  0  0  0  0  0
    9.9468   -4.5953   20.1709 C   0  0  0  0  0  0  0  0  0  0  0  0
   10.0366   -3.0590   23.9864 N   0  0  0  0  0  0  0  0  0  0  0  0
    7.1191   -7.3636   15.7739 C   0  0  0  0  0  0  0  0  0  0  0  0
    5.9612   -8.3203   17.2732 N   0  0  0  0  0  0  0  0  0  0  0  0
    8.5296   -5.9814   17.1841 C   0  0  0  0  0  0  0  0  0  0  0  0
    9.1527   -5.2118   16.2116 C   0  0  0  0  0  0  0  0  0  0  0  0
   10.3364   -3.8368   22.9255 O   0  0  0  0  0  0  0  0  0  0  0  0
    9.6947   -4.8407   18.8534 C   0  0  0  0  0  0  0  0  0  0  0  0
    9.1596    1.7042   24.1381 C   0  0  0  0  0  0  0  0  0  0  0  0
   11.0456   -2.9774   18.2694 N   0  0  0  0  0  0  0  0  0  0  0  0
   10.4788   -3.0457   21.8593 C   0  0  0  0  0  0  0  0  0  0  0  0
    8.8693   -5.8099   18.4657 N   0  0  0  0  0  0  0  0  0  0  0  0
    8.9892   -0.7926   25.4573 C   0  0  0  0  0  0  0  0  0  0  0  0
   10.5677   -3.4462   20.5323 C   0  0  0  0  0  0  0  0  0  0  0  0
  1  8  1  0
  1 12  4  0
  1 14  4  0
  2  3  4  0
  2 18  4  0
  3 20  4  0
  3 22  4  0
  4 11  4  0
  4 21  4  0
  5  9  4  0
  5 16  4  0
  6 15  4  0
  6 16  4  0
  7 22  4  0
  7 26  4  0
  8 10  4  0
  8 25  4  0
  9 15  4  0
  9 17  1  0
 10 21  4  0
 11 25  4  0
 12 23  4  0
 13 20  4  0
 13 26  4  0
 14 19  4  0
 17 18  4  0
 17 24  4  0
 19 23  4  0
 20 24  4  0
 23 26  1  0
M  END
$$$$

 Created by Python create_sdf_string function

 26 30  0  0  0  0  0  0  0  0999 V2000
   10.0084   -1.8019   23.4945 C   0  0  0  0  0  0  0  0  0  0  0  0
   10.0005   -4.2520   16.5631 C   0  0  0  0  0  0  0  0  0  0  0  0
   10.2759   -4.0036   17.8845 C   0  0  0  0  0  0  0  0  0  0  0  0
    8.5652    1.5478   25.3778 N   0  0  0  0  0  0  0  0  0  0  0  0
    6.8048   -7.5457   17.8752 C   0  0  0  0  0  0  0  0  0  0  0  0
    6.1721   -8.2186   15.9886 N   0  0  0  0  0  0  0  0  0  0  0  0
   11.1764   -2.6600   19.5604 C   0  0  0  0  0  0  0  0  0  0  0  0
    9.5491   -0.6380   24.1912 C   0  0  0  0  0  0  0  0  0  0  0  0
    7.5337   -6.9256   16.9519 C   0  0  0  0  0  0  0  0  0  0  0  0
    9.6782    0.5671   23.5143 C   0  0  0  0  0  0  0  0  0  0  0  0
    8.4532    0.3482   26.0821 C   0  0  0  0  0  0  0  0  0  0  0  0
   10.4239   -1.7677   22.2230 N   0  0  0  0  0  0  0  0  0  0  0  0
    9.9468   -4.5953   20.1709 C   0  0  0  0  0  0  0  0  0  0  0  0
   10.0366   -3.0590   23.9864 N   0  0  0  0  0  0  0  0  0  0  0  0
    7.1191   -7.3636   15.7739 C   0  0  0  0  0  0  0  0  0  0  0  0
    5.9612   -8.3203   17.2732 N   0  0  0  0  0  0  0  0  0  0  0  0
    8.5296   -5.9814   17.1841 C   0  0  0  0  0  0  0  0  0  0  0  0
    9.1527   -5.2118   16.2116 C   0  0  0  0  0  0  0  0  0  0  0  0
   10.3364   -3.8368   22.9255 O   0  0  0  0  0  0  0  0  0  0  0  0
    9.6947   -4.8407   18.8534 C   0  0  0  0  0  0  0  0  0  0  0  0
    9.1596    1.7042   24.1381 C   0  0  0  0  0  0  0  0  0  0  0  0
   11.0456   -2.9774   18.2694 N   0  0  0  0  0  0  0  0  0  0  0  0
   10.4788   -3.0457   21.8593 C   0  0  0  0  0  0  0  0  0  0  0  0
    8.8693   -5.8099   18.4657 N   0  0  0  0  0  0  0  0  0  0  0  0
    8.9892   -0.7926   25.4573 C   0  0  0  0  0  0  0  0  0  0  0  0
   10.5677   -3.4462   20.5323 C   0  0  0  0  0  0  0  0  0  0  0  0
  1  8  1  0
  1 12  4  0
  1 14  4  0
  2  3  4  0
  2 18  4  0
  3 20  4  0
  3 22  4  0
  4 11  4  0
  4 21  4  0
  5  9  4  0
  5 16  4  0
  6 15  4  0
  6 16  4  0
  7 22  4  0
  7 26  4  0
  8 10  4  0
  8 25  4  0
  9 15  4  0
  9 17  1  0
 10 21  4  0
 11 25  4  0
 12 23  4  0
 13 20  4  0
 13 26  4  0
 14 19  4  0
 17 18  4  0
 17 24  4  0
 19 23  4  0
 20 24  4  0
 23 26  1  0
M  END
$$$$

 Created by Python create_sdf_string function

 26 30  0  0  0  0  0  0  0  0999 V2000
   10.0084   -1.8019   23.4945 C   0  0  0  0  0  0  0  0  0  0  0  0
   10.0005   -4.2520   16.5631 C   0  0  0  0  0  0  0  0  0  0  0  0
   10.2759   -4.0036   17.8845 C   0  0  0  0  0  0  0  0  0  0  0  0
    8.5652    1.5478   25.3778 N   0  0  0  0  0  0  0  0  0  0  0  0
    6.8048   -7.5457   17.8752 C   0  0  0  0  0  0  0  0  0  0  0  0
    6.1721   -8.2186   15.9886 N   0  0  0  0  0  0  0  0  0  0  0  0
   11.1764   -2.6600   19.5604 C   0  0  0  0  0  0  0  0  0  0  0  0
    9.5491   -0.6380   24.1912 C   0  0  0  0  0  0  0  0  0  0  0  0
    7.5337   -6.9256   16.9519 C   0  0  0  0  0  0  0  0  0  0  0  0
    9.6782    0.5671   23.5143 C   0  0  0  0  0  0  0  0  0  0  0  0
    8.4532    0.3482   26.0821 C   0  0  0  0  0  0  0  0  0  0  0  0
   10.4239   -1.7677   22.2230 N   0  0  0  0  0  0  0  0  0  0  0  0
    9.9468   -4.5953   20.1709 C   0  0  0  0  0  0  0  0  0  0  0  0
   10.0366   -3.0590   23.9864 N   0  0  0  0  0  0  0  0  0  0  0  0
    7.1191   -7.3636   15.7739 C   0  0  0  0  0  0  0  0  0  0  0  0
    5.9612   -8.3203   17.2732 N   0  0  0  0  0  0  0  0  0  0  0  0
    8.5296   -5.9814   17.1841 C   0  0  0  0  0  0  0  0  0  0  0  0
    9.1527   -5.2118   16.2116 C   0  0  0  0  0  0  0  0  0  0  0  0
   10.3364   -3.8368   22.9255 O   0  0  0  0  0  0  0  0  0  0  0  0
    9.6947   -4.8407   18.8534 C   0  0  0  0  0  0  0  0  0  0  0  0
    9.1596    1.7042   24.1381 C   0  0  0  0  0  0  0  0  0  0  0  0
   11.0456   -2.9774   18.2694 N   0  0  0  0  0  0  0  0  0  0  0  0
   10.4788   -3.0457   21.8593 C   0  0  0  0  0  0  0  0  0  0  0  0
    8.8693   -5.8099   18.4657 N   0  0  0  0  0  0  0  0  0  0  0  0
    8.9892   -0.7926   25.4573 C   0  0  0  0  0  0  0  0  0  0  0  0
   10.5677   -3.4462   20.5323 C   0  0  0  0  0  0  0  0  0  0  0  0
  1  8  1  0
  1 12  4  0
  1 14  4  0
  2  3  4  0
  2 18  4  0
  3 20  4  0
  3 22  4  0
  4 11  4  0
  4 21  4  0
  5  9  4  0
  5 16  4  0
  6 15  4  0
  6 16  4  0
  7 22  4  0
  7 26  4  0
  8 10  4  0
  8 25  4  0
  9 15  4  0
  9 17  1  0
 10 21  4  0
 11 25  4  0
 12 23  4  0
 13 20  4  0
 13 26  4  0
 14 19  4  0
 17 18  4  0
 17 24  4  0
 19 23  4  0
 20 24  4  0
 23 26  1  0
M  END
$$$$

 Created by Python create_sdf_string function

 26 30  0  0  0  0  0  0  0  0999 V2000
   10.0084   -1.8019   23.4945 C   0  0  0  0  0  0  0  0  0  0  0  0
   10.0005   -4.2520   16.5631 C   0  0  0  0  0  0  0  0  0  0  0  0
   10.2759   -4.0036   17.8845 C   0  0  0  0  0  0  0  0  0  0  0  0
    8.5652    1.5478   25.3778 N   0  0  0  0  0  0  0  0  0  0  0  0
    6.8048   -7.5457   17.8752 C   0  0  0  0  0  0  0  0  0  0  0  0
    6.1721   -8.2186   15.9886 N   0  0  0  0  0  0  0  0  0  0  0  0
   11.1764   -2.6600   19.5604 C   0  0  0  0  0  0  0  0  0  0  0  0
    9.5491   -0.6380   24.1912 C   0  0  0  0  0  0  0  0  0  0  0  0
    7.5337   -6.9256   16.9519 C   0  0  0  0  0  0  0  0  0  0  0  0
    9.6782    0.5671   23.5143 C   0  0  0  0  0  0  0  0  0  0  0  0
    8.4532    0.3482   26.0821 C   0  0  0  0  0  0  0  0  0  0  0  0
   10.4239   -1.7677   22.2230 N   0  0  0  0  0  0  0  0  0  0  0  0
    9.9468   -4.5953   20.1709 C   0  0  0  0  0  0  0  0  0  0  0  0
   10.0366   -3.0590   23.9864 N   0  0  0  0  0  0  0  0  0  0  0  0
    7.1191   -7.3636   15.7739 C   0  0  0  0  0  0  0  0  0  0  0  0
    5.9612   -8.3203   17.2732 N   0  0  0  0  0  0  0  0  0  0  0  0
    8.5296   -5.9814   17.1841 C   0  0  0  0  0  0  0  0  0  0  0  0
    9.1527   -5.2118   16.2116 C   0  0  0  0  0  0  0  0  0  0  0  0
   10.3364   -3.8368   22.9255 O   0  0  0  0  0  0  0  0  0  0  0  0
    9.6947   -4.8407   18.8534 C   0  0  0  0  0  0  0  0  0  0  0  0
    9.1596    1.7042   24.1381 C   0  0  0  0  0  0  0  0  0  0  0  0
   11.0456   -2.9774   18.2694 N   0  0  0  0  0  0  0  0  0  0  0  0
   10.4788   -3.0457   21.8593 C   0  0  0  0  0  0  0  0  0  0  0  0
    8.8693   -5.8099   18.4657 N   0  0  0  0  0  0  0  0  0  0  0  0
    8.9892   -0.7926   25.4573 C   0  0  0  0  0  0  0  0  0  0  0  0
   10.5677   -3.4462   20.5323 C   0  0  0  0  0  0  0  0  0  0  0  0
  1  8  1  0
  1 12  4  0
  1 14  4  0
  2  3  4  0
  2 18  4  0
  3 20  4  0
  3 22  4  0
  4 11  4  0
  4 21  4  0
  5  9  4  0
  5 16  4  0
  6 15  4  0
  6 16  4  0
  7 22  4  0
  7 26  4  0
  8 10  4  0
  8 25  4  0
  9 15  4  0
  9 17  1  0
 10 21  4  0
 11 25  4  0
 12 23  4  0
 13 20  4  0
 13 26  4  0
 14 19  4  0
 17 18  4  0
 17 24  4  0
 19 23  4  0
 20 24  4  0
 23 26  1  0
M  END
$$$$

 Created by Python create_sdf_string function

 26 30  0  0  0  0  0  0  0  0999 V2000
   10.0084   -1.8019   23.4945 C   0  0  0  0  0  0  0  0  0  0  0  0
   10.0005   -4.2520   16.5631 C   0  0  0  0  0  0  0  0  0  0  0  0
   10.2759   -4.0036   17.8845 C   0  0  0  0  0  0  0  0  0  0  0  0
    8.5652    1.5478   25.3778 N   0  0  0  0  0  0  0  0  0  0  0  0
    6.8048   -7.5457   17.8752 C   0  0  0  0  0  0  0  0  0  0  0  0
    6.1721   -8.2186   15.9886 N   0  0  0  0  0  0  0  0  0  0  0  0
   11.1764   -2.6600   19.5604 C   0  0  0  0  0  0  0  0  0  0  0  0
    9.5491   -0.6380   24.1912 C   0  0  0  0  0  0  0  0  0  0  0  0
    7.5337   -6.9256   16.9519 C   0  0  0  0  0  0  0  0  0  0  0  0
    9.6782    0.5671   23.5143 C   0  0  0  0  0  0  0  0  0  0  0  0
    8.4532    0.3482   26.0821 C   0  0  0  0  0  0  0  0  0  0  0  0
   10.4239   -1.7677   22.2230 N   0  0  0  0  0  0  0  0  0  0  0  0
    9.9468   -4.5953   20.1709 C   0  0  0  0  0  0  0  0  0  0  0  0
   10.0366   -3.0590   23.9864 N   0  0  0  0  0  0  0  0  0  0  0  0
    7.1191   -7.3636   15.7739 C   0  0  0  0  0  0  0  0  0  0  0  0
    5.9612   -8.3203   17.2732 N   0  0  0  0  0  0  0  0  0  0  0  0
    8.5296   -5.9814   17.1841 C   0  0  0  0  0  0  0  0  0  0  0  0
    9.1527   -5.2118   16.2116 C   0  0  0  0  0  0  0  0  0  0  0  0
   10.3364   -3.8368   22.9255 O   0  0  0  0  0  0  0  0  0  0  0  0
    9.6947   -4.8407   18.8534 C   0  0  0  0  0  0  0  0  0  0  0  0
    9.1596    1.7042   24.1381 C   0  0  0  0  0  0  0  0  0  0  0  0
   11.0456   -2.9774   18.2694 N   0  0  0  0  0  0  0  0  0  0  0  0
   10.4788   -3.0457   21.8593 C   0  0  0  0  0  0  0  0  0  0  0  0
    8.8693   -5.8099   18.4657 N   0  0  0  0  0  0  0  0  0  0  0  0
    8.9892   -0.7926   25.4573 C   0  0  0  0  0  0  0  0  0  0  0  0
   10.5677   -3.4462   20.5323 C   0  0  0  0  0  0  0  0  0  0  0  0
  1  8  1  0
  1 12  4  0
  1 14  4  0
  2  3  4  0
  2 18  4  0
  3 20  4  0
  3 22  4  0
  4 11  4  0
  4 21  4  0
  5  9  4  0
  5 16  4  0
  6 15  4  0
  6 16  4  0
  7 22  4  0
  7 26  4  0
  8 10  4  0
  8 25  4  0
  9 15  4  0
  9 17  1  0
 10 21  4  0
 11 25  4  0
 12 23  4  0
 13 20  4  0
 13 26  4  0
 14 19  4  0
 17 18  4  0
 17 24  4  0
 19 23  4  0
 20 24  4  0
 23 26  1  0
M  END
$$$$

 Created by Python create_sdf_string function

 26 30  0  0  0  0  0  0  0  0999 V2000
   10.0084   -1.8019   23.4945 C   0  0  0  0  0  0  0  0  0  0  0  0
   10.0005   -4.2520   16.5631 C   0  0  0  0  0  0  0  0  0  0  0  0
   10.2759   -4.0036   17.8845 C   0  0  0  0  0  0  0  0  0  0  0  0
    8.5652    1.5478   25.3778 N   0  0  0  0  0  0  0  0  0  0  0  0
    6.8048   -7.5457   17.8752 C   0  0  0  0  0  0  0  0  0  0  0  0
    6.1721   -8.2186   15.9886 N   0  0  0  0  0  0  0  0  0  0  0  0
   11.1764   -2.6600   19.5604 C   0  0  0  0  0  0  0  0  0  0  0  0
    9.5491   -0.6380   24.1912 C   0  0  0  0  0  0  0  0  0  0  0  0
    7.5337   -6.9256   16.9519 C   0  0  0  0  0  0  0  0  0  0  0  0
    9.6782    0.5671   23.5143 C   0  0  0  0  0  0  0  0  0  0  0  0
    8.4532    0.3482   26.0821 C   0  0  0  0  0  0  0  0  0  0  0  0
   10.4239   -1.7677   22.2230 N   0  0  0  0  0  0  0  0  0  0  0  0
    9.9468   -4.5953   20.1709 C   0  0  0  0  0  0  0  0  0  0  0  0
   10.0366   -3.0590   23.9864 N   0  0  0  0  0  0  0  0  0  0  0  0
    7.1191   -7.3636   15.7739 C   0  0  0  0  0  0  0  0  0  0  0  0
    5.9612   -8.3203   17.2732 N   0  0  0  0  0  0  0  0  0  0  0  0
    8.5296   -5.9814   17.1841 C   0  0  0  0  0  0  0  0  0  0  0  0
    9.1527   -5.2118   16.2116 C   0  0  0  0  0  0  0  0  0  0  0  0
   10.3364   -3.8368   22.9255 O   0  0  0  0  0  0  0  0  0  0  0  0
    9.6947   -4.8407   18.8534 C   0  0  0  0  0  0  0  0  0  0  0  0
    9.1596    1.7042   24.1381 C   0  0  0  0  0  0  0  0  0  0  0  0
   11.0456   -2.9774   18.2694 N   0  0  0  0  0  0  0  0  0  0  0  0
   10.4788   -3.0457   21.8593 C   0  0  0  0  0  0  0  0  0  0  0  0
    8.8693   -5.8099   18.4657 N   0  0  0  0  0  0  0  0  0  0  0  0
    8.9892   -0.7926   25.4573 C   0  0  0  0  0  0  0  0  0  0  0  0
   10.5677   -3.4462   20.5323 C   0  0  0  0  0  0  0  0  0  0  0  0
  1  8  1  0
  1 12  4  0
  1 14  4  0
  2  3  4  0
  2 18  4  0
  3 20  4  0
  3 22  4  0
  4 11  4  0
  4 21  4  0
  5  9  4  0
  5 16  4  0
  6 15  4  0
  6 16  4  0
  7 22  4  0
  7 26  4  0
  8 10  4  0
  8 25  4  0
  9 15  4  0
  9 17  1  0
 10 21  4  0
 11 25  4  0
 12 23  4  0
 13 20  4  0
 13 26  4  0
 14 19  4  0
 17 18  4  0
 17 24  4  0
 19 23  4  0
 20 24  4  0
 23 26  1  0
M  END
$$$$

 Created by Python create_sdf_string function

 26 30  0  0  0  0  0  0  0  0999 V2000
   10.0084   -1.8019   23.4945 C   0  0  0  0  0  0  0  0  0  0  0  0
   10.0005   -4.2520   16.5631 C   0  0  0  0  0  0  0  0  0  0  0  0
   10.2759   -4.0036   17.8845 C   0  0  0  0  0  0  0  0  0  0  0  0
    8.5652    1.5478   25.3778 N   0  0  0  0  0  0  0  0  0  0  0  0
    6.8048   -7.5457   17.8752 C   0  0  0  0  0  0  0  0  0  0  0  0
    6.1721   -8.2186   15.9886 N   0  0  0  0  0  0  0  0  0  0  0  0
   11.1764   -2.6600   19.5604 C   0  0  0  0  0  0  0  0  0  0  0  0
    9.5491   -0.6380   24.1912 C   0  0  0  0  0  0  0  0  0  0  0  0
    7.5337   -6.9256   16.9519 C   0  0  0  0  0  0  0  0  0  0  0  0
    9.6782    0.5671   23.5143 C   0  0  0  0  0  0  0  0  0  0  0  0
    8.4532    0.3482   26.0821 C   0  0  0  0  0  0  0  0  0  0  0  0
   10.4239   -1.7677   22.2230 N   0  0  0  0  0  0  0  0  0  0  0  0
    9.9468   -4.5953   20.1709 C   0  0  0  0  0  0  0  0  0  0  0  0
   10.0366   -3.0590   23.9864 N   0  0  0  0  0  0  0  0  0  0  0  0
    7.1191   -7.3636   15.7739 C   0  0  0  0  0  0  0  0  0  0  0  0
    5.9612   -8.3203   17.2732 N   0  0  0  0  0  0  0  0  0  0  0  0
    8.5296   -5.9814   17.1841 C   0  0  0  0  0  0  0  0  0  0  0  0
    9.1527   -5.2118   16.2116 C   0  0  0  0  0  0  0  0  0  0  0  0
   10.3364   -3.8368   22.9255 O   0  0  0  0  0  0  0  0  0  0  0  0
    9.6947   -4.8407   18.8534 C   0  0  0  0  0  0  0  0  0  0  0  0
    9.1596    1.7042   24.1381 C   0  0  0  0  0  0  0  0  0  0  0  0
   11.0456   -2.9774   18.2694 N   0  0  0  0  0  0  0  0  0  0  0  0
   10.4788   -3.0457   21.8593 C   0  0  0  0  0  0  0  0  0  0  0  0
    8.8693   -5.8099   18.4657 N   0  0  0  0  0  0  0  0  0  0  0  0
    8.9892   -0.7926   25.4573 C   0  0  0  0  0  0  0  0  0  0  0  0
   10.5677   -3.4462   20.5323 C   0  0  0  0  0  0  0  0  0  0  0  0
  1  8  1  0
  1 12  4  0
  1 14  4  0
  2  3  4  0
  2 18  4  0
  3 20  4  0
  3 22  4  0
  4 11  4  0
  4 21  4  0
  5  9  4  0
  5 16  4  0
  6 15  4  0
  6 16  4  0
  7 22  4  0
  7 26  4  0
  8 10  4  0
  8 25  4  0
  9 15  4  0
  9 17  1  0
 10 21  4  0
 11 25  4  0
 12 23  4  0
 13 20  4  0
 13 26  4  0
 14 19  4  0
 17 18  4  0
 17 24  4  0
 19 23  4  0
 20 24  4  0
 23 26  1  0
M  END
$$$$

 Created by Python create_sdf_string function

 26 30  0  0  0  0  0  0  0  0999 V2000
   10.0084   -1.8019   23.4945 C   0  0  0  0  0  0  0  0  0  0  0  0
   10.0005   -4.2520   16.5631 C   0  0  0  0  0  0  0  0  0  0  0  0
   10.2759   -4.0036   17.8845 C   0  0  0  0  0  0  0  0  0  0  0  0
    8.5652    1.5478   25.3778 N   0  0  0  0  0  0  0  0  0  0  0  0
    6.8048   -7.5457   17.8752 C   0  0  0  0  0  0  0  0  0  0  0  0
    6.1721   -8.2186   15.9886 N   0  0  0  0  0  0  0  0  0  0  0  0
   11.1764   -2.6600   19.5604 C   0  0  0  0  0  0  0  0  0  0  0  0
    9.5491   -0.6380   24.1912 C   0  0  0  0  0  0  0  0  0  0  0  0
    7.5337   -6.9256   16.9519 C   0  0  0  0  0  0  0  0  0  0  0  0
    9.6782    0.5671   23.5143 C   0  0  0  0  0  0  0  0  0  0  0  0
    8.4532    0.3482   26.0821 C   0  0  0  0  0  0  0  0  0  0  0  0
   10.4239   -1.7677   22.2230 N   0  0  0  0  0  0  0  0  0  0  0  0
    9.9468   -4.5953   20.1709 C   0  0  0  0  0  0  0  0  0  0  0  0
   10.0366   -3.0590   23.9864 N   0  0  0  0  0  0  0  0  0  0  0  0
    7.1191   -7.3636   15.7739 C   0  0  0  0  0  0  0  0  0  0  0  0
    5.9612   -8.3203   17.2732 N   0  0  0  0  0  0  0  0  0  0  0  0
    8.5296   -5.9814   17.1841 C   0  0  0  0  0  0  0  0  0  0  0  0
    9.1527   -5.2118   16.2116 C   0  0  0  0  0  0  0  0  0  0  0  0
   10.3364   -3.8368   22.9255 O   0  0  0  0  0  0  0  0  0  0  0  0
    9.6947   -4.8407   18.8534 C   0  0  0  0  0  0  0  0  0  0  0  0
    9.1596    1.7042   24.1381 C   0  0  0  0  0  0  0  0  0  0  0  0
   11.0456   -2.9774   18.2694 N   0  0  0  0  0  0  0  0  0  0  0  0
   10.4788   -3.0457   21.8593 C   0  0  0  0  0  0  0  0  0  0  0  0
    8.8693   -5.8099   18.4657 N   0  0  0  0  0  0  0  0  0  0  0  0
    8.9892   -0.7926   25.4573 C   0  0  0  0  0  0  0  0  0  0  0  0
   10.5677   -3.4462   20.5323 C   0  0  0  0  0  0  0  0  0  0  0  0
  1  8  1  0
  1 12  4  0
  1 14  4  0
  2  3  4  0
  2 18  4  0
  3 20  4  0
  3 22  4  0
  4 11  4  0
  4 21  4  0
  5  9  4  0
  5 16  4  0
  6 15  4  0
  6 16  4  0
  7 22  4  0
  7 26  4  0
  8 10  4  0
  8 25  4  0
  9 15  4  0
  9 17  1  0
 10 21  4  0
 11 25  4  0
 12 23  4  0
 13 20  4  0
 13 26  4  0
 14 19  4  0
 17 18  4  0
 17 24  4  0
 19 23  4  0
 20 24  4  0
 23 26  1  0
M  END
$$$$

 Created by Python create_sdf_string function

 26 30  0  0  0  0  0  0  0  0999 V2000
   10.0084   -1.8019   23.4945 C   0  0  0  0  0  0  0  0  0  0  0  0
   10.0005   -4.2520   16.5631 C   0  0  0  0  0  0  0  0  0  0  0  0
   10.2759   -4.0036   17.8845 C   0  0  0  0  0  0  0  0  0  0  0  0
    8.5652    1.5478   25.3778 N   0  0  0  0  0  0  0  0  0  0  0  0
    6.8048   -7.5457   17.8752 C   0  0  0  0  0  0  0  0  0  0  0  0
    6.1721   -8.2186   15.9886 N   0  0  0  0  0  0  0  0  0  0  0  0
   11.1764   -2.6600   19.5604 C   0  0  0  0  0  0  0  0  0  0  0  0
    9.5491   -0.6380   24.1912 C   0  0  0  0  0  0  0  0  0  0  0  0
    7.5337   -6.9256   16.9519 C   0  0  0  0  0  0  0  0  0  0  0  0
    9.6782    0.5671   23.5143 C   0  0  0  0  0  0  0  0  0  0  0  0
    8.4532    0.3482   26.0821 C   0  0  0  0  0  0  0  0  0  0  0  0
   10.4239   -1.7677   22.2230 N   0  0  0  0  0  0  0  0  0  0  0  0
    9.9468   -4.5953   20.1709 C   0  0  0  0  0  0  0  0  0  0  0  0
   10.0366   -3.0590   23.9864 N   0  0  0  0  0  0  0  0  0  0  0  0
    7.1191   -7.3636   15.7739 C   0  0  0  0  0  0  0  0  0  0  0  0
    5.9612   -8.3203   17.2732 N   0  0  0  0  0  0  0  0  0  0  0  0
    8.5296   -5.9814   17.1841 C   0  0  0  0  0  0  0  0  0  0  0  0
    9.1527   -5.2118   16.2116 C   0  0  0  0  0  0  0  0  0  0  0  0
   10.3364   -3.8368   22.9255 O   0  0  0  0  0  0  0  0  0  0  0  0
    9.6947   -4.8407   18.8534 C   0  0  0  0  0  0  0  0  0  0  0  0
    9.1596    1.7042   24.1381 C   0  0  0  0  0  0  0  0  0  0  0  0
   11.0456   -2.9774   18.2694 N   0  0  0  0  0  0  0  0  0  0  0  0
   10.4788   -3.0457   21.8593 C   0  0  0  0  0  0  0  0  0  0  0  0
    8.8693   -5.8099   18.4657 N   0  0  0  0  0  0  0  0  0  0  0  0
    8.9892   -0.7926   25.4573 C   0  0  0  0  0  0  0  0  0  0  0  0
   10.5677   -3.4462   20.5323 C   0  0  0  0  0  0  0  0  0  0  0  0
  1  8  1  0
  1 12  4  0
  1 14  4  0
  2  3  4  0
  2 18  4  0
  3 20  4  0
  3 22  4  0
  4 11  4  0
  4 21  4  0
  5  9  4  0
  5 16  4  0
  6 15  4  0
  6 16  4  0
  7 22  4  0
  7 26  4  0
  8 10  4  0
  8 25  4  0
  9 15  4  0
  9 17  1  0
 10 21  4  0
 11 25  4  0
 12 23  4  0
 13 20  4  0
 13 26  4  0
 14 19  4  0
 17 18  4  0
 17 24  4  0
 19 23  4  0
 20 24  4  0
 23 26  1  0
M  END
$$$$

 Created by Python create_sdf_string function

 26 30  0  0  0  0  0  0  0  0999 V2000
   10.0084   -1.8019   23.4945 C   0  0  0  0  0  0  0  0  0  0  0  0
   10.0005   -4.2520   16.5631 C   0  0  0  0  0  0  0  0  0  0  0  0
   10.2759   -4.0036   17.8845 C   0  0  0  0  0  0  0  0  0  0  0  0
    8.5652    1.5478   25.3778 N   0  0  0  0  0  0  0  0  0  0  0  0
    6.8048   -7.5457   17.8752 C   0  0  0  0  0  0  0  0  0  0  0  0
    6.1721   -8.2186   15.9886 N   0  0  0  0  0  0  0  0  0  0  0  0
   11.1764   -2.6600   19.5604 C   0  0  0  0  0  0  0  0  0  0  0  0
    9.5491   -0.6380   24.1912 C   0  0  0  0  0  0  0  0  0  0  0  0
    7.5337   -6.9256   16.9519 C   0  0  0  0  0  0  0  0  0  0  0  0
    9.6782    0.5671   23.5143 C   0  0  0  0  0  0  0  0  0  0  0  0
    8.4532    0.3482   26.0821 C   0  0  0  0  0  0  0  0  0  0  0  0
   10.4239   -1.7677   22.2230 N   0  0  0  0  0  0  0  0  0  0  0  0
    9.9468   -4.5953   20.1709 C   0  0  0  0  0  0  0  0  0  0  0  0
   10.0366   -3.0590   23.9864 N   0  0  0  0  0  0  0  0  0  0  0  0
    7.1191   -7.3636   15.7739 C   0  0  0  0  0  0  0  0  0  0  0  0
    5.9612   -8.3203   17.2732 N   0  0  0  0  0  0  0  0  0  0  0  0
    8.5296   -5.9814   17.1841 C   0  0  0  0  0  0  0  0  0  0  0  0
    9.1527   -5.2118   16.2116 C   0  0  0  0  0  0  0  0  0  0  0  0
   10.3364   -3.8368   22.9255 O   0  0  0  0  0  0  0  0  0  0  0  0
    9.6947   -4.8407   18.8534 C   0  0  0  0  0  0  0  0  0  0  0  0
    9.1596    1.7042   24.1381 C   0  0  0  0  0  0  0  0  0  0  0  0
   11.0456   -2.9774   18.2694 N   0  0  0  0  0  0  0  0  0  0  0  0
   10.4788   -3.0457   21.8593 C   0  0  0  0  0  0  0  0  0  0  0  0
    8.8693   -5.8099   18.4657 N   0  0  0  0  0  0  0  0  0  0  0  0
    8.9892   -0.7926   25.4573 C   0  0  0  0  0  0  0  0  0  0  0  0
   10.5677   -3.4462   20.5323 C   0  0  0  0  0  0  0  0  0  0  0  0
  1  8  1  0
  1 12  4  0
  1 14  4  0
  2  3  4  0
  2 18  4  0
  3 20  4  0
  3 22  4  0
  4 11  4  0
  4 21  4  0
  5  9  4  0
  5 16  4  0
  6 15  4  0
  6 16  4  0
  7 22  4  0
  7 26  4  0
  8 10  4  0
  8 25  4  0
  9 15  4  0
  9 17  1  0
 10 21  4  0
 11 25  4  0
 12 23  4  0
 13 20  4  0
 13 26  4  0
 14 19  4  0
 17 18  4  0
 17 24  4  0
 19 23  4  0
 20 24  4  0
 23 26  1  0
M  END
$$$$

 Created by Python create_sdf_string function

 26 30  0  0  0  0  0  0  0  0999 V2000
   10.0084   -1.8019   23.4945 C   0  0  0  0  0  0  0  0  0  0  0  0
   10.0005   -4.2520   16.5631 C   0  0  0  0  0  0  0  0  0  0  0  0
   10.2759   -4.0036   17.8845 C   0  0  0  0  0  0  0  0  0  0  0  0
    8.5652    1.5478   25.3778 N   0  0  0  0  0  0  0  0  0  0  0  0
    6.8048   -7.5457   17.8752 C   0  0  0  0  0  0  0  0  0  0  0  0
    6.1721   -8.2186   15.9886 N   0  0  0  0  0  0  0  0  0  0  0  0
   11.1764   -2.6600   19.5604 C   0  0  0  0  0  0  0  0  0  0  0  0
    9.5491   -0.6380   24.1912 C   0  0  0  0  0  0  0  0  0  0  0  0
    7.5337   -6.9256   16.9519 C   0  0  0  0  0  0  0  0  0  0  0  0
    9.6782    0.5671   23.5143 C   0  0  0  0  0  0  0  0  0  0  0  0
    8.4532    0.3482   26.0821 C   0  0  0  0  0  0  0  0  0  0  0  0
   10.4239   -1.7677   22.2230 N   0  0  0  0  0  0  0  0  0  0  0  0
    9.9468   -4.5953   20.1709 C   0  0  0  0  0  0  0  0  0  0  0  0
   10.0366   -3.0590   23.9864 N   0  0  0  0  0  0  0  0  0  0  0  0
    7.1191   -7.3636   15.7739 C   0  0  0  0  0  0  0  0  0  0  0  0
    5.9612   -8.3203   17.2732 N   0  0  0  0  0  0  0  0  0  0  0  0
    8.5296   -5.9814   17.1841 C   0  0  0  0  0  0  0  0  0  0  0  0
    9.1527   -5.2118   16.2116 C   0  0  0  0  0  0  0  0  0  0  0  0
   10.3364   -3.8368   22.9255 O   0  0  0  0  0  0  0  0  0  0  0  0
    9.6947   -4.8407   18.8534 C   0  0  0  0  0  0  0  0  0  0  0  0
    9.1596    1.7042   24.1381 C   0  0  0  0  0  0  0  0  0  0  0  0
   11.0456   -2.9774   18.2694 N   0  0  0  0  0  0  0  0  0  0  0  0
   10.4788   -3.0457   21.8593 C   0  0  0  0  0  0  0  0  0  0  0  0
    8.8693   -5.8099   18.4657 N   0  0  0  0  0  0  0  0  0  0  0  0
    8.9892   -0.7926   25.4573 C   0  0  0  0  0  0  0  0  0  0  0  0
   10.5677   -3.4462   20.5323 C   0  0  0  0  0  0  0  0  0  0  0  0
  1  8  1  0
  1 12  4  0
  1 14  4  0
  2  3  4  0
  2 18  4  0
  3 20  4  0
  3 22  4  0
  4 11  4  0
  4 21  4  0
  5  9  4  0
  5 16  4  0
  6 15  4  0
  6 16  4  0
  7 22  4  0
  7 26  4  0
  8 10  4  0
  8 25  4  0
  9 15  4  0
  9 17  1  0
 10 21  4  0
 11 25  4  0
 12 23  4  0
 13 20  4  0
 13 26  4  0
 14 19  4  0
 17 18  4  0
 17 24  4  0
 19 23  4  0
 20 24  4  0
 23 26  1  0
M  END
$$$$

 Created by Python create_sdf_string function

 26 30  0  0  0  0  0  0  0  0999 V2000
   10.0084   -1.8019   23.4945 C   0  0  0  0  0  0  0  0  0  0  0  0
   10.0005   -4.2520   16.5631 C   0  0  0  0  0  0  0  0  0  0  0  0
   10.2759   -4.0036   17.8845 C   0  0  0  0  0  0  0  0  0  0  0  0
    8.5652    1.5478   25.3778 N   0  0  0  0  0  0  0  0  0  0  0  0
    6.8048   -7.5457   17.8752 C   0  0  0  0  0  0  0  0  0  0  0  0
    6.1721   -8.2186   15.9886 N   0  0  0  0  0  0  0  0  0  0  0  0
   11.1764   -2.6600   19.5604 C   0  0  0  0  0  0  0  0  0  0  0  0
    9.5491   -0.6380   24.1912 C   0  0  0  0  0  0  0  0  0  0  0  0
    7.5337   -6.9256   16.9519 C   0  0  0  0  0  0  0  0  0  0  0  0
    9.6782    0.5671   23.5143 C   0  0  0  0  0  0  0  0  0  0  0  0
    8.4532    0.3482   26.0821 C   0  0  0  0  0  0  0  0  0  0  0  0
   10.4239   -1.7677   22.2230 N   0  0  0  0  0  0  0  0  0  0  0  0
    9.9468   -4.5953   20.1709 C   0  0  0  0  0  0  0  0  0  0  0  0
   10.0366   -3.0590   23.9864 N   0  0  0  0  0  0  0  0  0  0  0  0
    7.1191   -7.3636   15.7739 C   0  0  0  0  0  0  0  0  0  0  0  0
    5.9612   -8.3203   17.2732 N   0  0  0  0  0  0  0  0  0  0  0  0
    8.5296   -5.9814   17.1841 C   0  0  0  0  0  0  0  0  0  0  0  0
    9.1527   -5.2118   16.2116 C   0  0  0  0  0  0  0  0  0  0  0  0
   10.3364   -3.8368   22.9255 O   0  0  0  0  0  0  0  0  0  0  0  0
    9.6947   -4.8407   18.8534 C   0  0  0  0  0  0  0  0  0  0  0  0
    9.1596    1.7042   24.1381 C   0  0  0  0  0  0  0  0  0  0  0  0
   11.0456   -2.9774   18.2694 N   0  0  0  0  0  0  0  0  0  0  0  0
   10.4788   -3.0457   21.8593 C   0  0  0  0  0  0  0  0  0  0  0  0
    8.8693   -5.8099   18.4657 N   0  0  0  0  0  0  0  0  0  0  0  0
    8.9892   -0.7926   25.4573 C   0  0  0  0  0  0  0  0  0  0  0  0
   10.5677   -3.4462   20.5323 C   0  0  0  0  0  0  0  0  0  0  0  0
  1  8  1  0
  1 12  4  0
  1 14  4  0
  2  3  4  0
  2 18  4  0
  3 20  4  0
  3 22  4  0
  4 11  4  0
  4 21  4  0
  5  9  4  0
  5 16  4  0
  6 15  4  0
  6 16  4  0
  7 22  4  0
  7 26  4  0
  8 10  4  0
  8 25  4  0
  9 15  4  0
  9 17  1  0
 10 21  4  0
 11 25  4  0
 12 23  4  0
 13 20  4  0
 13 26  4  0
 14 19  4  0
 17 18  4  0
 17 24  4  0
 19 23  4  0
 20 24  4  0
 23 26  1  0
M  END
$$$$

 Created by Python create_sdf_string function

 26 30  0  0  0  0  0  0  0  0999 V2000
   10.0084   -1.8019   23.4945 C   0  0  0  0  0  0  0  0  0  0  0  0
   10.0005   -4.2520   16.5631 C   0  0  0  0  0  0  0  0  0  0  0  0
   10.2759   -4.0036   17.8845 C   0  0  0  0  0  0  0  0  0  0  0  0
    8.5652    1.5478   25.3778 N   0  0  0  0  0  0  0  0  0  0  0  0
    6.8048   -7.5457   17.8752 C   0  0  0  0  0  0  0  0  0  0  0  0
    6.1721   -8.2186   15.9886 N   0  0  0  0  0  0  0  0  0  0  0  0
   11.1764   -2.6600   19.5604 C   0  0  0  0  0  0  0  0  0  0  0  0
    9.5491   -0.6380   24.1912 C   0  0  0  0  0  0  0  0  0  0  0  0
    7.5337   -6.9256   16.9519 C   0  0  0  0  0  0  0  0  0  0  0  0
    9.6782    0.5671   23.5143 C   0  0  0  0  0  0  0  0  0  0  0  0
    8.4532    0.3482   26.0821 C   0  0  0  0  0  0  0  0  0  0  0  0
   10.4239   -1.7677   22.2230 N   0  0  0  0  0  0  0  0  0  0  0  0
    9.9468   -4.5953   20.1709 C   0  0  0  0  0  0  0  0  0  0  0  0
   10.0366   -3.0590   23.9864 N   0  0  0  0  0  0  0  0  0  0  0  0
    7.1191   -7.3636   15.7739 C   0  0  0  0  0  0  0  0  0  0  0  0
    5.9612   -8.3203   17.2732 N   0  0  0  0  0  0  0  0  0  0  0  0
    8.5296   -5.9814   17.1841 C   0  0  0  0  0  0  0  0  0  0  0  0
    9.1527   -5.2118   16.2116 C   0  0  0  0  0  0  0  0  0  0  0  0
   10.3364   -3.8368   22.9255 O   0  0  0  0  0  0  0  0  0  0  0  0
    9.6947   -4.8407   18.8534 C   0  0  0  0  0  0  0  0  0  0  0  0
    9.1596    1.7042   24.1381 C   0  0  0  0  0  0  0  0  0  0  0  0
   11.0456   -2.9774   18.2694 N   0  0  0  0  0  0  0  0  0  0  0  0
   10.4788   -3.0457   21.8593 C   0  0  0  0  0  0  0  0  0  0  0  0
    8.8693   -5.8099   18.4657 N   0  0  0  0  0  0  0  0  0  0  0  0
    8.9892   -0.7926   25.4573 C   0  0  0  0  0  0  0  0  0  0  0  0
   10.5677   -3.4462   20.5323 C   0  0  0  0  0  0  0  0  0  0  0  0
  1  8  1  0
  1 12  4  0
  1 14  4  0
  2  3  4  0
  2 18  4  0
  3 20  4  0
  3 22  4  0
  4 11  4  0
  4 21  4  0
  5  9  4  0
  5 16  4  0
  6 15  4  0
  6 16  4  0
  7 22  4  0
  7 26  4  0
  8 10  4  0
  8 25  4  0
  9 15  4  0
  9 17  1  0
 10 21  4  0
 11 25  4  0
 12 23  4  0
 13 20  4  0
 13 26  4  0
 14 19  4  0
 17 18  4  0
 17 24  4  0
 19 23  4  0
 20 24  4  0
 23 26  1  0
M  END
$$$$

 Created by Python create_sdf_string function

 26 30  0  0  0  0  0  0  0  0999 V2000
   10.0084   -1.8019   23.4945 C   0  0  0  0  0  0  0  0  0  0  0  0
   10.0005   -4.2520   16.5631 C   0  0  0  0  0  0  0  0  0  0  0  0
   10.2759   -4.0036   17.8845 C   0  0  0  0  0  0  0  0  0  0  0  0
    8.5652    1.5478   25.3778 N   0  0  0  0  0  0  0  0  0  0  0  0
    6.8048   -7.5457   17.8752 C   0  0  0  0  0  0  0  0  0  0  0  0
    6.1721   -8.2186   15.9886 N   0  0  0  0  0  0  0  0  0  0  0  0
   11.1764   -2.6600   19.5604 C   0  0  0  0  0  0  0  0  0  0  0  0
    9.5491   -0.6380   24.1912 C   0  0  0  0  0  0  0  0  0  0  0  0
    7.5337   -6.9256   16.9519 C   0  0  0  0  0  0  0  0  0  0  0  0
    9.6782    0.5671   23.5143 C   0  0  0  0  0  0  0  0  0  0  0  0
    8.4532    0.3482   26.0821 C   0  0  0  0  0  0  0  0  0  0  0  0
   10.4239   -1.7677   22.2230 N   0  0  0  0  0  0  0  0  0  0  0  0
    9.9468   -4.5953   20.1709 C   0  0  0  0  0  0  0  0  0  0  0  0
   10.0366   -3.0590   23.9864 N   0  0  0  0  0  0  0  0  0  0  0  0
    7.1191   -7.3636   15.7739 C   0  0  0  0  0  0  0  0  0  0  0  0
    5.9612   -8.3203   17.2732 N   0  0  0  0  0  0  0  0  0  0  0  0
    8.5296   -5.9814   17.1841 C   0  0  0  0  0  0  0  0  0  0  0  0
    9.1527   -5.2118   16.2116 C   0  0  0  0  0  0  0  0  0  0  0  0
   10.3364   -3.8368   22.9255 O   0  0  0  0  0  0  0  0  0  0  0  0
    9.6947   -4.8407   18.8534 C   0  0  0  0  0  0  0  0  0  0  0  0
    9.1596    1.7042   24.1381 C   0  0  0  0  0  0  0  0  0  0  0  0
   11.0456   -2.9774   18.2694 N   0  0  0  0  0  0  0  0  0  0  0  0
   10.4788   -3.0457   21.8593 C   0  0  0  0  0  0  0  0  0  0  0  0
    8.8693   -5.8099   18.4657 N   0  0  0  0  0  0  0  0  0  0  0  0
    8.9892   -0.7926   25.4573 C   0  0  0  0  0  0  0  0  0  0  0  0
   10.5677   -3.4462   20.5323 C   0  0  0  0  0  0  0  0  0  0  0  0
  1  8  1  0
  1 12  4  0
  1 14  4  0
  2  3  4  0
  2 18  4  0
  3 20  4  0
  3 22  4  0
  4 11  4  0
  4 21  4  0
  5  9  4  0
  5 16  4  0
  6 15  4  0
  6 16  4  0
  7 22  4  0
  7 26  4  0
  8 10  4  0
  8 25  4  0
  9 15  4  0
  9 17  1  0
 10 21  4  0
 11 25  4  0
 12 23  4  0
 13 20  4  0
 13 26  4  0
 14 19  4  0
 17 18  4  0
 17 24  4  0
 19 23  4  0
 20 24  4  0
 23 26  1  0
M  END
$$$$

 Created by Python create_sdf_string function

 26 30  0  0  0  0  0  0  0  0999 V2000
   10.0084   -1.8019   23.4945 C   0  0  0  0  0  0  0  0  0  0  0  0
   10.0005   -4.2520   16.5631 C   0  0  0  0  0  0  0  0  0  0  0  0
   10.2759   -4.0036   17.8845 C   0  0  0  0  0  0  0  0  0  0  0  0
    8.5652    1.5478   25.3778 N   0  0  0  0  0  0  0  0  0  0  0  0
    6.8048   -7.5457   17.8752 C   0  0  0  0  0  0  0  0  0  0  0  0
    6.1721   -8.2186   15.9886 N   0  0  0  0  0  0  0  0  0  0  0  0
   11.1764   -2.6600   19.5604 C   0  0  0  0  0  0  0  0  0  0  0  0
    9.5491   -0.6380   24.1912 C   0  0  0  0  0  0  0  0  0  0  0  0
    7.5337   -6.9256   16.9519 C   0  0  0  0  0  0  0  0  0  0  0  0
    9.6782    0.5671   23.5143 C   0  0  0  0  0  0  0  0  0  0  0  0
    8.4532    0.3482   26.0821 C   0  0  0  0  0  0  0  0  0  0  0  0
   10.4239   -1.7677   22.2230 N   0  0  0  0  0  0  0  0  0  0  0  0
    9.9468   -4.5953   20.1709 C   0  0  0  0  0  0  0  0  0  0  0  0
   10.0366   -3.0590   23.9864 N   0  0  0  0  0  0  0  0  0  0  0  0
    7.1191   -7.3636   15.7739 C   0  0  0  0  0  0  0  0  0  0  0  0
    5.9612   -8.3203   17.2732 N   0  0  0  0  0  0  0  0  0  0  0  0
    8.5296   -5.9814   17.1841 C   0  0  0  0  0  0  0  0  0  0  0  0
    9.1527   -5.2118   16.2116 C   0  0  0  0  0  0  0  0  0  0  0  0
   10.3364   -3.8368   22.9255 O   0  0  0  0  0  0  0  0  0  0  0  0
    9.6947   -4.8407   18.8534 C   0  0  0  0  0  0  0  0  0  0  0  0
    9.1596    1.7042   24.1381 C   0  0  0  0  0  0  0  0  0  0  0  0
   11.0456   -2.9774   18.2694 N   0  0  0  0  0  0  0  0  0  0  0  0
   10.4788   -3.0457   21.8593 C   0  0  0  0  0  0  0  0  0  0  0  0
    8.8693   -5.8099   18.4657 N   0  0  0  0  0  0  0  0  0  0  0  0
    8.9892   -0.7926   25.4573 C   0  0  0  0  0  0  0  0  0  0  0  0
   10.5677   -3.4462   20.5323 C   0  0  0  0  0  0  0  0  0  0  0  0
  1  8  1  0
  1 12  4  0
  1 14  4  0
  2  3  4  0
  2 18  4  0
  3 20  4  0
  3 22  4  0
  4 11  4  0
  4 21  4  0
  5  9  4  0
  5 16  4  0
  6 15  4  0
  6 16  4  0
  7 22  4  0
  7 26  4  0
  8 10  4  0
  8 25  4  0
  9 15  4  0
  9 17  1  0
 10 21  4  0
 11 25  4  0
 12 23  4  0
 13 20  4  0
 13 26  4  0
 14 19  4  0
 17 18  4  0
 17 24  4  0
 19 23  4  0
 20 24  4  0
 23 26  1  0
M  END
$$$$

 Created by Python create_sdf_string function

 26 30  0  0  0  0  0  0  0  0999 V2000
   10.0084   -1.8019   23.4945 C   0  0  0  0  0  0  0  0  0  0  0  0
   10.0005   -4.2520   16.5631 C   0  0  0  0  0  0  0  0  0  0  0  0
   10.2759   -4.0036   17.8845 C   0  0  0  0  0  0  0  0  0  0  0  0
    8.5652    1.5478   25.3778 N   0  0  0  0  0  0  0  0  0  0  0  0
    6.8048   -7.5457   17.8752 C   0  0  0  0  0  0  0  0  0  0  0  0
    6.1721   -8.2186   15.9886 N   0  0  0  0  0  0  0  0  0  0  0  0
   11.1764   -2.6600   19.5604 C   0  0  0  0  0  0  0  0  0  0  0  0
    9.5491   -0.6380   24.1912 C   0  0  0  0  0  0  0  0  0  0  0  0
    7.5337   -6.9256   16.9519 C   0  0  0  0  0  0  0  0  0  0  0  0
    9.6782    0.5671   23.5143 C   0  0  0  0  0  0  0  0  0  0  0  0
    8.4532    0.3482   26.0821 C   0  0  0  0  0  0  0  0  0  0  0  0
   10.4239   -1.7677   22.2230 N   0  0  0  0  0  0  0  0  0  0  0  0
    9.9468   -4.5953   20.1709 C   0  0  0  0  0  0  0  0  0  0  0  0
   10.0366   -3.0590   23.9864 N   0  0  0  0  0  0  0  0  0  0  0  0
    7.1191   -7.3636   15.7739 C   0  0  0  0  0  0  0  0  0  0  0  0
    5.9612   -8.3203   17.2732 N   0  0  0  0  0  0  0  0  0  0  0  0
    8.5296   -5.9814   17.1841 C   0  0  0  0  0  0  0  0  0  0  0  0
    9.1527   -5.2118   16.2116 C   0  0  0  0  0  0  0  0  0  0  0  0
   10.3364   -3.8368   22.9255 O   0  0  0  0  0  0  0  0  0  0  0  0
    9.6947   -4.8407   18.8534 C   0  0  0  0  0  0  0  0  0  0  0  0
    9.1596    1.7042   24.1381 C   0  0  0  0  0  0  0  0  0  0  0  0
   11.0456   -2.9774   18.2694 N   0  0  0  0  0  0  0  0  0  0  0  0
   10.4788   -3.0457   21.8593 C   0  0  0  0  0  0  0  0  0  0  0  0
    8.8693   -5.8099   18.4657 N   0  0  0  0  0  0  0  0  0  0  0  0
    8.9892   -0.7926   25.4573 C   0  0  0  0  0  0  0  0  0  0  0  0
   10.5677   -3.4462   20.5323 C   0  0  0  0  0  0  0  0  0  0  0  0
  1  8  1  0
  1 12  4  0
  1 14  4  0
  2  3  4  0
  2 18  4  0
  3 20  4  0
  3 22  4  0
  4 11  4  0
  4 21  4  0
  5  9  4  0
  5 16  4  0
  6 15  4  0
  6 16  4  0
  7 22  4  0
  7 26  4  0
  8 10  4  0
  8 25  4  0
  9 15  4  0
  9 17  1  0
 10 21  4  0
 11 25  4  0
 12 23  4  0
 13 20  4  0
 13 26  4  0
 14 19  4  0
 17 18  4  0
 17 24  4  0
 19 23  4  0
 20 24  4  0
 23 26  1  0
M  END
$$$$

 Created by Python create_sdf_string function

 26 30  0  0  0  0  0  0  0  0999 V2000
   10.0084   -1.8019   23.4945 C   0  0  0  0  0  0  0  0  0  0  0  0
   10.0005   -4.2520   16.5631 C   0  0  0  0  0  0  0  0  0  0  0  0
   10.2759   -4.0036   17.8845 C   0  0  0  0  0  0  0  0  0  0  0  0
    8.5652    1.5478   25.3778 N   0  0  0  0  0  0  0  0  0  0  0  0
    6.8048   -7.5457   17.8752 C   0  0  0  0  0  0  0  0  0  0  0  0
    6.1721   -8.2186   15.9886 N   0  0  0  0  0  0  0  0  0  0  0  0
   11.1764   -2.6600   19.5604 C   0  0  0  0  0  0  0  0  0  0  0  0
    9.5491   -0.6380   24.1912 C   0  0  0  0  0  0  0  0  0  0  0  0
    7.5337   -6.9256   16.9519 C   0  0  0  0  0  0  0  0  0  0  0  0
    9.6782    0.5671   23.5143 C   0  0  0  0  0  0  0  0  0  0  0  0
    8.4532    0.3482   26.0821 C   0  0  0  0  0  0  0  0  0  0  0  0
   10.4239   -1.7677   22.2230 N   0  0  0  0  0  0  0  0  0  0  0  0
    9.9468   -4.5953   20.1709 C   0  0  0  0  0  0  0  0  0  0  0  0
   10.0366   -3.0590   23.9864 N   0  0  0  0  0  0  0  0  0  0  0  0
    7.1191   -7.3636   15.7739 C   0  0  0  0  0  0  0  0  0  0  0  0
    5.9612   -8.3203   17.2732 N   0  0  0  0  0  0  0  0  0  0  0  0
    8.5296   -5.9814   17.1841 C   0  0  0  0  0  0  0  0  0  0  0  0
    9.1527   -5.2118   16.2116 C   0  0  0  0  0  0  0  0  0  0  0  0
   10.3364   -3.8368   22.9255 O   0  0  0  0  0  0  0  0  0  0  0  0
    9.6947   -4.8407   18.8534 C   0  0  0  0  0  0  0  0  0  0  0  0
    9.1596    1.7042   24.1381 C   0  0  0  0  0  0  0  0  0  0  0  0
   11.0456   -2.9774   18.2694 N   0  0  0  0  0  0  0  0  0  0  0  0
   10.4788   -3.0457   21.8593 C   0  0  0  0  0  0  0  0  0  0  0  0
    8.8693   -5.8099   18.4657 N   0  0  0  0  0  0  0  0  0  0  0  0
    8.9892   -0.7926   25.4573 C   0  0  0  0  0  0  0  0  0  0  0  0
   10.5677   -3.4462   20.5323 C   0  0  0  0  0  0  0  0  0  0  0  0
  1  8  1  0
  1 12  4  0
  1 14  4  0
  2  3  4  0
  2 18  4  0
  3 20  4  0
  3 22  4  0
  4 11  4  0
  4 21  4  0
  5  9  4  0
  5 16  4  0
  6 15  4  0
  6 16  4  0
  7 22  4  0
  7 26  4  0
  8 10  4  0
  8 25  4  0
  9 15  4  0
  9 17  1  0
 10 21  4  0
 11 25  4  0
 12 23  4  0
 13 20  4  0
 13 26  4  0
 14 19  4  0
 17 18  4  0
 17 24  4  0
 19 23  4  0
 20 24  4  0
 23 26  1  0
M  END
$$$$

 Created by Python create_sdf_string function

 26 30  0  0  0  0  0  0  0  0999 V2000
   10.0084   -1.8019   23.4945 C   0  0  0  0  0  0  0  0  0  0  0  0
   10.0005   -4.2520   16.5631 C   0  0  0  0  0  0  0  0  0  0  0  0
   10.2759   -4.0036   17.8845 C   0  0  0  0  0  0  0  0  0  0  0  0
    8.5652    1.5478   25.3778 N   0  0  0  0  0  0  0  0  0  0  0  0
    6.8048   -7.5457   17.8752 C   0  0  0  0  0  0  0  0  0  0  0  0
    6.1721   -8.2186   15.9886 N   0  0  0  0  0  0  0  0  0  0  0  0
   11.1764   -2.6600   19.5604 C   0  0  0  0  0  0  0  0  0  0  0  0
    9.5491   -0.6380   24.1912 C   0  0  0  0  0  0  0  0  0  0  0  0
    7.5337   -6.9256   16.9519 C   0  0  0  0  0  0  0  0  0  0  0  0
    9.6782    0.5671   23.5143 C   0  0  0  0  0  0  0  0  0  0  0  0
    8.4532    0.3482   26.0821 C   0  0  0  0  0  0  0  0  0  0  0  0
   10.4239   -1.7677   22.2230 N   0  0  0  0  0  0  0  0  0  0  0  0
    9.9468   -4.5953   20.1709 C   0  0  0  0  0  0  0  0  0  0  0  0
   10.0366   -3.0590   23.9864 N   0  0  0  0  0  0  0  0  0  0  0  0
    7.1191   -7.3636   15.7739 C   0  0  0  0  0  0  0  0  0  0  0  0
    5.9612   -8.3203   17.2732 N   0  0  0  0  0  0  0  0  0  0  0  0
    8.5296   -5.9814   17.1841 C   0  0  0  0  0  0  0  0  0  0  0  0
    9.1527   -5.2118   16.2116 C   0  0  0  0  0  0  0  0  0  0  0  0
   10.3364   -3.8368   22.9255 O   0  0  0  0  0  0  0  0  0  0  0  0
    9.6947   -4.8407   18.8534 C   0  0  0  0  0  0  0  0  0  0  0  0
    9.1596    1.7042   24.1381 C   0  0  0  0  0  0  0  0  0  0  0  0
   11.0456   -2.9774   18.2694 N   0  0  0  0  0  0  0  0  0  0  0  0
   10.4788   -3.0457   21.8593 C   0  0  0  0  0  0  0  0  0  0  0  0
    8.8693   -5.8099   18.4657 N   0  0  0  0  0  0  0  0  0  0  0  0
    8.9892   -0.7926   25.4573 C   0  0  0  0  0  0  0  0  0  0  0  0
   10.5677   -3.4462   20.5323 C   0  0  0  0  0  0  0  0  0  0  0  0
  1  8  1  0
  1 12  4  0
  1 14  4  0
  2  3  4  0
  2 18  4  0
  3 20  4  0
  3 22  4  0
  4 11  4  0
  4 21  4  0
  5  9  4  0
  5 16  4  0
  6 15  4  0
  6 16  4  0
  7 22  4  0
  7 26  4  0
  8 10  4  0
  8 25  4  0
  9 15  4  0
  9 17  1  0
 10 21  4  0
 11 25  4  0
 12 23  4  0
 13 20  4  0
 13 26  4  0
 14 19  4  0
 17 18  4  0
 17 24  4  0
 19 23  4  0
 20 24  4  0
 23 26  1  0
M  END
$$$$

 Created by Python create_sdf_string function

 26 30  0  0  0  0  0  0  0  0999 V2000
   10.0084   -1.8019   23.4945 C   0  0  0  0  0  0  0  0  0  0  0  0
   10.0005   -4.2520   16.5631 C   0  0  0  0  0  0  0  0  0  0  0  0
   10.2759   -4.0036   17.8845 C   0  0  0  0  0  0  0  0  0  0  0  0
    8.5652    1.5478   25.3778 N   0  0  0  0  0  0  0  0  0  0  0  0
    6.8048   -7.5457   17.8752 C   0  0  0  0  0  0  0  0  0  0  0  0
    6.1721   -8.2186   15.9886 N   0  0  0  0  0  0  0  0  0  0  0  0
   11.1764   -2.6600   19.5604 C   0  0  0  0  0  0  0  0  0  0  0  0
    9.5491   -0.6380   24.1912 C   0  0  0  0  0  0  0  0  0  0  0  0
    7.5337   -6.9256   16.9519 C   0  0  0  0  0  0  0  0  0  0  0  0
    9.6782    0.5671   23.5143 C   0  0  0  0  0  0  0  0  0  0  0  0
    8.4532    0.3482   26.0821 C   0  0  0  0  0  0  0  0  0  0  0  0
   10.4239   -1.7677   22.2230 N   0  0  0  0  0  0  0  0  0  0  0  0
    9.9468   -4.5953   20.1709 C   0  0  0  0  0  0  0  0  0  0  0  0
   10.0366   -3.0590   23.9864 N   0  0  0  0  0  0  0  0  0  0  0  0
    7.1191   -7.3636   15.7739 C   0  0  0  0  0  0  0  0  0  0  0  0
    5.9612   -8.3203   17.2732 N   0  0  0  0  0  0  0  0  0  0  0  0
    8.5296   -5.9814   17.1841 C   0  0  0  0  0  0  0  0  0  0  0  0
    9.1527   -5.2118   16.2116 C   0  0  0  0  0  0  0  0  0  0  0  0
   10.3364   -3.8368   22.9255 O   0  0  0  0  0  0  0  0  0  0  0  0
    9.6947   -4.8407   18.8534 C   0  0  0  0  0  0  0  0  0  0  0  0
    9.1596    1.7042   24.1381 C   0  0  0  0  0  0  0  0  0  0  0  0
   11.0456   -2.9774   18.2694 N   0  0  0  0  0  0  0  0  0  0  0  0
   10.4788   -3.0457   21.8593 C   0  0  0  0  0  0  0  0  0  0  0  0
    8.8693   -5.8099   18.4657 N   0  0  0  0  0  0  0  0  0  0  0  0
    8.9892   -0.7926   25.4573 C   0  0  0  0  0  0  0  0  0  0  0  0
   10.5677   -3.4462   20.5323 C   0  0  0  0  0  0  0  0  0  0  0  0
  1  8  1  0
  1 12  4  0
  1 14  4  0
  2  3  4  0
  2 18  4  0
  3 20  4  0
  3 22  4  0
  4 11  4  0
  4 21  4  0
  5  9  4  0
  5 16  4  0
  6 15  4  0
  6 16  4  0
  7 22  4  0
  7 26  4  0
  8 10  4  0
  8 25  4  0
  9 15  4  0
  9 17  1  0
 10 21  4  0
 11 25  4  0
 12 23  4  0
 13 20  4  0
 13 26  4  0
 14 19  4  0
 17 18  4  0
 17 24  4  0
 19 23  4  0
 20 24  4  0
 23 26  1  0
M  END
$$$$

 Created by Python create_sdf_string function

 26 30  0  0  0  0  0  0  0  0999 V2000
   10.0084   -1.8019   23.4945 C   0  0  0  0  0  0  0  0  0  0  0  0
   10.0005   -4.2520   16.5631 C   0  0  0  0  0  0  0  0  0  0  0  0
   10.2759   -4.0036   17.8845 C   0  0  0  0  0  0  0  0  0  0  0  0
    8.5652    1.5478   25.3778 N   0  0  0  0  0  0  0  0  0  0  0  0
    6.8048   -7.5457   17.8752 C   0  0  0  0  0  0  0  0  0  0  0  0
    6.1721   -8.2186   15.9886 N   0  0  0  0  0  0  0  0  0  0  0  0
   11.1764   -2.6600   19.5604 C   0  0  0  0  0  0  0  0  0  0  0  0
    9.5491   -0.6380   24.1912 C   0  0  0  0  0  0  0  0  0  0  0  0
    7.5337   -6.9256   16.9519 C   0  0  0  0  0  0  0  0  0  0  0  0
    9.6782    0.5671   23.5143 C   0  0  0  0  0  0  0  0  0  0  0  0
    8.4532    0.3482   26.0821 C   0  0  0  0  0  0  0  0  0  0  0  0
   10.4239   -1.7677   22.2230 N   0  0  0  0  0  0  0  0  0  0  0  0
    9.9468   -4.5953   20.1709 C   0  0  0  0  0  0  0  0  0  0  0  0
   10.0366   -3.0590   23.9864 N   0  0  0  0  0  0  0  0  0  0  0  0
    7.1191   -7.3636   15.7739 C   0  0  0  0  0  0  0  0  0  0  0  0
    5.9612   -8.3203   17.2732 N   0  0  0  0  0  0  0  0  0  0  0  0
    8.5296   -5.9814   17.1841 C   0  0  0  0  0  0  0  0  0  0  0  0
    9.1527   -5.2118   16.2116 C   0  0  0  0  0  0  0  0  0  0  0  0
   10.3364   -3.8368   22.9255 O   0  0  0  0  0  0  0  0  0  0  0  0
    9.6947   -4.8407   18.8534 C   0  0  0  0  0  0  0  0  0  0  0  0
    9.1596    1.7042   24.1381 C   0  0  0  0  0  0  0  0  0  0  0  0
   11.0456   -2.9774   18.2694 N   0  0  0  0  0  0  0  0  0  0  0  0
   10.4788   -3.0457   21.8593 C   0  0  0  0  0  0  0  0  0  0  0  0
    8.8693   -5.8099   18.4657 N   0  0  0  0  0  0  0  0  0  0  0  0
    8.9892   -0.7926   25.4573 C   0  0  0  0  0  0  0  0  0  0  0  0
   10.5677   -3.4462   20.5323 C   0  0  0  0  0  0  0  0  0  0  0  0
  1  8  1  0
  1 12  4  0
  1 14  4  0
  2  3  4  0
  2 18  4  0
  3 20  4  0
  3 22  4  0
  4 11  4  0
  4 21  4  0
  5  9  4  0
  5 16  4  0
  6 15  4  0
  6 16  4  0
  7 22  4  0
  7 26  4  0
  8 10  4  0
  8 25  4  0
  9 15  4  0
  9 17  1  0
 10 21  4  0
 11 25  4  0
 12 23  4  0
 13 20  4  0
 13 26  4  0
 14 19  4  0
 17 18  4  0
 17 24  4  0
 19 23  4  0
 20 24  4  0
 23 26  1  0
M  END
$$$$

 Created by Python create_sdf_string function

 26 30  0  0  0  0  0  0  0  0999 V2000
   10.0084   -1.8019   23.4945 C   0  0  0  0  0  0  0  0  0  0  0  0
   10.0005   -4.2520   16.5631 C   0  0  0  0  0  0  0  0  0  0  0  0
   10.2759   -4.0036   17.8845 C   0  0  0  0  0  0  0  0  0  0  0  0
    8.5652    1.5478   25.3778 N   0  0  0  0  0  0  0  0  0  0  0  0
    6.8048   -7.5457   17.8752 C   0  0  0  0  0  0  0  0  0  0  0  0
    6.1721   -8.2186   15.9886 N   0  0  0  0  0  0  0  0  0  0  0  0
   11.1764   -2.6600   19.5604 C   0  0  0  0  0  0  0  0  0  0  0  0
    9.5491   -0.6380   24.1912 C   0  0  0  0  0  0  0  0  0  0  0  0
    7.5337   -6.9256   16.9519 C   0  0  0  0  0  0  0  0  0  0  0  0
    9.6782    0.5671   23.5143 C   0  0  0  0  0  0  0  0  0  0  0  0
    8.4532    0.3482   26.0821 C   0  0  0  0  0  0  0  0  0  0  0  0
   10.4239   -1.7677   22.2230 N   0  0  0  0  0  0  0  0  0  0  0  0
    9.9468   -4.5953   20.1709 C   0  0  0  0  0  0  0  0  0  0  0  0
   10.0366   -3.0590   23.9864 N   0  0  0  0  0  0  0  0  0  0  0  0
    7.1191   -7.3636   15.7739 C   0  0  0  0  0  0  0  0  0  0  0  0
    5.9612   -8.3203   17.2732 N   0  0  0  0  0  0  0  0  0  0  0  0
    8.5296   -5.9814   17.1841 C   0  0  0  0  0  0  0  0  0  0  0  0
    9.1527   -5.2118   16.2116 C   0  0  0  0  0  0  0  0  0  0  0  0
   10.3364   -3.8368   22.9255 O   0  0  0  0  0  0  0  0  0  0  0  0
    9.6947   -4.8407   18.8534 C   0  0  0  0  0  0  0  0  0  0  0  0
    9.1596    1.7042   24.1381 C   0  0  0  0  0  0  0  0  0  0  0  0
   11.0456   -2.9774   18.2694 N   0  0  0  0  0  0  0  0  0  0  0  0
   10.4788   -3.0457   21.8593 C   0  0  0  0  0  0  0  0  0  0  0  0
    8.8693   -5.8099   18.4657 N   0  0  0  0  0  0  0  0  0  0  0  0
    8.9892   -0.7926   25.4573 C   0  0  0  0  0  0  0  0  0  0  0  0
   10.5677   -3.4462   20.5323 C   0  0  0  0  0  0  0  0  0  0  0  0
  1  8  1  0
  1 12  4  0
  1 14  4  0
  2  3  4  0
  2 18  4  0
  3 20  4  0
  3 22  4  0
  4 11  4  0
  4 21  4  0
  5  9  4  0
  5 16  4  0
  6 15  4  0
  6 16  4  0
  7 22  4  0
  7 26  4  0
  8 10  4  0
  8 25  4  0
  9 15  4  0
  9 17  1  0
 10 21  4  0
 11 25  4  0
 12 23  4  0
 13 20  4  0
 13 26  4  0
 14 19  4  0
 17 18  4  0
 17 24  4  0
 19 23  4  0
 20 24  4  0
 23 26  1  0
M  END
$$$$

 Created by Python create_sdf_string function

 26 30  0  0  0  0  0  0  0  0999 V2000
   10.0084   -1.8019   23.4945 C   0  0  0  0  0  0  0  0  0  0  0  0
   10.0005   -4.2520   16.5631 C   0  0  0  0  0  0  0  0  0  0  0  0
   10.2759   -4.0036   17.8845 C   0  0  0  0  0  0  0  0  0  0  0  0
    8.5652    1.5478   25.3778 N   0  0  0  0  0  0  0  0  0  0  0  0
    6.8048   -7.5457   17.8752 C   0  0  0  0  0  0  0  0  0  0  0  0
    6.1721   -8.2186   15.9886 N   0  0  0  0  0  0  0  0  0  0  0  0
   11.1764   -2.6600   19.5604 C   0  0  0  0  0  0  0  0  0  0  0  0
    9.5491   -0.6380   24.1912 C   0  0  0  0  0  0  0  0  0  0  0  0
    7.5337   -6.9256   16.9519 C   0  0  0  0  0  0  0  0  0  0  0  0
    9.6782    0.5671   23.5143 C   0  0  0  0  0  0  0  0  0  0  0  0
    8.4532    0.3482   26.0821 C   0  0  0  0  0  0  0  0  0  0  0  0
   10.4239   -1.7677   22.2230 N   0  0  0  0  0  0  0  0  0  0  0  0
    9.9468   -4.5953   20.1709 C   0  0  0  0  0  0  0  0  0  0  0  0
   10.0366   -3.0590   23.9864 N   0  0  0  0  0  0  0  0  0  0  0  0
    7.1191   -7.3636   15.7739 C   0  0  0  0  0  0  0  0  0  0  0  0
    5.9612   -8.3203   17.2732 N   0  0  0  0  0  0  0  0  0  0  0  0
    8.5296   -5.9814   17.1841 C   0  0  0  0  0  0  0  0  0  0  0  0
    9.1527   -5.2118   16.2116 C   0  0  0  0  0  0  0  0  0  0  0  0
   10.3364   -3.8368   22.9255 O   0  0  0  0  0  0  0  0  0  0  0  0
    9.6947   -4.8407   18.8534 C   0  0  0  0  0  0  0  0  0  0  0  0
    9.1596    1.7042   24.1381 C   0  0  0  0  0  0  0  0  0  0  0  0
   11.0456   -2.9774   18.2694 N   0  0  0  0  0  0  0  0  0  0  0  0
   10.4788   -3.0457   21.8593 C   0  0  0  0  0  0  0  0  0  0  0  0
    8.8693   -5.8099   18.4657 N   0  0  0  0  0  0  0  0  0  0  0  0
    8.9892   -0.7926   25.4573 C   0  0  0  0  0  0  0  0  0  0  0  0
   10.5677   -3.4462   20.5323 C   0  0  0  0  0  0  0  0  0  0  0  0
  1  8  1  0
  1 12  4  0
  1 14  4  0
  2  3  4  0
  2 18  4  0
  3 20  4  0
  3 22  4  0
  4 11  4  0
  4 21  4  0
  5  9  4  0
  5 16  4  0
  6 15  4  0
  6 16  4  0
  7 22  4  0
  7 26  4  0
  8 10  4  0
  8 25  4  0
  9 15  4  0
  9 17  1  0
 10 21  4  0
 11 25  4  0
 12 23  4  0
 13 20  4  0
 13 26  4  0
 14 19  4  0
 17 18  4  0
 17 24  4  0
 19 23  4  0
 20 24  4  0
 23 26  1  0
M  END
$$$$

 Created by Python create_sdf_string function

 26 30  0  0  0  0  0  0  0  0999 V2000
   10.0084   -1.8019   23.4945 C   0  0  0  0  0  0  0  0  0  0  0  0
   10.0005   -4.2520   16.5631 C   0  0  0  0  0  0  0  0  0  0  0  0
   10.2759   -4.0036   17.8845 C   0  0  0  0  0  0  0  0  0  0  0  0
    8.5652    1.5478   25.3778 N   0  0  0  0  0  0  0  0  0  0  0  0
    6.8048   -7.5457   17.8752 C   0  0  0  0  0  0  0  0  0  0  0  0
    6.1721   -8.2186   15.9886 N   0  0  0  0  0  0  0  0  0  0  0  0
   11.1764   -2.6600   19.5604 C   0  0  0  0  0  0  0  0  0  0  0  0
    9.5491   -0.6380   24.1912 C   0  0  0  0  0  0  0  0  0  0  0  0
    7.5337   -6.9256   16.9519 C   0  0  0  0  0  0  0  0  0  0  0  0
    9.6782    0.5671   23.5143 C   0  0  0  0  0  0  0  0  0  0  0  0
    8.4532    0.3482   26.0821 C   0  0  0  0  0  0  0  0  0  0  0  0
   10.4239   -1.7677   22.2230 N   0  0  0  0  0  0  0  0  0  0  0  0
    9.9468   -4.5953   20.1709 C   0  0  0  0  0  0  0  0  0  0  0  0
   10.0366   -3.0590   23.9864 N   0  0  0  0  0  0  0  0  0  0  0  0
    7.1191   -7.3636   15.7739 C   0  0  0  0  0  0  0  0  0  0  0  0
    5.9612   -8.3203   17.2732 N   0  0  0  0  0  0  0  0  0  0  0  0
    8.5296   -5.9814   17.1841 C   0  0  0  0  0  0  0  0  0  0  0  0
    9.1527   -5.2118   16.2116 C   0  0  0  0  0  0  0  0  0  0  0  0
   10.3364   -3.8368   22.9255 O   0  0  0  0  0  0  0  0  0  0  0  0
    9.6947   -4.8407   18.8534 C   0  0  0  0  0  0  0  0  0  0  0  0
    9.1596    1.7042   24.1381 C   0  0  0  0  0  0  0  0  0  0  0  0
   11.0456   -2.9774   18.2694 N   0  0  0  0  0  0  0  0  0  0  0  0
   10.4788   -3.0457   21.8593 C   0  0  0  0  0  0  0  0  0  0  0  0
    8.8693   -5.8099   18.4657 N   0  0  0  0  0  0  0  0  0  0  0  0
    8.9892   -0.7926   25.4573 C   0  0  0  0  0  0  0  0  0  0  0  0
   10.5677   -3.4462   20.5323 C   0  0  0  0  0  0  0  0  0  0  0  0
  1  8  1  0
  1 12  4  0
  1 14  4  0
  2  3  4  0
  2 18  4  0
  3 20  4  0
  3 22  4  0
  4 11  4  0
  4 21  4  0
  5  9  4  0
  5 16  4  0
  6 15  4  0
  6 16  4  0
  7 22  4  0
  7 26  4  0
  8 10  4  0
  8 25  4  0
  9 15  4  0
  9 17  1  0
 10 21  4  0
 11 25  4  0
 12 23  4  0
 13 20  4  0
 13 26  4  0
 14 19  4  0
 17 18  4  0
 17 24  4  0
 19 23  4  0
 20 24  4  0
 23 26  1  0
M  END
$$$$

 Created by Python create_sdf_string function

 26 30  0  0  0  0  0  0  0  0999 V2000
   10.0084   -1.8019   23.4945 C   0  0  0  0  0  0  0  0  0  0  0  0
   10.0005   -4.2520   16.5631 C   0  0  0  0  0  0  0  0  0  0  0  0
   10.2759   -4.0036   17.8845 C   0  0  0  0  0  0  0  0  0  0  0  0
    8.5652    1.5478   25.3778 N   0  0  0  0  0  0  0  0  0  0  0  0
    6.8048   -7.5457   17.8752 C   0  0  0  0  0  0  0  0  0  0  0  0
    6.1721   -8.2186   15.9886 N   0  0  0  0  0  0  0  0  0  0  0  0
   11.1764   -2.6600   19.5604 C   0  0  0  0  0  0  0  0  0  0  0  0
    9.5491   -0.6380   24.1912 C   0  0  0  0  0  0  0  0  0  0  0  0
    7.5337   -6.9256   16.9519 C   0  0  0  0  0  0  0  0  0  0  0  0
    9.6782    0.5671   23.5143 C   0  0  0  0  0  0  0  0  0  0  0  0
    8.4532    0.3482   26.0821 C   0  0  0  0  0  0  0  0  0  0  0  0
   10.4239   -1.7677   22.2230 N   0  0  0  0  0  0  0  0  0  0  0  0
    9.9468   -4.5953   20.1709 C   0  0  0  0  0  0  0  0  0  0  0  0
   10.0366   -3.0590   23.9864 N   0  0  0  0  0  0  0  0  0  0  0  0
    7.1191   -7.3636   15.7739 C   0  0  0  0  0  0  0  0  0  0  0  0
    5.9612   -8.3203   17.2732 N   0  0  0  0  0  0  0  0  0  0  0  0
    8.5296   -5.9814   17.1841 C   0  0  0  0  0  0  0  0  0  0  0  0
    9.1527   -5.2118   16.2116 C   0  0  0  0  0  0  0  0  0  0  0  0
   10.3364   -3.8368   22.9255 O   0  0  0  0  0  0  0  0  0  0  0  0
    9.6947   -4.8407   18.8534 C   0  0  0  0  0  0  0  0  0  0  0  0
    9.1596    1.7042   24.1381 C   0  0  0  0  0  0  0  0  0  0  0  0
   11.0456   -2.9774   18.2694 N   0  0  0  0  0  0  0  0  0  0  0  0
   10.4788   -3.0457   21.8593 C   0  0  0  0  0  0  0  0  0  0  0  0
    8.8693   -5.8099   18.4657 N   0  0  0  0  0  0  0  0  0  0  0  0
    8.9892   -0.7926   25.4573 C   0  0  0  0  0  0  0  0  0  0  0  0
   10.5677   -3.4462   20.5323 C   0  0  0  0  0  0  0  0  0  0  0  0
  1  8  1  0
  1 12  4  0
  1 14  4  0
  2  3  4  0
  2 18  4  0
  3 20  4  0
  3 22  4  0
  4 11  4  0
  4 21  4  0
  5  9  4  0
  5 16  4  0
  6 15  4  0
  6 16  4  0
  7 22  4  0
  7 26  4  0
  8 10  4  0
  8 25  4  0
  9 15  4  0
  9 17  1  0
 10 21  4  0
 11 25  4  0
 12 23  4  0
 13 20  4  0
 13 26  4  0
 14 19  4  0
 17 18  4  0
 17 24  4  0
 19 23  4  0
 20 24  4  0
 23 26  1  0
M  END
$$$$

 Created by Python create_sdf_string function

 26 30  0  0  0  0  0  0  0  0999 V2000
   10.0084   -1.8019   23.4945 C   0  0  0  0  0  0  0  0  0  0  0  0
   10.0005   -4.2520   16.5631 C   0  0  0  0  0  0  0  0  0  0  0  0
   10.2759   -4.0036   17.8845 C   0  0  0  0  0  0  0  0  0  0  0  0
    8.5652    1.5478   25.3778 N   0  0  0  0  0  0  0  0  0  0  0  0
    6.8048   -7.5457   17.8752 C   0  0  0  0  0  0  0  0  0  0  0  0
    6.1721   -8.2186   15.9886 N   0  0  0  0  0  0  0  0  0  0  0  0
   11.1764   -2.6600   19.5604 C   0  0  0  0  0  0  0  0  0  0  0  0
    9.5491   -0.6380   24.1912 C   0  0  0  0  0  0  0  0  0  0  0  0
    7.5337   -6.9256   16.9519 C   0  0  0  0  0  0  0  0  0  0  0  0
    9.6782    0.5671   23.5143 C   0  0  0  0  0  0  0  0  0  0  0  0
    8.4532    0.3482   26.0821 C   0  0  0  0  0  0  0  0  0  0  0  0
   10.4239   -1.7677   22.2230 N   0  0  0  0  0  0  0  0  0  0  0  0
    9.9468   -4.5953   20.1709 C   0  0  0  0  0  0  0  0  0  0  0  0
   10.0366   -3.0590   23.9864 N   0  0  0  0  0  0  0  0  0  0  0  0
    7.1191   -7.3636   15.7739 C   0  0  0  0  0  0  0  0  0  0  0  0
    5.9612   -8.3203   17.2732 N   0  0  0  0  0  0  0  0  0  0  0  0
    8.5296   -5.9814   17.1841 C   0  0  0  0  0  0  0  0  0  0  0  0
    9.1527   -5.2118   16.2116 C   0  0  0  0  0  0  0  0  0  0  0  0
   10.3364   -3.8368   22.9255 O   0  0  0  0  0  0  0  0  0  0  0  0
    9.6947   -4.8407   18.8534 C   0  0  0  0  0  0  0  0  0  0  0  0
    9.1596    1.7042   24.1381 C   0  0  0  0  0  0  0  0  0  0  0  0
   11.0456   -2.9774   18.2694 N   0  0  0  0  0  0  0  0  0  0  0  0
   10.4788   -3.0457   21.8593 C   0  0  0  0  0  0  0  0  0  0  0  0
    8.8693   -5.8099   18.4657 N   0  0  0  0  0  0  0  0  0  0  0  0
    8.9892   -0.7926   25.4573 C   0  0  0  0  0  0  0  0  0  0  0  0
   10.5677   -3.4462   20.5323 C   0  0  0  0  0  0  0  0  0  0  0  0
  1  8  1  0
  1 12  4  0
  1 14  4  0
  2  3  4  0
  2 18  4  0
  3 20  4  0
  3 22  4  0
  4 11  4  0
  4 21  4  0
  5  9  4  0
  5 16  4  0
  6 15  4  0
  6 16  4  0
  7 22  4  0
  7 26  4  0
  8 10  4  0
  8 25  4  0
  9 15  4  0
  9 17  1  0
 10 21  4  0
 11 25  4  0
 12 23  4  0
 13 20  4  0
 13 26  4  0
 14 19  4  0
 17 18  4  0
 17 24  4  0
 19 23  4  0
 20 24  4  0
 23 26  1  0
M  END
$$$$

 Created by Python create_sdf_string function

 26 30  0  0  0  0  0  0  0  0999 V2000
   10.0084   -1.8019   23.4945 C   0  0  0  0  0  0  0  0  0  0  0  0
   10.0005   -4.2520   16.5631 C   0  0  0  0  0  0  0  0  0  0  0  0
   10.2759   -4.0036   17.8845 C   0  0  0  0  0  0  0  0  0  0  0  0
    8.5652    1.5478   25.3778 N   0  0  0  0  0  0  0  0  0  0  0  0
    6.8048   -7.5457   17.8752 C   0  0  0  0  0  0  0  0  0  0  0  0
    6.1721   -8.2186   15.9886 N   0  0  0  0  0  0  0  0  0  0  0  0
   11.1764   -2.6600   19.5604 C   0  0  0  0  0  0  0  0  0  0  0  0
    9.5491   -0.6380   24.1912 C   0  0  0  0  0  0  0  0  0  0  0  0
    7.5337   -6.9256   16.9519 C   0  0  0  0  0  0  0  0  0  0  0  0
    9.6782    0.5671   23.5143 C   0  0  0  0  0  0  0  0  0  0  0  0
    8.4532    0.3482   26.0821 C   0  0  0  0  0  0  0  0  0  0  0  0
   10.4239   -1.7677   22.2230 N   0  0  0  0  0  0  0  0  0  0  0  0
    9.9468   -4.5953   20.1709 C   0  0  0  0  0  0  0  0  0  0  0  0
   10.0366   -3.0590   23.9864 N   0  0  0  0  0  0  0  0  0  0  0  0
    7.1191   -7.3636   15.7739 C   0  0  0  0  0  0  0  0  0  0  0  0
    5.9612   -8.3203   17.2732 N   0  0  0  0  0  0  0  0  0  0  0  0
    8.5296   -5.9814   17.1841 C   0  0  0  0  0  0  0  0  0  0  0  0
    9.1527   -5.2118   16.2116 C   0  0  0  0  0  0  0  0  0  0  0  0
   10.3364   -3.8368   22.9255 O   0  0  0  0  0  0  0  0  0  0  0  0
    9.6947   -4.8407   18.8534 C   0  0  0  0  0  0  0  0  0  0  0  0
    9.1596    1.7042   24.1381 C   0  0  0  0  0  0  0  0  0  0  0  0
   11.0456   -2.9774   18.2694 N   0  0  0  0  0  0  0  0  0  0  0  0
   10.4788   -3.0457   21.8593 C   0  0  0  0  0  0  0  0  0  0  0  0
    8.8693   -5.8099   18.4657 N   0  0  0  0  0  0  0  0  0  0  0  0
    8.9892   -0.7926   25.4573 C   0  0  0  0  0  0  0  0  0  0  0  0
   10.5677   -3.4462   20.5323 C   0  0  0  0  0  0  0  0  0  0  0  0
  1  8  1  0
  1 12  4  0
  1 14  4  0
  2  3  4  0
  2 18  4  0
  3 20  4  0
  3 22  4  0
  4 11  4  0
  4 21  4  0
  5  9  4  0
  5 16  4  0
  6 15  4  0
  6 16  4  0
  7 22  4  0
  7 26  4  0
  8 10  4  0
  8 25  4  0
  9 15  4  0
  9 17  1  0
 10 21  4  0
 11 25  4  0
 12 23  4  0
 13 20  4  0
 13 26  4  0
 14 19  4  0
 17 18  4  0
 17 24  4  0
 19 23  4  0
 20 24  4  0
 23 26  1  0
M  END
$$$$

 Created by Python create_sdf_string function

 26 30  0  0  0  0  0  0  0  0999 V2000
   10.0084   -1.8019   23.4945 C   0  0  0  0  0  0  0  0  0  0  0  0
   10.0005   -4.2520   16.5631 C   0  0  0  0  0  0  0  0  0  0  0  0
   10.2759   -4.0036   17.8845 C   0  0  0  0  0  0  0  0  0  0  0  0
    8.5652    1.5478   25.3778 N   0  0  0  0  0  0  0  0  0  0  0  0
    6.8048   -7.5457   17.8752 C   0  0  0  0  0  0  0  0  0  0  0  0
    6.1721   -8.2186   15.9886 N   0  0  0  0  0  0  0  0  0  0  0  0
   11.1764   -2.6600   19.5604 C   0  0  0  0  0  0  0  0  0  0  0  0
    9.5491   -0.6380   24.1912 C   0  0  0  0  0  0  0  0  0  0  0  0
    7.5337   -6.9256   16.9519 C   0  0  0  0  0  0  0  0  0  0  0  0
    9.6782    0.5671   23.5143 C   0  0  0  0  0  0  0  0  0  0  0  0
    8.4532    0.3482   26.0821 C   0  0  0  0  0  0  0  0  0  0  0  0
   10.4239   -1.7677   22.2230 N   0  0  0  0  0  0  0  0  0  0  0  0
    9.9468   -4.5953   20.1709 C   0  0  0  0  0  0  0  0  0  0  0  0
   10.0366   -3.0590   23.9864 N   0  0  0  0  0  0  0  0  0  0  0  0
    7.1191   -7.3636   15.7739 C   0  0  0  0  0  0  0  0  0  0  0  0
    5.9612   -8.3203   17.2732 N   0  0  0  0  0  0  0  0  0  0  0  0
    8.5296   -5.9814   17.1841 C   0  0  0  0  0  0  0  0  0  0  0  0
    9.1527   -5.2118   16.2116 C   0  0  0  0  0  0  0  0  0  0  0  0
   10.3364   -3.8368   22.9255 O   0  0  0  0  0  0  0  0  0  0  0  0
    9.6947   -4.8407   18.8534 C   0  0  0  0  0  0  0  0  0  0  0  0
    9.1596    1.7042   24.1381 C   0  0  0  0  0  0  0  0  0  0  0  0
   11.0456   -2.9774   18.2694 N   0  0  0  0  0  0  0  0  0  0  0  0
   10.4788   -3.0457   21.8593 C   0  0  0  0  0  0  0  0  0  0  0  0
    8.8693   -5.8099   18.4657 N   0  0  0  0  0  0  0  0  0  0  0  0
    8.9892   -0.7926   25.4573 C   0  0  0  0  0  0  0  0  0  0  0  0
   10.5677   -3.4462   20.5323 C   0  0  0  0  0  0  0  0  0  0  0  0
  1  8  1  0
  1 12  4  0
  1 14  4  0
  2  3  4  0
  2 18  4  0
  3 20  4  0
  3 22  4  0
  4 11  4  0
  4 21  4  0
  5  9  4  0
  5 16  4  0
  6 15  4  0
  6 16  4  0
  7 22  4  0
  7 26  4  0
  8 10  4  0
  8 25  4  0
  9 15  4  0
  9 17  1  0
 10 21  4  0
 11 25  4  0
 12 23  4  0
 13 20  4  0
 13 26  4  0
 14 19  4  0
 17 18  4  0
 17 24  4  0
 19 23  4  0
 20 24  4  0
 23 26  1  0
M  END
$$$$

 Created by Python create_sdf_string function

 26 30  0  0  0  0  0  0  0  0999 V2000
   10.0084   -1.8019   23.4945 C   0  0  0  0  0  0  0  0  0  0  0  0
   10.0005   -4.2520   16.5631 C   0  0  0  0  0  0  0  0  0  0  0  0
   10.2759   -4.0036   17.8845 C   0  0  0  0  0  0  0  0  0  0  0  0
    8.5652    1.5478   25.3778 N   0  0  0  0  0  0  0  0  0  0  0  0
    6.8048   -7.5457   17.8752 C   0  0  0  0  0  0  0  0  0  0  0  0
    6.1721   -8.2186   15.9886 N   0  0  0  0  0  0  0  0  0  0  0  0
   11.1764   -2.6600   19.5604 C   0  0  0  0  0  0  0  0  0  0  0  0
    9.5491   -0.6380   24.1912 C   0  0  0  0  0  0  0  0  0  0  0  0
    7.5337   -6.9256   16.9519 C   0  0  0  0  0  0  0  0  0  0  0  0
    9.6782    0.5671   23.5143 C   0  0  0  0  0  0  0  0  0  0  0  0
    8.4532    0.3482   26.0821 C   0  0  0  0  0  0  0  0  0  0  0  0
   10.4239   -1.7677   22.2230 N   0  0  0  0  0  0  0  0  0  0  0  0
    9.9468   -4.5953   20.1709 C   0  0  0  0  0  0  0  0  0  0  0  0
   10.0366   -3.0590   23.9864 N   0  0  0  0  0  0  0  0  0  0  0  0
    7.1191   -7.3636   15.7739 C   0  0  0  0  0  0  0  0  0  0  0  0
    5.9612   -8.3203   17.2732 N   0  0  0  0  0  0  0  0  0  0  0  0
    8.5296   -5.9814   17.1841 C   0  0  0  0  0  0  0  0  0  0  0  0
    9.1527   -5.2118   16.2116 C   0  0  0  0  0  0  0  0  0  0  0  0
   10.3364   -3.8368   22.9255 O   0  0  0  0  0  0  0  0  0  0  0  0
    9.6947   -4.8407   18.8534 C   0  0  0  0  0  0  0  0  0  0  0  0
    9.1596    1.7042   24.1381 C   0  0  0  0  0  0  0  0  0  0  0  0
   11.0456   -2.9774   18.2694 N   0  0  0  0  0  0  0  0  0  0  0  0
   10.4788   -3.0457   21.8593 C   0  0  0  0  0  0  0  0  0  0  0  0
    8.8693   -5.8099   18.4657 N   0  0  0  0  0  0  0  0  0  0  0  0
    8.9892   -0.7926   25.4573 C   0  0  0  0  0  0  0  0  0  0  0  0
   10.5677   -3.4462   20.5323 C   0  0  0  0  0  0  0  0  0  0  0  0
  1  8  1  0
  1 12  4  0
  1 14  4  0
  2  3  4  0
  2 18  4  0
  3 20  4  0
  3 22  4  0
  4 11  4  0
  4 21  4  0
  5  9  4  0
  5 16  4  0
  6 15  4  0
  6 16  4  0
  7 22  4  0
  7 26  4  0
  8 10  4  0
  8 25  4  0
  9 15  4  0
  9 17  1  0
 10 21  4  0
 11 25  4  0
 12 23  4  0
 13 20  4  0
 13 26  4  0
 14 19  4  0
 17 18  4  0
 17 24  4  0
 19 23  4  0
 20 24  4  0
 23 26  1  0
M  END
$$$$

 Created by Python create_sdf_string function

 26 30  0  0  0  0  0  0  0  0999 V2000
   10.0084   -1.8019   23.4945 C   0  0  0  0  0  0  0  0  0  0  0  0
   10.0005   -4.2520   16.5631 C   0  0  0  0  0  0  0  0  0  0  0  0
   10.2759   -4.0036   17.8845 C   0  0  0  0  0  0  0  0  0  0  0  0
    8.5652    1.5478   25.3778 N   0  0  0  0  0  0  0  0  0  0  0  0
    6.8048   -7.5457   17.8752 C   0  0  0  0  0  0  0  0  0  0  0  0
    6.1721   -8.2186   15.9886 N   0  0  0  0  0  0  0  0  0  0  0  0
   11.1764   -2.6600   19.5604 C   0  0  0  0  0  0  0  0  0  0  0  0
    9.5491   -0.6380   24.1912 C   0  0  0  0  0  0  0  0  0  0  0  0
    7.5337   -6.9256   16.9519 C   0  0  0  0  0  0  0  0  0  0  0  0
    9.6782    0.5671   23.5143 C   0  0  0  0  0  0  0  0  0  0  0  0
    8.4532    0.3482   26.0821 C   0  0  0  0  0  0  0  0  0  0  0  0
   10.4239   -1.7677   22.2230 N   0  0  0  0  0  0  0  0  0  0  0  0
    9.9468   -4.5953   20.1709 C   0  0  0  0  0  0  0  0  0  0  0  0
   10.0366   -3.0590   23.9864 N   0  0  0  0  0  0  0  0  0  0  0  0
    7.1191   -7.3636   15.7739 C   0  0  0  0  0  0  0  0  0  0  0  0
    5.9612   -8.3203   17.2732 N   0  0  0  0  0  0  0  0  0  0  0  0
    8.5296   -5.9814   17.1841 C   0  0  0  0  0  0  0  0  0  0  0  0
    9.1527   -5.2118   16.2116 C   0  0  0  0  0  0  0  0  0  0  0  0
   10.3364   -3.8368   22.9255 O   0  0  0  0  0  0  0  0  0  0  0  0
    9.6947   -4.8407   18.8534 C   0  0  0  0  0  0  0  0  0  0  0  0
    9.1596    1.7042   24.1381 C   0  0  0  0  0  0  0  0  0  0  0  0
   11.0456   -2.9774   18.2694 N   0  0  0  0  0  0  0  0  0  0  0  0
   10.4788   -3.0457   21.8593 C   0  0  0  0  0  0  0  0  0  0  0  0
    8.8693   -5.8099   18.4657 N   0  0  0  0  0  0  0  0  0  0  0  0
    8.9892   -0.7926   25.4573 C   0  0  0  0  0  0  0  0  0  0  0  0
   10.5677   -3.4462   20.5323 C   0  0  0  0  0  0  0  0  0  0  0  0
  1  8  1  0
  1 12  4  0
  1 14  4  0
  2  3  4  0
  2 18  4  0
  3 20  4  0
  3 22  4  0
  4 11  4  0
  4 21  4  0
  5  9  4  0
  5 16  4  0
  6 15  4  0
  6 16  4  0
  7 22  4  0
  7 26  4  0
  8 10  4  0
  8 25  4  0
  9 15  4  0
  9 17  1  0
 10 21  4  0
 11 25  4  0
 12 23  4  0
 13 20  4  0
 13 26  4  0
 14 19  4  0
 17 18  4  0
 17 24  4  0
 19 23  4  0
 20 24  4  0
 23 26  1  0
M  END
$$$$

 Created by Python create_sdf_string function

 26 30  0  0  0  0  0  0  0  0999 V2000
   10.0084   -1.8019   23.4945 C   0  0  0  0  0  0  0  0  0  0  0  0
   10.0005   -4.2520   16.5631 C   0  0  0  0  0  0  0  0  0  0  0  0
   10.2759   -4.0036   17.8845 C   0  0  0  0  0  0  0  0  0  0  0  0
    8.5652    1.5478   25.3778 N   0  0  0  0  0  0  0  0  0  0  0  0
    6.8048   -7.5457   17.8752 C   0  0  0  0  0  0  0  0  0  0  0  0
    6.1721   -8.2186   15.9886 N   0  0  0  0  0  0  0  0  0  0  0  0
   11.1764   -2.6600   19.5604 C   0  0  0  0  0  0  0  0  0  0  0  0
    9.5491   -0.6380   24.1912 C   0  0  0  0  0  0  0  0  0  0  0  0
    7.5337   -6.9256   16.9519 C   0  0  0  0  0  0  0  0  0  0  0  0
    9.6782    0.5671   23.5143 C   0  0  0  0  0  0  0  0  0  0  0  0
    8.4532    0.3482   26.0821 C   0  0  0  0  0  0  0  0  0  0  0  0
   10.4239   -1.7677   22.2230 N   0  0  0  0  0  0  0  0  0  0  0  0
    9.9468   -4.5953   20.1709 C   0  0  0  0  0  0  0  0  0  0  0  0
   10.0366   -3.0590   23.9864 N   0  0  0  0  0  0  0  0  0  0  0  0
    7.1191   -7.3636   15.7739 C   0  0  0  0  0  0  0  0  0  0  0  0
    5.9612   -8.3203   17.2732 N   0  0  0  0  0  0  0  0  0  0  0  0
    8.5296   -5.9814   17.1841 C   0  0  0  0  0  0  0  0  0  0  0  0
    9.1527   -5.2118   16.2116 C   0  0  0  0  0  0  0  0  0  0  0  0
   10.3364   -3.8368   22.9255 O   0  0  0  0  0  0  0  0  0  0  0  0
    9.6947   -4.8407   18.8534 C   0  0  0  0  0  0  0  0  0  0  0  0
    9.1596    1.7042   24.1381 C   0  0  0  0  0  0  0  0  0  0  0  0
   11.0456   -2.9774   18.2694 N   0  0  0  0  0  0  0  0  0  0  0  0
   10.4788   -3.0457   21.8593 C   0  0  0  0  0  0  0  0  0  0  0  0
    8.8693   -5.8099   18.4657 N   0  0  0  0  0  0  0  0  0  0  0  0
    8.9892   -0.7926   25.4573 C   0  0  0  0  0  0  0  0  0  0  0  0
   10.5677   -3.4462   20.5323 C   0  0  0  0  0  0  0  0  0  0  0  0
  1  8  1  0
  1 12  4  0
  1 14  4  0
  2  3  4  0
  2 18  4  0
  3 20  4  0
  3 22  4  0
  4 11  4  0
  4 21  4  0
  5  9  4  0
  5 16  4  0
  6 15  4  0
  6 16  4  0
  7 22  4  0
  7 26  4  0
  8 10  4  0
  8 25  4  0
  9 15  4  0
  9 17  1  0
 10 21  4  0
 11 25  4  0
 12 23  4  0
 13 20  4  0
 13 26  4  0
 14 19  4  0
 17 18  4  0
 17 24  4  0
 19 23  4  0
 20 24  4  0
 23 26  1  0
M  END
$$$$

 Created by Python create_sdf_string function

 26 30  0  0  0  0  0  0  0  0999 V2000
   10.0084   -1.8019   23.4945 C   0  0  0  0  0  0  0  0  0  0  0  0
   10.0005   -4.2520   16.5631 C   0  0  0  0  0  0  0  0  0  0  0  0
   10.2759   -4.0036   17.8845 C   0  0  0  0  0  0  0  0  0  0  0  0
    8.5652    1.5478   25.3778 N   0  0  0  0  0  0  0  0  0  0  0  0
    6.8048   -7.5457   17.8752 C   0  0  0  0  0  0  0  0  0  0  0  0
    6.1721   -8.2186   15.9886 N   0  0  0  0  0  0  0  0  0  0  0  0
   11.1764   -2.6600   19.5604 C   0  0  0  0  0  0  0  0  0  0  0  0
    9.5491   -0.6380   24.1912 C   0  0  0  0  0  0  0  0  0  0  0  0
    7.5337   -6.9256   16.9519 C   0  0  0  0  0  0  0  0  0  0  0  0
    9.6782    0.5671   23.5143 C   0  0  0  0  0  0  0  0  0  0  0  0
    8.4532    0.3482   26.0821 C   0  0  0  0  0  0  0  0  0  0  0  0
   10.4239   -1.7677   22.2230 N   0  0  0  0  0  0  0  0  0  0  0  0
    9.9468   -4.5953   20.1709 C   0  0  0  0  0  0  0  0  0  0  0  0
   10.0366   -3.0590   23.9864 N   0  0  0  0  0  0  0  0  0  0  0  0
    7.1191   -7.3636   15.7739 C   0  0  0  0  0  0  0  0  0  0  0  0
    5.9612   -8.3203   17.2732 N   0  0  0  0  0  0  0  0  0  0  0  0
    8.5296   -5.9814   17.1841 C   0  0  0  0  0  0  0  0  0  0  0  0
    9.1527   -5.2118   16.2116 C   0  0  0  0  0  0  0  0  0  0  0  0
   10.3364   -3.8368   22.9255 O   0  0  0  0  0  0  0  0  0  0  0  0
    9.6947   -4.8407   18.8534 C   0  0  0  0  0  0  0  0  0  0  0  0
    9.1596    1.7042   24.1381 C   0  0  0  0  0  0  0  0  0  0  0  0
   11.0456   -2.9774   18.2694 N   0  0  0  0  0  0  0  0  0  0  0  0
   10.4788   -3.0457   21.8593 C   0  0  0  0  0  0  0  0  0  0  0  0
    8.8693   -5.8099   18.4657 N   0  0  0  0  0  0  0  0  0  0  0  0
    8.9892   -0.7926   25.4573 C   0  0  0  0  0  0  0  0  0  0  0  0
   10.5677   -3.4462   20.5323 C   0  0  0  0  0  0  0  0  0  0  0  0
  1  8  1  0
  1 12  4  0
  1 14  4  0
  2  3  4  0
  2 18  4  0
  3 20  4  0
  3 22  4  0
  4 11  4  0
  4 21  4  0
  5  9  4  0
  5 16  4  0
  6 15  4  0
  6 16  4  0
  7 22  4  0
  7 26  4  0
  8 10  4  0
  8 25  4  0
  9 15  4  0
  9 17  1  0
 10 21  4  0
 11 25  4  0
 12 23  4  0
 13 20  4  0
 13 26  4  0
 14 19  4  0
 17 18  4  0
 17 24  4  0
 19 23  4  0
 20 24  4  0
 23 26  1  0
M  END
$$$$

 Created by Python create_sdf_string function

 26 30  0  0  0  0  0  0  0  0999 V2000
   10.0084   -1.8019   23.4945 C   0  0  0  0  0  0  0  0  0  0  0  0
   10.0005   -4.2520   16.5631 C   0  0  0  0  0  0  0  0  0  0  0  0
   10.2759   -4.0036   17.8845 C   0  0  0  0  0  0  0  0  0  0  0  0
    8.5652    1.5478   25.3778 N   0  0  0  0  0  0  0  0  0  0  0  0
    6.8048   -7.5457   17.8752 C   0  0  0  0  0  0  0  0  0  0  0  0
    6.1721   -8.2186   15.9886 N   0  0  0  0  0  0  0  0  0  0  0  0
   11.1764   -2.6600   19.5604 C   0  0  0  0  0  0  0  0  0  0  0  0
    9.5491   -0.6380   24.1912 C   0  0  0  0  0  0  0  0  0  0  0  0
    7.5337   -6.9256   16.9519 C   0  0  0  0  0  0  0  0  0  0  0  0
    9.6782    0.5671   23.5143 C   0  0  0  0  0  0  0  0  0  0  0  0
    8.4532    0.3482   26.0821 C   0  0  0  0  0  0  0  0  0  0  0  0
   10.4239   -1.7677   22.2230 N   0  0  0  0  0  0  0  0  0  0  0  0
    9.9468   -4.5953   20.1709 C   0  0  0  0  0  0  0  0  0  0  0  0
   10.0366   -3.0590   23.9864 N   0  0  0  0  0  0  0  0  0  0  0  0
    7.1191   -7.3636   15.7739 C   0  0  0  0  0  0  0  0  0  0  0  0
    5.9612   -8.3203   17.2732 N   0  0  0  0  0  0  0  0  0  0  0  0
    8.5296   -5.9814   17.1841 C   0  0  0  0  0  0  0  0  0  0  0  0
    9.1527   -5.2118   16.2116 C   0  0  0  0  0  0  0  0  0  0  0  0
   10.3364   -3.8368   22.9255 O   0  0  0  0  0  0  0  0  0  0  0  0
    9.6947   -4.8407   18.8534 C   0  0  0  0  0  0  0  0  0  0  0  0
    9.1596    1.7042   24.1381 C   0  0  0  0  0  0  0  0  0  0  0  0
   11.0456   -2.9774   18.2694 N   0  0  0  0  0  0  0  0  0  0  0  0
   10.4788   -3.0457   21.8593 C   0  0  0  0  0  0  0  0  0  0  0  0
    8.8693   -5.8099   18.4657 N   0  0  0  0  0  0  0  0  0  0  0  0
    8.9892   -0.7926   25.4573 C   0  0  0  0  0  0  0  0  0  0  0  0
   10.5677   -3.4462   20.5323 C   0  0  0  0  0  0  0  0  0  0  0  0
  1  8  1  0
  1 12  4  0
  1 14  4  0
  2  3  4  0
  2 18  4  0
  3 20  4  0
  3 22  4  0
  4 11  4  0
  4 21  4  0
  5  9  4  0
  5 16  4  0
  6 15  4  0
  6 16  4  0
  7 22  4  0
  7 26  4  0
  8 10  4  0
  8 25  4  0
  9 15  4  0
  9 17  1  0
 10 21  4  0
 11 25  4  0
 12 23  4  0
 13 20  4  0
 13 26  4  0
 14 19  4  0
 17 18  4  0
 17 24  4  0
 19 23  4  0
 20 24  4  0
 23 26  1  0
M  END
$$$$

 Created by Python create_sdf_string function

 26 30  0  0  0  0  0  0  0  0999 V2000
   10.0084   -1.8019   23.4945 C   0  0  0  0  0  0  0  0  0  0  0  0
   10.0005   -4.2520   16.5631 C   0  0  0  0  0  0  0  0  0  0  0  0
   10.2759   -4.0036   17.8845 C   0  0  0  0  0  0  0  0  0  0  0  0
    8.5652    1.5478   25.3778 N   0  0  0  0  0  0  0  0  0  0  0  0
    6.8048   -7.5457   17.8752 C   0  0  0  0  0  0  0  0  0  0  0  0
    6.1721   -8.2186   15.9886 N   0  0  0  0  0  0  0  0  0  0  0  0
   11.1764   -2.6600   19.5604 C   0  0  0  0  0  0  0  0  0  0  0  0
    9.5491   -0.6380   24.1912 C   0  0  0  0  0  0  0  0  0  0  0  0
    7.5337   -6.9256   16.9519 C   0  0  0  0  0  0  0  0  0  0  0  0
    9.6782    0.5671   23.5143 C   0  0  0  0  0  0  0  0  0  0  0  0
    8.4532    0.3482   26.0821 C   0  0  0  0  0  0  0  0  0  0  0  0
   10.4239   -1.7677   22.2230 N   0  0  0  0  0  0  0  0  0  0  0  0
    9.9468   -4.5953   20.1709 C   0  0  0  0  0  0  0  0  0  0  0  0
   10.0366   -3.0590   23.9864 N   0  0  0  0  0  0  0  0  0  0  0  0
    7.1191   -7.3636   15.7739 C   0  0  0  0  0  0  0  0  0  0  0  0
    5.9612   -8.3203   17.2732 N   0  0  0  0  0  0  0  0  0  0  0  0
    8.5296   -5.9814   17.1841 C   0  0  0  0  0  0  0  0  0  0  0  0
    9.1527   -5.2118   16.2116 C   0  0  0  0  0  0  0  0  0  0  0  0
   10.3364   -3.8368   22.9255 O   0  0  0  0  0  0  0  0  0  0  0  0
    9.6947   -4.8407   18.8534 C   0  0  0  0  0  0  0  0  0  0  0  0
    9.1596    1.7042   24.1381 C   0  0  0  0  0  0  0  0  0  0  0  0
   11.0456   -2.9774   18.2694 N   0  0  0  0  0  0  0  0  0  0  0  0
   10.4788   -3.0457   21.8593 C   0  0  0  0  0  0  0  0  0  0  0  0
    8.8693   -5.8099   18.4657 N   0  0  0  0  0  0  0  0  0  0  0  0
    8.9892   -0.7926   25.4573 C   0  0  0  0  0  0  0  0  0  0  0  0
   10.5677   -3.4462   20.5323 C   0  0  0  0  0  0  0  0  0  0  0  0
  1  8  1  0
  1 12  4  0
  1 14  4  0
  2  3  4  0
  2 18  4  0
  3 20  4  0
  3 22  4  0
  4 11  4  0
  4 21  4  0
  5  9  4  0
  5 16  4  0
  6 15  4  0
  6 16  4  0
  7 22  4  0
  7 26  4  0
  8 10  4  0
  8 25  4  0
  9 15  4  0
  9 17  1  0
 10 21  4  0
 11 25  4  0
 12 23  4  0
 13 20  4  0
 13 26  4  0
 14 19  4  0
 17 18  4  0
 17 24  4  0
 19 23  4  0
 20 24  4  0
 23 26  1  0
M  END
$$$$

 Created by Python create_sdf_string function

 26 30  0  0  0  0  0  0  0  0999 V2000
   10.0084   -1.8019   23.4945 C   0  0  0  0  0  0  0  0  0  0  0  0
   10.0005   -4.2520   16.5631 C   0  0  0  0  0  0  0  0  0  0  0  0
   10.2759   -4.0036   17.8845 C   0  0  0  0  0  0  0  0  0  0  0  0
    8.5652    1.5478   25.3778 N   0  0  0  0  0  0  0  0  0  0  0  0
    6.8048   -7.5457   17.8752 C   0  0  0  0  0  0  0  0  0  0  0  0
    6.1721   -8.2186   15.9886 N   0  0  0  0  0  0  0  0  0  0  0  0
   11.1764   -2.6600   19.5604 C   0  0  0  0  0  0  0  0  0  0  0  0
    9.5491   -0.6380   24.1912 C   0  0  0  0  0  0  0  0  0  0  0  0
    7.5337   -6.9256   16.9519 C   0  0  0  0  0  0  0  0  0  0  0  0
    9.6782    0.5671   23.5143 C   0  0  0  0  0  0  0  0  0  0  0  0
    8.4532    0.3482   26.0821 C   0  0  0  0  0  0  0  0  0  0  0  0
   10.4239   -1.7677   22.2230 N   0  0  0  0  0  0  0  0  0  0  0  0
    9.9468   -4.5953   20.1709 C   0  0  0  0  0  0  0  0  0  0  0  0
   10.0366   -3.0590   23.9864 N   0  0  0  0  0  0  0  0  0  0  0  0
    7.1191   -7.3636   15.7739 C   0  0  0  0  0  0  0  0  0  0  0  0
    5.9612   -8.3203   17.2732 N   0  0  0  0  0  0  0  0  0  0  0  0
    8.5296   -5.9814   17.1841 C   0  0  0  0  0  0  0  0  0  0  0  0
    9.1527   -5.2118   16.2116 C   0  0  0  0  0  0  0  0  0  0  0  0
   10.3364   -3.8368   22.9255 O   0  0  0  0  0  0  0  0  0  0  0  0
    9.6947   -4.8407   18.8534 C   0  0  0  0  0  0  0  0  0  0  0  0
    9.1596    1.7042   24.1381 C   0  0  0  0  0  0  0  0  0  0  0  0
   11.0456   -2.9774   18.2694 N   0  0  0  0  0  0  0  0  0  0  0  0
   10.4788   -3.0457   21.8593 C   0  0  0  0  0  0  0  0  0  0  0  0
    8.8693   -5.8099   18.4657 N   0  0  0  0  0  0  0  0  0  0  0  0
    8.9892   -0.7926   25.4573 C   0  0  0  0  0  0  0  0  0  0  0  0
   10.5677   -3.4462   20.5323 C   0  0  0  0  0  0  0  0  0  0  0  0
  1  8  1  0
  1 12  4  0
  1 14  4  0
  2  3  4  0
  2 18  4  0
  3 20  4  0
  3 22  4  0
  4 11  4  0
  4 21  4  0
  5  9  4  0
  5 16  4  0
  6 15  4  0
  6 16  4  0
  7 22  4  0
  7 26  4  0
  8 10  4  0
  8 25  4  0
  9 15  4  0
  9 17  1  0
 10 21  4  0
 11 25  4  0
 12 23  4  0
 13 20  4  0
 13 26  4  0
 14 19  4  0
 17 18  4  0
 17 24  4  0
 19 23  4  0
 20 24  4  0
 23 26  1  0
M  END
$$$$

 Created by Python create_sdf_string function

 26 30  0  0  0  0  0  0  0  0999 V2000
   10.0084   -1.8019   23.4945 C   0  0  0  0  0  0  0  0  0  0  0  0
   10.0005   -4.2520   16.5631 C   0  0  0  0  0  0  0  0  0  0  0  0
   10.2759   -4.0036   17.8845 C   0  0  0  0  0  0  0  0  0  0  0  0
    8.5652    1.5478   25.3778 N   0  0  0  0  0  0  0  0  0  0  0  0
    6.8048   -7.5457   17.8752 C   0  0  0  0  0  0  0  0  0  0  0  0
    6.1721   -8.2186   15.9886 N   0  0  0  0  0  0  0  0  0  0  0  0
   11.1764   -2.6600   19.5604 C   0  0  0  0  0  0  0  0  0  0  0  0
    9.5491   -0.6380   24.1912 C   0  0  0  0  0  0  0  0  0  0  0  0
    7.5337   -6.9256   16.9519 C   0  0  0  0  0  0  0  0  0  0  0  0
    9.6782    0.5671   23.5143 C   0  0  0  0  0  0  0  0  0  0  0  0
    8.4532    0.3482   26.0821 C   0  0  0  0  0  0  0  0  0  0  0  0
   10.4239   -1.7677   22.2230 N   0  0  0  0  0  0  0  0  0  0  0  0
    9.9468   -4.5953   20.1709 C   0  0  0  0  0  0  0  0  0  0  0  0
   10.0366   -3.0590   23.9864 N   0  0  0  0  0  0  0  0  0  0  0  0
    7.1191   -7.3636   15.7739 C   0  0  0  0  0  0  0  0  0  0  0  0
    5.9612   -8.3203   17.2732 N   0  0  0  0  0  0  0  0  0  0  0  0
    8.5296   -5.9814   17.1841 C   0  0  0  0  0  0  0  0  0  0  0  0
    9.1527   -5.2118   16.2116 C   0  0  0  0  0  0  0  0  0  0  0  0
   10.3364   -3.8368   22.9255 O   0  0  0  0  0  0  0  0  0  0  0  0
    9.6947   -4.8407   18.8534 C   0  0  0  0  0  0  0  0  0  0  0  0
    9.1596    1.7042   24.1381 C   0  0  0  0  0  0  0  0  0  0  0  0
   11.0456   -2.9774   18.2694 N   0  0  0  0  0  0  0  0  0  0  0  0
   10.4788   -3.0457   21.8593 C   0  0  0  0  0  0  0  0  0  0  0  0
    8.8693   -5.8099   18.4657 N   0  0  0  0  0  0  0  0  0  0  0  0
    8.9892   -0.7926   25.4573 C   0  0  0  0  0  0  0  0  0  0  0  0
   10.5677   -3.4462   20.5323 C   0  0  0  0  0  0  0  0  0  0  0  0
  1  8  1  0
  1 12  4  0
  1 14  4  0
  2  3  4  0
  2 18  4  0
  3 20  4  0
  3 22  4  0
  4 11  4  0
  4 21  4  0
  5  9  4  0
  5 16  4  0
  6 15  4  0
  6 16  4  0
  7 22  4  0
  7 26  4  0
  8 10  4  0
  8 25  4  0
  9 15  4  0
  9 17  1  0
 10 21  4  0
 11 25  4  0
 12 23  4  0
 13 20  4  0
 13 26  4  0
 14 19  4  0
 17 18  4  0
 17 24  4  0
 19 23  4  0
 20 24  4  0
 23 26  1  0
M  END
$$$$

 Created by Python create_sdf_string function

 26 30  0  0  0  0  0  0  0  0999 V2000
   10.0084   -1.8019   23.4945 C   0  0  0  0  0  0  0  0  0  0  0  0
   10.0005   -4.2520   16.5631 C   0  0  0  0  0  0  0  0  0  0  0  0
   10.2759   -4.0036   17.8845 C   0  0  0  0  0  0  0  0  0  0  0  0
    8.5652    1.5478   25.3778 N   0  0  0  0  0  0  0  0  0  0  0  0
    6.8048   -7.5457   17.8752 C   0  0  0  0  0  0  0  0  0  0  0  0
    6.1721   -8.2186   15.9886 N   0  0  0  0  0  0  0  0  0  0  0  0
   11.1764   -2.6600   19.5604 C   0  0  0  0  0  0  0  0  0  0  0  0
    9.5491   -0.6380   24.1912 C   0  0  0  0  0  0  0  0  0  0  0  0
    7.5337   -6.9256   16.9519 C   0  0  0  0  0  0  0  0  0  0  0  0
    9.6782    0.5671   23.5143 C   0  0  0  0  0  0  0  0  0  0  0  0
    8.4532    0.3482   26.0821 C   0  0  0  0  0  0  0  0  0  0  0  0
   10.4239   -1.7677   22.2230 N   0  0  0  0  0  0  0  0  0  0  0  0
    9.9468   -4.5953   20.1709 C   0  0  0  0  0  0  0  0  0  0  0  0
   10.0366   -3.0590   23.9864 N   0  0  0  0  0  0  0  0  0  0  0  0
    7.1191   -7.3636   15.7739 C   0  0  0  0  0  0  0  0  0  0  0  0
    5.9612   -8.3203   17.2732 N   0  0  0  0  0  0  0  0  0  0  0  0
    8.5296   -5.9814   17.1841 C   0  0  0  0  0  0  0  0  0  0  0  0
    9.1527   -5.2118   16.2116 C   0  0  0  0  0  0  0  0  0  0  0  0
   10.3364   -3.8368   22.9255 O   0  0  0  0  0  0  0  0  0  0  0  0
    9.6947   -4.8407   18.8534 C   0  0  0  0  0  0  0  0  0  0  0  0
    9.1596    1.7042   24.1381 C   0  0  0  0  0  0  0  0  0  0  0  0
   11.0456   -2.9774   18.2694 N   0  0  0  0  0  0  0  0  0  0  0  0
   10.4788   -3.0457   21.8593 C   0  0  0  0  0  0  0  0  0  0  0  0
    8.8693   -5.8099   18.4657 N   0  0  0  0  0  0  0  0  0  0  0  0
    8.9892   -0.7926   25.4573 C   0  0  0  0  0  0  0  0  0  0  0  0
   10.5677   -3.4462   20.5323 C   0  0  0  0  0  0  0  0  0  0  0  0
  1  8  1  0
  1 12  4  0
  1 14  4  0
  2  3  4  0
  2 18  4  0
  3 20  4  0
  3 22  4  0
  4 11  4  0
  4 21  4  0
  5  9  4  0
  5 16  4  0
  6 15  4  0
  6 16  4  0
  7 22  4  0
  7 26  4  0
  8 10  4  0
  8 25  4  0
  9 15  4  0
  9 17  1  0
 10 21  4  0
 11 25  4  0
 12 23  4  0
 13 20  4  0
 13 26  4  0
 14 19  4  0
 17 18  4  0
 17 24  4  0
 19 23  4  0
 20 24  4  0
 23 26  1  0
M  END
$$$$

 Created by Python create_sdf_string function

 26 30  0  0  0  0  0  0  0  0999 V2000
   10.0084   -1.8019   23.4945 C   0  0  0  0  0  0  0  0  0  0  0  0
   10.0005   -4.2520   16.5631 C   0  0  0  0  0  0  0  0  0  0  0  0
   10.2759   -4.0036   17.8845 C   0  0  0  0  0  0  0  0  0  0  0  0
    8.5652    1.5478   25.3778 N   0  0  0  0  0  0  0  0  0  0  0  0
    6.8048   -7.5457   17.8752 C   0  0  0  0  0  0  0  0  0  0  0  0
    6.1721   -8.2186   15.9886 N   0  0  0  0  0  0  0  0  0  0  0  0
   11.1764   -2.6600   19.5604 C   0  0  0  0  0  0  0  0  0  0  0  0
    9.5491   -0.6380   24.1912 C   0  0  0  0  0  0  0  0  0  0  0  0
    7.5337   -6.9256   16.9519 C   0  0  0  0  0  0  0  0  0  0  0  0
    9.6782    0.5671   23.5143 C   0  0  0  0  0  0  0  0  0  0  0  0
    8.4532    0.3482   26.0821 C   0  0  0  0  0  0  0  0  0  0  0  0
   10.4239   -1.7677   22.2230 N   0  0  0  0  0  0  0  0  0  0  0  0
    9.9468   -4.5953   20.1709 C   0  0  0  0  0  0  0  0  0  0  0  0
   10.0366   -3.0590   23.9864 N   0  0  0  0  0  0  0  0  0  0  0  0
    7.1191   -7.3636   15.7739 C   0  0  0  0  0  0  0  0  0  0  0  0
    5.9612   -8.3203   17.2732 N   0  0  0  0  0  0  0  0  0  0  0  0
    8.5296   -5.9814   17.1841 C   0  0  0  0  0  0  0  0  0  0  0  0
    9.1527   -5.2118   16.2116 C   0  0  0  0  0  0  0  0  0  0  0  0
   10.3364   -3.8368   22.9255 O   0  0  0  0  0  0  0  0  0  0  0  0
    9.6947   -4.8407   18.8534 C   0  0  0  0  0  0  0  0  0  0  0  0
    9.1596    1.7042   24.1381 C   0  0  0  0  0  0  0  0  0  0  0  0
   11.0456   -2.9774   18.2694 N   0  0  0  0  0  0  0  0  0  0  0  0
   10.4788   -3.0457   21.8593 C   0  0  0  0  0  0  0  0  0  0  0  0
    8.8693   -5.8099   18.4657 N   0  0  0  0  0  0  0  0  0  0  0  0
    8.9892   -0.7926   25.4573 C   0  0  0  0  0  0  0  0  0  0  0  0
   10.5677   -3.4462   20.5323 C   0  0  0  0  0  0  0  0  0  0  0  0
  1  8  1  0
  1 12  4  0
  1 14  4  0
  2  3  4  0
  2 18  4  0
  3 20  4  0
  3 22  4  0
  4 11  4  0
  4 21  4  0
  5  9  4  0
  5 16  4  0
  6 15  4  0
  6 16  4  0
  7 22  4  0
  7 26  4  0
  8 10  4  0
  8 25  4  0
  9 15  4  0
  9 17  1  0
 10 21  4  0
 11 25  4  0
 12 23  4  0
 13 20  4  0
 13 26  4  0
 14 19  4  0
 17 18  4  0
 17 24  4  0
 19 23  4  0
 20 24  4  0
 23 26  1  0
M  END
$$$$

 Created by Python create_sdf_string function

 26 30  0  0  0  0  0  0  0  0999 V2000
   10.0084   -1.8019   23.4945 C   0  0  0  0  0  0  0  0  0  0  0  0
   10.0005   -4.2520   16.5631 C   0  0  0  0  0  0  0  0  0  0  0  0
   10.2759   -4.0036   17.8845 C   0  0  0  0  0  0  0  0  0  0  0  0
    8.5652    1.5478   25.3778 N   0  0  0  0  0  0  0  0  0  0  0  0
    6.8048   -7.5457   17.8752 C   0  0  0  0  0  0  0  0  0  0  0  0
    6.1721   -8.2186   15.9886 N   0  0  0  0  0  0  0  0  0  0  0  0
   11.1764   -2.6600   19.5604 C   0  0  0  0  0  0  0  0  0  0  0  0
    9.5491   -0.6380   24.1912 C   0  0  0  0  0  0  0  0  0  0  0  0
    7.5337   -6.9256   16.9519 C   0  0  0  0  0  0  0  0  0  0  0  0
    9.6782    0.5671   23.5143 C   0  0  0  0  0  0  0  0  0  0  0  0
    8.4532    0.3482   26.0821 C   0  0  0  0  0  0  0  0  0  0  0  0
   10.4239   -1.7677   22.2230 N   0  0  0  0  0  0  0  0  0  0  0  0
    9.9468   -4.5953   20.1709 C   0  0  0  0  0  0  0  0  0  0  0  0
   10.0366   -3.0590   23.9864 N   0  0  0  0  0  0  0  0  0  0  0  0
    7.1191   -7.3636   15.7739 C   0  0  0  0  0  0  0  0  0  0  0  0
    5.9612   -8.3203   17.2732 N   0  0  0  0  0  0  0  0  0  0  0  0
    8.5296   -5.9814   17.1841 C   0  0  0  0  0  0  0  0  0  0  0  0
    9.1527   -5.2118   16.2116 C   0  0  0  0  0  0  0  0  0  0  0  0
   10.3364   -3.8368   22.9255 O   0  0  0  0  0  0  0  0  0  0  0  0
    9.6947   -4.8407   18.8534 C   0  0  0  0  0  0  0  0  0  0  0  0
    9.1596    1.7042   24.1381 C   0  0  0  0  0  0  0  0  0  0  0  0
   11.0456   -2.9774   18.2694 N   0  0  0  0  0  0  0  0  0  0  0  0
   10.4788   -3.0457   21.8593 C   0  0  0  0  0  0  0  0  0  0  0  0
    8.8693   -5.8099   18.4657 N   0  0  0  0  0  0  0  0  0  0  0  0
    8.9892   -0.7926   25.4573 C   0  0  0  0  0  0  0  0  0  0  0  0
   10.5677   -3.4462   20.5323 C   0  0  0  0  0  0  0  0  0  0  0  0
  1  8  1  0
  1 12  4  0
  1 14  4  0
  2  3  4  0
  2 18  4  0
  3 20  4  0
  3 22  4  0
  4 11  4  0
  4 21  4  0
  5  9  4  0
  5 16  4  0
  6 15  4  0
  6 16  4  0
  7 22  4  0
  7 26  4  0
  8 10  4  0
  8 25  4  0
  9 15  4  0
  9 17  1  0
 10 21  4  0
 11 25  4  0
 12 23  4  0
 13 20  4  0
 13 26  4  0
 14 19  4  0
 17 18  4  0
 17 24  4  0
 19 23  4  0
 20 24  4  0
 23 26  1  0
M  END
$$$$

 Created by Python create_sdf_string function

 26 30  0  0  0  0  0  0  0  0999 V2000
   10.0084   -1.8019   23.4945 C   0  0  0  0  0  0  0  0  0  0  0  0
   10.0005   -4.2520   16.5631 C   0  0  0  0  0  0  0  0  0  0  0  0
   10.2759   -4.0036   17.8845 C   0  0  0  0  0  0  0  0  0  0  0  0
    8.5652    1.5478   25.3778 N   0  0  0  0  0  0  0  0  0  0  0  0
    6.8048   -7.5457   17.8752 C   0  0  0  0  0  0  0  0  0  0  0  0
    6.1721   -8.2186   15.9886 N   0  0  0  0  0  0  0  0  0  0  0  0
   11.1764   -2.6600   19.5604 C   0  0  0  0  0  0  0  0  0  0  0  0
    9.5491   -0.6380   24.1912 C   0  0  0  0  0  0  0  0  0  0  0  0
    7.5337   -6.9256   16.9519 C   0  0  0  0  0  0  0  0  0  0  0  0
    9.6782    0.5671   23.5143 C   0  0  0  0  0  0  0  0  0  0  0  0
    8.4532    0.3482   26.0821 C   0  0  0  0  0  0  0  0  0  0  0  0
   10.4239   -1.7677   22.2230 N   0  0  0  0  0  0  0  0  0  0  0  0
    9.9468   -4.5953   20.1709 C   0  0  0  0  0  0  0  0  0  0  0  0
   10.0366   -3.0590   23.9864 N   0  0  0  0  0  0  0  0  0  0  0  0
    7.1191   -7.3636   15.7739 C   0  0  0  0  0  0  0  0  0  0  0  0
    5.9612   -8.3203   17.2732 N   0  0  0  0  0  0  0  0  0  0  0  0
    8.5296   -5.9814   17.1841 C   0  0  0  0  0  0  0  0  0  0  0  0
    9.1527   -5.2118   16.2116 C   0  0  0  0  0  0  0  0  0  0  0  0
   10.3364   -3.8368   22.9255 O   0  0  0  0  0  0  0  0  0  0  0  0
    9.6947   -4.8407   18.8534 C   0  0  0  0  0  0  0  0  0  0  0  0
    9.1596    1.7042   24.1381 C   0  0  0  0  0  0  0  0  0  0  0  0
   11.0456   -2.9774   18.2694 N   0  0  0  0  0  0  0  0  0  0  0  0
   10.4788   -3.0457   21.8593 C   0  0  0  0  0  0  0  0  0  0  0  0
    8.8693   -5.8099   18.4657 N   0  0  0  0  0  0  0  0  0  0  0  0
    8.9892   -0.7926   25.4573 C   0  0  0  0  0  0  0  0  0  0  0  0
   10.5677   -3.4462   20.5323 C   0  0  0  0  0  0  0  0  0  0  0  0
  1  8  1  0
  1 12  4  0
  1 14  4  0
  2  3  4  0
  2 18  4  0
  3 20  4  0
  3 22  4  0
  4 11  4  0
  4 21  4  0
  5  9  4  0
  5 16  4  0
  6 15  4  0
  6 16  4  0
  7 22  4  0
  7 26  4  0
  8 10  4  0
  8 25  4  0
  9 15  4  0
  9 17  1  0
 10 21  4  0
 11 25  4  0
 12 23  4  0
 13 20  4  0
 13 26  4  0
 14 19  4  0
 17 18  4  0
 17 24  4  0
 19 23  4  0
 20 24  4  0
 23 26  1  0
M  END
$$$$

 Created by Python create_sdf_string function

 26 30  0  0  0  0  0  0  0  0999 V2000
   10.0084   -1.8019   23.4945 C   0  0  0  0  0  0  0  0  0  0  0  0
   10.0005   -4.2520   16.5631 C   0  0  0  0  0  0  0  0  0  0  0  0
   10.2759   -4.0036   17.8845 C   0  0  0  0  0  0  0  0  0  0  0  0
    8.5652    1.5478   25.3778 N   0  0  0  0  0  0  0  0  0  0  0  0
    6.8048   -7.5457   17.8752 C   0  0  0  0  0  0  0  0  0  0  0  0
    6.1721   -8.2186   15.9886 N   0  0  0  0  0  0  0  0  0  0  0  0
   11.1764   -2.6600   19.5604 C   0  0  0  0  0  0  0  0  0  0  0  0
    9.5491   -0.6380   24.1912 C   0  0  0  0  0  0  0  0  0  0  0  0
    7.5337   -6.9256   16.9519 C   0  0  0  0  0  0  0  0  0  0  0  0
    9.6782    0.5671   23.5143 C   0  0  0  0  0  0  0  0  0  0  0  0
    8.4532    0.3482   26.0821 C   0  0  0  0  0  0  0  0  0  0  0  0
   10.4239   -1.7677   22.2230 N   0  0  0  0  0  0  0  0  0  0  0  0
    9.9468   -4.5953   20.1709 C   0  0  0  0  0  0  0  0  0  0  0  0
   10.0366   -3.0590   23.9864 N   0  0  0  0  0  0  0  0  0  0  0  0
    7.1191   -7.3636   15.7739 C   0  0  0  0  0  0  0  0  0  0  0  0
    5.9612   -8.3203   17.2732 N   0  0  0  0  0  0  0  0  0  0  0  0
    8.5296   -5.9814   17.1841 C   0  0  0  0  0  0  0  0  0  0  0  0
    9.1527   -5.2118   16.2116 C   0  0  0  0  0  0  0  0  0  0  0  0
   10.3364   -3.8368   22.9255 O   0  0  0  0  0  0  0  0  0  0  0  0
    9.6947   -4.8407   18.8534 C   0  0  0  0  0  0  0  0  0  0  0  0
    9.1596    1.7042   24.1381 C   0  0  0  0  0  0  0  0  0  0  0  0
   11.0456   -2.9774   18.2694 N   0  0  0  0  0  0  0  0  0  0  0  0
   10.4788   -3.0457   21.8593 C   0  0  0  0  0  0  0  0  0  0  0  0
    8.8693   -5.8099   18.4657 N   0  0  0  0  0  0  0  0  0  0  0  0
    8.9892   -0.7926   25.4573 C   0  0  0  0  0  0  0  0  0  0  0  0
   10.5677   -3.4462   20.5323 C   0  0  0  0  0  0  0  0  0  0  0  0
  1  8  1  0
  1 12  4  0
  1 14  4  0
  2  3  4  0
  2 18  4  0
  3 20  4  0
  3 22  4  0
  4 11  4  0
  4 21  4  0
  5  9  4  0
  5 16  4  0
  6 15  4  0
  6 16  4  0
  7 22  4  0
  7 26  4  0
  8 10  4  0
  8 25  4  0
  9 15  4  0
  9 17  1  0
 10 21  4  0
 11 25  4  0
 12 23  4  0
 13 20  4  0
 13 26  4  0
 14 19  4  0
 17 18  4  0
 17 24  4  0
 19 23  4  0
 20 24  4  0
 23 26  1  0
M  END
$$$$

 Created by Python create_sdf_string function

 26 30  0  0  0  0  0  0  0  0999 V2000
   10.0084   -1.8019   23.4945 C   0  0  0  0  0  0  0  0  0  0  0  0
   10.0005   -4.2520   16.5631 C   0  0  0  0  0  0  0  0  0  0  0  0
   10.2759   -4.0036   17.8845 C   0  0  0  0  0  0  0  0  0  0  0  0
    8.5652    1.5478   25.3778 N   0  0  0  0  0  0  0  0  0  0  0  0
    6.8048   -7.5457   17.8752 C   0  0  0  0  0  0  0  0  0  0  0  0
    6.1721   -8.2186   15.9886 N   0  0  0  0  0  0  0  0  0  0  0  0
   11.1764   -2.6600   19.5604 C   0  0  0  0  0  0  0  0  0  0  0  0
    9.5491   -0.6380   24.1912 C   0  0  0  0  0  0  0  0  0  0  0  0
    7.5337   -6.9256   16.9519 C   0  0  0  0  0  0  0  0  0  0  0  0
    9.6782    0.5671   23.5143 C   0  0  0  0  0  0  0  0  0  0  0  0
    8.4532    0.3482   26.0821 C   0  0  0  0  0  0  0  0  0  0  0  0
   10.4239   -1.7677   22.2230 N   0  0  0  0  0  0  0  0  0  0  0  0
    9.9468   -4.5953   20.1709 C   0  0  0  0  0  0  0  0  0  0  0  0
   10.0366   -3.0590   23.9864 N   0  0  0  0  0  0  0  0  0  0  0  0
    7.1191   -7.3636   15.7739 C   0  0  0  0  0  0  0  0  0  0  0  0
    5.9612   -8.3203   17.2732 N   0  0  0  0  0  0  0  0  0  0  0  0
    8.5296   -5.9814   17.1841 C   0  0  0  0  0  0  0  0  0  0  0  0
    9.1527   -5.2118   16.2116 C   0  0  0  0  0  0  0  0  0  0  0  0
   10.3364   -3.8368   22.9255 O   0  0  0  0  0  0  0  0  0  0  0  0
    9.6947   -4.8407   18.8534 C   0  0  0  0  0  0  0  0  0  0  0  0
    9.1596    1.7042   24.1381 C   0  0  0  0  0  0  0  0  0  0  0  0
   11.0456   -2.9774   18.2694 N   0  0  0  0  0  0  0  0  0  0  0  0
   10.4788   -3.0457   21.8593 C   0  0  0  0  0  0  0  0  0  0  0  0
    8.8693   -5.8099   18.4657 N   0  0  0  0  0  0  0  0  0  0  0  0
    8.9892   -0.7926   25.4573 C   0  0  0  0  0  0  0  0  0  0  0  0
   10.5677   -3.4462   20.5323 C   0  0  0  0  0  0  0  0  0  0  0  0
  1  8  1  0
  1 12  4  0
  1 14  4  0
  2  3  4  0
  2 18  4  0
  3 20  4  0
  3 22  4  0
  4 11  4  0
  4 21  4  0
  5  9  4  0
  5 16  4  0
  6 15  4  0
  6 16  4  0
  7 22  4  0
  7 26  4  0
  8 10  4  0
  8 25  4  0
  9 15  4  0
  9 17  1  0
 10 21  4  0
 11 25  4  0
 12 23  4  0
 13 20  4  0
 13 26  4  0
 14 19  4  0
 17 18  4  0
 17 24  4  0
 19 23  4  0
 20 24  4  0
 23 26  1  0
M  END
$$$$

 Created by Python create_sdf_string function

 26 30  0  0  0  0  0  0  0  0999 V2000
   10.0084   -1.8019   23.4945 C   0  0  0  0  0  0  0  0  0  0  0  0
   10.0005   -4.2520   16.5631 C   0  0  0  0  0  0  0  0  0  0  0  0
   10.2759   -4.0036   17.8845 C   0  0  0  0  0  0  0  0  0  0  0  0
    8.5652    1.5478   25.3778 N   0  0  0  0  0  0  0  0  0  0  0  0
    6.8048   -7.5457   17.8752 C   0  0  0  0  0  0  0  0  0  0  0  0
    6.1721   -8.2186   15.9886 N   0  0  0  0  0  0  0  0  0  0  0  0
   11.1764   -2.6600   19.5604 C   0  0  0  0  0  0  0  0  0  0  0  0
    9.5491   -0.6380   24.1912 C   0  0  0  0  0  0  0  0  0  0  0  0
    7.5337   -6.9256   16.9519 C   0  0  0  0  0  0  0  0  0  0  0  0
    9.6782    0.5671   23.5143 C   0  0  0  0  0  0  0  0  0  0  0  0
    8.4532    0.3482   26.0821 C   0  0  0  0  0  0  0  0  0  0  0  0
   10.4239   -1.7677   22.2230 N   0  0  0  0  0  0  0  0  0  0  0  0
    9.9468   -4.5953   20.1709 C   0  0  0  0  0  0  0  0  0  0  0  0
   10.0366   -3.0590   23.9864 N   0  0  0  0  0  0  0  0  0  0  0  0
    7.1191   -7.3636   15.7739 C   0  0  0  0  0  0  0  0  0  0  0  0
    5.9612   -8.3203   17.2732 N   0  0  0  0  0  0  0  0  0  0  0  0
    8.5296   -5.9814   17.1841 C   0  0  0  0  0  0  0  0  0  0  0  0
    9.1527   -5.2118   16.2116 C   0  0  0  0  0  0  0  0  0  0  0  0
   10.3364   -3.8368   22.9255 O   0  0  0  0  0  0  0  0  0  0  0  0
    9.6947   -4.8407   18.8534 C   0  0  0  0  0  0  0  0  0  0  0  0
    9.1596    1.7042   24.1381 C   0  0  0  0  0  0  0  0  0  0  0  0
   11.0456   -2.9774   18.2694 N   0  0  0  0  0  0  0  0  0  0  0  0
   10.4788   -3.0457   21.8593 C   0  0  0  0  0  0  0  0  0  0  0  0
    8.8693   -5.8099   18.4657 N   0  0  0  0  0  0  0  0  0  0  0  0
    8.9892   -0.7926   25.4573 C   0  0  0  0  0  0  0  0  0  0  0  0
   10.5677   -3.4462   20.5323 C   0  0  0  0  0  0  0  0  0  0  0  0
  1  8  1  0
  1 12  4  0
  1 14  4  0
  2  3  4  0
  2 18  4  0
  3 20  4  0
  3 22  4  0
  4 11  4  0
  4 21  4  0
  5  9  4  0
  5 16  4  0
  6 15  4  0
  6 16  4  0
  7 22  4  0
  7 26  4  0
  8 10  4  0
  8 25  4  0
  9 15  4  0
  9 17  1  0
 10 21  4  0
 11 25  4  0
 12 23  4  0
 13 20  4  0
 13 26  4  0
 14 19  4  0
 17 18  4  0
 17 24  4  0
 19 23  4  0
 20 24  4  0
 23 26  1  0
M  END
$$$$

 Created by Python create_sdf_string function

 26 30  0  0  0  0  0  0  0  0999 V2000
   10.0084   -1.8019   23.4945 C   0  0  0  0  0  0  0  0  0  0  0  0
   10.0005   -4.2520   16.5631 C   0  0  0  0  0  0  0  0  0  0  0  0
   10.2759   -4.0036   17.8845 C   0  0  0  0  0  0  0  0  0  0  0  0
    8.5652    1.5478   25.3778 N   0  0  0  0  0  0  0  0  0  0  0  0
    6.8048   -7.5457   17.8752 C   0  0  0  0  0  0  0  0  0  0  0  0
    6.1721   -8.2186   15.9886 N   0  0  0  0  0  0  0  0  0  0  0  0
   11.1764   -2.6600   19.5604 C   0  0  0  0  0  0  0  0  0  0  0  0
    9.5491   -0.6380   24.1912 C   0  0  0  0  0  0  0  0  0  0  0  0
    7.5337   -6.9256   16.9519 C   0  0  0  0  0  0  0  0  0  0  0  0
    9.6782    0.5671   23.5143 C   0  0  0  0  0  0  0  0  0  0  0  0
    8.4532    0.3482   26.0821 C   0  0  0  0  0  0  0  0  0  0  0  0
   10.4239   -1.7677   22.2230 N   0  0  0  0  0  0  0  0  0  0  0  0
    9.9468   -4.5953   20.1709 C   0  0  0  0  0  0  0  0  0  0  0  0
   10.0366   -3.0590   23.9864 N   0  0  0  0  0  0  0  0  0  0  0  0
    7.1191   -7.3636   15.7739 C   0  0  0  0  0  0  0  0  0  0  0  0
    5.9612   -8.3203   17.2732 N   0  0  0  0  0  0  0  0  0  0  0  0
    8.5296   -5.9814   17.1841 C   0  0  0  0  0  0  0  0  0  0  0  0
    9.1527   -5.2118   16.2116 C   0  0  0  0  0  0  0  0  0  0  0  0
   10.3364   -3.8368   22.9255 O   0  0  0  0  0  0  0  0  0  0  0  0
    9.6947   -4.8407   18.8534 C   0  0  0  0  0  0  0  0  0  0  0  0
    9.1596    1.7042   24.1381 C   0  0  0  0  0  0  0  0  0  0  0  0
   11.0456   -2.9774   18.2694 N   0  0  0  0  0  0  0  0  0  0  0  0
   10.4788   -3.0457   21.8593 C   0  0  0  0  0  0  0  0  0  0  0  0
    8.8693   -5.8099   18.4657 N   0  0  0  0  0  0  0  0  0  0  0  0
    8.9892   -0.7926   25.4573 C   0  0  0  0  0  0  0  0  0  0  0  0
   10.5677   -3.4462   20.5323 C   0  0  0  0  0  0  0  0  0  0  0  0
  1  8  1  0
  1 12  4  0
  1 14  4  0
  2  3  4  0
  2 18  4  0
  3 20  4  0
  3 22  4  0
  4 11  4  0
  4 21  4  0
  5  9  4  0
  5 16  4  0
  6 15  4  0
  6 16  4  0
  7 22  4  0
  7 26  4  0
  8 10  4  0
  8 25  4  0
  9 15  4  0
  9 17  1  0
 10 21  4  0
 11 25  4  0
 12 23  4  0
 13 20  4  0
 13 26  4  0
 14 19  4  0
 17 18  4  0
 17 24  4  0
 19 23  4  0
 20 24  4  0
 23 26  1  0
M  END
$$$$

 Created by Python create_sdf_string function

 26 30  0  0  0  0  0  0  0  0999 V2000
   10.0084   -1.8019   23.4945 C   0  0  0  0  0  0  0  0  0  0  0  0
   10.0005   -4.2520   16.5631 C   0  0  0  0  0  0  0  0  0  0  0  0
   10.2759   -4.0036   17.8845 C   0  0  0  0  0  0  0  0  0  0  0  0
    8.5652    1.5478   25.3778 N   0  0  0  0  0  0  0  0  0  0  0  0
    6.8048   -7.5457   17.8752 C   0  0  0  0  0  0  0  0  0  0  0  0
    6.1721   -8.2186   15.9886 N   0  0  0  0  0  0  0  0  0  0  0  0
   11.1764   -2.6600   19.5604 C   0  0  0  0  0  0  0  0  0  0  0  0
    9.5491   -0.6380   24.1912 C   0  0  0  0  0  0  0  0  0  0  0  0
    7.5337   -6.9256   16.9519 C   0  0  0  0  0  0  0  0  0  0  0  0
    9.6782    0.5671   23.5143 C   0  0  0  0  0  0  0  0  0  0  0  0
    8.4532    0.3482   26.0821 C   0  0  0  0  0  0  0  0  0  0  0  0
   10.4239   -1.7677   22.2230 N   0  0  0  0  0  0  0  0  0  0  0  0
    9.9468   -4.5953   20.1709 C   0  0  0  0  0  0  0  0  0  0  0  0
   10.0366   -3.0590   23.9864 N   0  0  0  0  0  0  0  0  0  0  0  0
    7.1191   -7.3636   15.7739 C   0  0  0  0  0  0  0  0  0  0  0  0
    5.9612   -8.3203   17.2732 N   0  0  0  0  0  0  0  0  0  0  0  0
    8.5296   -5.9814   17.1841 C   0  0  0  0  0  0  0  0  0  0  0  0
    9.1527   -5.2118   16.2116 C   0  0  0  0  0  0  0  0  0  0  0  0
   10.3364   -3.8368   22.9255 O   0  0  0  0  0  0  0  0  0  0  0  0
    9.6947   -4.8407   18.8534 C   0  0  0  0  0  0  0  0  0  0  0  0
    9.1596    1.7042   24.1381 C   0  0  0  0  0  0  0  0  0  0  0  0
   11.0456   -2.9774   18.2694 N   0  0  0  0  0  0  0  0  0  0  0  0
   10.4788   -3.0457   21.8593 C   0  0  0  0  0  0  0  0  0  0  0  0
    8.8693   -5.8099   18.4657 N   0  0  0  0  0  0  0  0  0  0  0  0
    8.9892   -0.7926   25.4573 C   0  0  0  0  0  0  0  0  0  0  0  0
   10.5677   -3.4462   20.5323 C   0  0  0  0  0  0  0  0  0  0  0  0
  1  8  1  0
  1 12  4  0
  1 14  4  0
  2  3  4  0
  2 18  4  0
  3 20  4  0
  3 22  4  0
  4 11  4  0
  4 21  4  0
  5  9  4  0
  5 16  4  0
  6 15  4  0
  6 16  4  0
  7 22  4  0
  7 26  4  0
  8 10  4  0
  8 25  4  0
  9 15  4  0
  9 17  1  0
 10 21  4  0
 11 25  4  0
 12 23  4  0
 13 20  4  0
 13 26  4  0
 14 19  4  0
 17 18  4  0
 17 24  4  0
 19 23  4  0
 20 24  4  0
 23 26  1  0
M  END
$$$$

 Created by Python create_sdf_string function

 26 30  0  0  0  0  0  0  0  0999 V2000
   10.0084   -1.8019   23.4945 C   0  0  0  0  0  0  0  0  0  0  0  0
   10.0005   -4.2520   16.5631 C   0  0  0  0  0  0  0  0  0  0  0  0
   10.2759   -4.0036   17.8845 C   0  0  0  0  0  0  0  0  0  0  0  0
    8.5652    1.5478   25.3778 N   0  0  0  0  0  0  0  0  0  0  0  0
    6.8048   -7.5457   17.8752 C   0  0  0  0  0  0  0  0  0  0  0  0
    6.1721   -8.2186   15.9886 N   0  0  0  0  0  0  0  0  0  0  0  0
   11.1764   -2.6600   19.5604 C   0  0  0  0  0  0  0  0  0  0  0  0
    9.5491   -0.6380   24.1912 C   0  0  0  0  0  0  0  0  0  0  0  0
    7.5337   -6.9256   16.9519 C   0  0  0  0  0  0  0  0  0  0  0  0
    9.6782    0.5671   23.5143 C   0  0  0  0  0  0  0  0  0  0  0  0
    8.4532    0.3482   26.0821 C   0  0  0  0  0  0  0  0  0  0  0  0
   10.4239   -1.7677   22.2230 N   0  0  0  0  0  0  0  0  0  0  0  0
    9.9468   -4.5953   20.1709 C   0  0  0  0  0  0  0  0  0  0  0  0
   10.0366   -3.0590   23.9864 N   0  0  0  0  0  0  0  0  0  0  0  0
    7.1191   -7.3636   15.7739 C   0  0  0  0  0  0  0  0  0  0  0  0
    5.9612   -8.3203   17.2732 N   0  0  0  0  0  0  0  0  0  0  0  0
    8.5296   -5.9814   17.1841 C   0  0  0  0  0  0  0  0  0  0  0  0
    9.1527   -5.2118   16.2116 C   0  0  0  0  0  0  0  0  0  0  0  0
   10.3364   -3.8368   22.9255 O   0  0  0  0  0  0  0  0  0  0  0  0
    9.6947   -4.8407   18.8534 C   0  0  0  0  0  0  0  0  0  0  0  0
    9.1596    1.7042   24.1381 C   0  0  0  0  0  0  0  0  0  0  0  0
   11.0456   -2.9774   18.2694 N   0  0  0  0  0  0  0  0  0  0  0  0
   10.4788   -3.0457   21.8593 C   0  0  0  0  0  0  0  0  0  0  0  0
    8.8693   -5.8099   18.4657 N   0  0  0  0  0  0  0  0  0  0  0  0
    8.9892   -0.7926   25.4573 C   0  0  0  0  0  0  0  0  0  0  0  0
   10.5677   -3.4462   20.5323 C   0  0  0  0  0  0  0  0  0  0  0  0
  1  8  1  0
  1 12  4  0
  1 14  4  0
  2  3  4  0
  2 18  4  0
  3 20  4  0
  3 22  4  0
  4 11  4  0
  4 21  4  0
  5  9  4  0
  5 16  4  0
  6 15  4  0
  6 16  4  0
  7 22  4  0
  7 26  4  0
  8 10  4  0
  8 25  4  0
  9 15  4  0
  9 17  1  0
 10 21  4  0
 11 25  4  0
 12 23  4  0
 13 20  4  0
 13 26  4  0
 14 19  4  0
 17 18  4  0
 17 24  4  0
 19 23  4  0
 20 24  4  0
 23 26  1  0
M  END
$$$$

 Created by Python create_sdf_string function

 26 30  0  0  0  0  0  0  0  0999 V2000
   10.0084   -1.8019   23.4945 C   0  0  0  0  0  0  0  0  0  0  0  0
   10.0005   -4.2520   16.5631 C   0  0  0  0  0  0  0  0  0  0  0  0
   10.2759   -4.0036   17.8845 C   0  0  0  0  0  0  0  0  0  0  0  0
    8.5652    1.5478   25.3778 N   0  0  0  0  0  0  0  0  0  0  0  0
    6.8048   -7.5457   17.8752 C   0  0  0  0  0  0  0  0  0  0  0  0
    6.1721   -8.2186   15.9886 N   0  0  0  0  0  0  0  0  0  0  0  0
   11.1764   -2.6600   19.5604 C   0  0  0  0  0  0  0  0  0  0  0  0
    9.5491   -0.6380   24.1912 C   0  0  0  0  0  0  0  0  0  0  0  0
    7.5337   -6.9256   16.9519 C   0  0  0  0  0  0  0  0  0  0  0  0
    9.6782    0.5671   23.5143 C   0  0  0  0  0  0  0  0  0  0  0  0
    8.4532    0.3482   26.0821 C   0  0  0  0  0  0  0  0  0  0  0  0
   10.4239   -1.7677   22.2230 N   0  0  0  0  0  0  0  0  0  0  0  0
    9.9468   -4.5953   20.1709 C   0  0  0  0  0  0  0  0  0  0  0  0
   10.0366   -3.0590   23.9864 N   0  0  0  0  0  0  0  0  0  0  0  0
    7.1191   -7.3636   15.7739 C   0  0  0  0  0  0  0  0  0  0  0  0
    5.9612   -8.3203   17.2732 N   0  0  0  0  0  0  0  0  0  0  0  0
    8.5296   -5.9814   17.1841 C   0  0  0  0  0  0  0  0  0  0  0  0
    9.1527   -5.2118   16.2116 C   0  0  0  0  0  0  0  0  0  0  0  0
   10.3364   -3.8368   22.9255 O   0  0  0  0  0  0  0  0  0  0  0  0
    9.6947   -4.8407   18.8534 C   0  0  0  0  0  0  0  0  0  0  0  0
    9.1596    1.7042   24.1381 C   0  0  0  0  0  0  0  0  0  0  0  0
   11.0456   -2.9774   18.2694 N   0  0  0  0  0  0  0  0  0  0  0  0
   10.4788   -3.0457   21.8593 C   0  0  0  0  0  0  0  0  0  0  0  0
    8.8693   -5.8099   18.4657 N   0  0  0  0  0  0  0  0  0  0  0  0
    8.9892   -0.7926   25.4573 C   0  0  0  0  0  0  0  0  0  0  0  0
   10.5677   -3.4462   20.5323 C   0  0  0  0  0  0  0  0  0  0  0  0
  1  8  1  0
  1 12  4  0
  1 14  4  0
  2  3  4  0
  2 18  4  0
  3 20  4  0
  3 22  4  0
  4 11  4  0
  4 21  4  0
  5  9  4  0
  5 16  4  0
  6 15  4  0
  6 16  4  0
  7 22  4  0
  7 26  4  0
  8 10  4  0
  8 25  4  0
  9 15  4  0
  9 17  1  0
 10 21  4  0
 11 25  4  0
 12 23  4  0
 13 20  4  0
 13 26  4  0
 14 19  4  0
 17 18  4  0
 17 24  4  0
 19 23  4  0
 20 24  4  0
 23 26  1  0
M  END
$$$$

 Created by Python create_sdf_string function

 26 30  0  0  0  0  0  0  0  0999 V2000
   10.0084   -1.8019   23.4945 C   0  0  0  0  0  0  0  0  0  0  0  0
   10.0005   -4.2520   16.5631 C   0  0  0  0  0  0  0  0  0  0  0  0
   10.2759   -4.0036   17.8845 C   0  0  0  0  0  0  0  0  0  0  0  0
    8.5652    1.5478   25.3778 N   0  0  0  0  0  0  0  0  0  0  0  0
    6.8048   -7.5457   17.8752 C   0  0  0  0  0  0  0  0  0  0  0  0
    6.1721   -8.2186   15.9886 N   0  0  0  0  0  0  0  0  0  0  0  0
   11.1764   -2.6600   19.5604 C   0  0  0  0  0  0  0  0  0  0  0  0
    9.5491   -0.6380   24.1912 C   0  0  0  0  0  0  0  0  0  0  0  0
    7.5337   -6.9256   16.9519 C   0  0  0  0  0  0  0  0  0  0  0  0
    9.6782    0.5671   23.5143 C   0  0  0  0  0  0  0  0  0  0  0  0
    8.4532    0.3482   26.0821 C   0  0  0  0  0  0  0  0  0  0  0  0
   10.4239   -1.7677   22.2230 N   0  0  0  0  0  0  0  0  0  0  0  0
    9.9468   -4.5953   20.1709 C   0  0  0  0  0  0  0  0  0  0  0  0
   10.0366   -3.0590   23.9864 N   0  0  0  0  0  0  0  0  0  0  0  0
    7.1191   -7.3636   15.7739 C   0  0  0  0  0  0  0  0  0  0  0  0
    5.9612   -8.3203   17.2732 N   0  0  0  0  0  0  0  0  0  0  0  0
    8.5296   -5.9814   17.1841 C   0  0  0  0  0  0  0  0  0  0  0  0
    9.1527   -5.2118   16.2116 C   0  0  0  0  0  0  0  0  0  0  0  0
   10.3364   -3.8368   22.9255 O   0  0  0  0  0  0  0  0  0  0  0  0
    9.6947   -4.8407   18.8534 C   0  0  0  0  0  0  0  0  0  0  0  0
    9.1596    1.7042   24.1381 C   0  0  0  0  0  0  0  0  0  0  0  0
   11.0456   -2.9774   18.2694 N   0  0  0  0  0  0  0  0  0  0  0  0
   10.4788   -3.0457   21.8593 C   0  0  0  0  0  0  0  0  0  0  0  0
    8.8693   -5.8099   18.4657 N   0  0  0  0  0  0  0  0  0  0  0  0
    8.9892   -0.7926   25.4573 C   0  0  0  0  0  0  0  0  0  0  0  0
   10.5677   -3.4462   20.5323 C   0  0  0  0  0  0  0  0  0  0  0  0
  1  8  1  0
  1 12  4  0
  1 14  4  0
  2  3  4  0
  2 18  4  0
  3 20  4  0
  3 22  4  0
  4 11  4  0
  4 21  4  0
  5  9  4  0
  5 16  4  0
  6 15  4  0
  6 16  4  0
  7 22  4  0
  7 26  4  0
  8 10  4  0
  8 25  4  0
  9 15  4  0
  9 17  1  0
 10 21  4  0
 11 25  4  0
 12 23  4  0
 13 20  4  0
 13 26  4  0
 14 19  4  0
 17 18  4  0
 17 24  4  0
 19 23  4  0
 20 24  4  0
 23 26  1  0
M  END
$$$$

 Created by Python create_sdf_string function

 26 30  0  0  0  0  0  0  0  0999 V2000
   10.0084   -1.8019   23.4945 C   0  0  0  0  0  0  0  0  0  0  0  0
   10.0005   -4.2520   16.5631 C   0  0  0  0  0  0  0  0  0  0  0  0
   10.2759   -4.0036   17.8845 C   0  0  0  0  0  0  0  0  0  0  0  0
    8.5652    1.5478   25.3778 N   0  0  0  0  0  0  0  0  0  0  0  0
    6.8048   -7.5457   17.8752 C   0  0  0  0  0  0  0  0  0  0  0  0
    6.1721   -8.2186   15.9886 N   0  0  0  0  0  0  0  0  0  0  0  0
   11.1764   -2.6600   19.5604 C   0  0  0  0  0  0  0  0  0  0  0  0
    9.5491   -0.6380   24.1912 C   0  0  0  0  0  0  0  0  0  0  0  0
    7.5337   -6.9256   16.9519 C   0  0  0  0  0  0  0  0  0  0  0  0
    9.6782    0.5671   23.5143 C   0  0  0  0  0  0  0  0  0  0  0  0
    8.4532    0.3482   26.0821 C   0  0  0  0  0  0  0  0  0  0  0  0
   10.4239   -1.7677   22.2230 N   0  0  0  0  0  0  0  0  0  0  0  0
    9.9468   -4.5953   20.1709 C   0  0  0  0  0  0  0  0  0  0  0  0
   10.0366   -3.0590   23.9864 N   0  0  0  0  0  0  0  0  0  0  0  0
    7.1191   -7.3636   15.7739 C   0  0  0  0  0  0  0  0  0  0  0  0
    5.9612   -8.3203   17.2732 N   0  0  0  0  0  0  0  0  0  0  0  0
    8.5296   -5.9814   17.1841 C   0  0  0  0  0  0  0  0  0  0  0  0
    9.1527   -5.2118   16.2116 C   0  0  0  0  0  0  0  0  0  0  0  0
   10.3364   -3.8368   22.9255 O   0  0  0  0  0  0  0  0  0  0  0  0
    9.6947   -4.8407   18.8534 C   0  0  0  0  0  0  0  0  0  0  0  0
    9.1596    1.7042   24.1381 C   0  0  0  0  0  0  0  0  0  0  0  0
   11.0456   -2.9774   18.2694 N   0  0  0  0  0  0  0  0  0  0  0  0
   10.4788   -3.0457   21.8593 C   0  0  0  0  0  0  0  0  0  0  0  0
    8.8693   -5.8099   18.4657 N   0  0  0  0  0  0  0  0  0  0  0  0
    8.9892   -0.7926   25.4573 C   0  0  0  0  0  0  0  0  0  0  0  0
   10.5677   -3.4462   20.5323 C   0  0  0  0  0  0  0  0  0  0  0  0
  1  8  1  0
  1 12  4  0
  1 14  4  0
  2  3  4  0
  2 18  4  0
  3 20  4  0
  3 22  4  0
  4 11  4  0
  4 21  4  0
  5  9  4  0
  5 16  4  0
  6 15  4  0
  6 16  4  0
  7 22  4  0
  7 26  4  0
  8 10  4  0
  8 25  4  0
  9 15  4  0
  9 17  1  0
 10 21  4  0
 11 25  4  0
 12 23  4  0
 13 20  4  0
 13 26  4  0
 14 19  4  0
 17 18  4  0
 17 24  4  0
 19 23  4  0
 20 24  4  0
 23 26  1  0
M  END
$$$$

 Created by Python create_sdf_string function

 26 30  0  0  0  0  0  0  0  0999 V2000
   10.0084   -1.8019   23.4945 C   0  0  0  0  0  0  0  0  0  0  0  0
   10.0005   -4.2520   16.5631 C   0  0  0  0  0  0  0  0  0  0  0  0
   10.2759   -4.0036   17.8845 C   0  0  0  0  0  0  0  0  0  0  0  0
    8.5652    1.5478   25.3778 N   0  0  0  0  0  0  0  0  0  0  0  0
    6.8048   -7.5457   17.8752 C   0  0  0  0  0  0  0  0  0  0  0  0
    6.1721   -8.2186   15.9886 N   0  0  0  0  0  0  0  0  0  0  0  0
   11.1764   -2.6600   19.5604 C   0  0  0  0  0  0  0  0  0  0  0  0
    9.5491   -0.6380   24.1912 C   0  0  0  0  0  0  0  0  0  0  0  0
    7.5337   -6.9256   16.9519 C   0  0  0  0  0  0  0  0  0  0  0  0
    9.6782    0.5671   23.5143 C   0  0  0  0  0  0  0  0  0  0  0  0
    8.4532    0.3482   26.0821 C   0  0  0  0  0  0  0  0  0  0  0  0
   10.4239   -1.7677   22.2230 N   0  0  0  0  0  0  0  0  0  0  0  0
    9.9468   -4.5953   20.1709 C   0  0  0  0  0  0  0  0  0  0  0  0
   10.0366   -3.0590   23.9864 N   0  0  0  0  0  0  0  0  0  0  0  0
    7.1191   -7.3636   15.7739 C   0  0  0  0  0  0  0  0  0  0  0  0
    5.9612   -8.3203   17.2732 N   0  0  0  0  0  0  0  0  0  0  0  0
    8.5296   -5.9814   17.1841 C   0  0  0  0  0  0  0  0  0  0  0  0
    9.1527   -5.2118   16.2116 C   0  0  0  0  0  0  0  0  0  0  0  0
   10.3364   -3.8368   22.9255 O   0  0  0  0  0  0  0  0  0  0  0  0
    9.6947   -4.8407   18.8534 C   0  0  0  0  0  0  0  0  0  0  0  0
    9.1596    1.7042   24.1381 C   0  0  0  0  0  0  0  0  0  0  0  0
   11.0456   -2.9774   18.2694 N   0  0  0  0  0  0  0  0  0  0  0  0
   10.4788   -3.0457   21.8593 C   0  0  0  0  0  0  0  0  0  0  0  0
    8.8693   -5.8099   18.4657 N   0  0  0  0  0  0  0  0  0  0  0  0
    8.9892   -0.7926   25.4573 C   0  0  0  0  0  0  0  0  0  0  0  0
   10.5677   -3.4462   20.5323 C   0  0  0  0  0  0  0  0  0  0  0  0
  1  8  1  0
  1 12  4  0
  1 14  4  0
  2  3  4  0
  2 18  4  0
  3 20  4  0
  3 22  4  0
  4 11  4  0
  4 21  4  0
  5  9  4  0
  5 16  4  0
  6 15  4  0
  6 16  4  0
  7 22  4  0
  7 26  4  0
  8 10  4  0
  8 25  4  0
  9 15  4  0
  9 17  1  0
 10 21  4  0
 11 25  4  0
 12 23  4  0
 13 20  4  0
 13 26  4  0
 14 19  4  0
 17 18  4  0
 17 24  4  0
 19 23  4  0
 20 24  4  0
 23 26  1  0
M  END
$$$$

 Created by Python create_sdf_string function

 26 30  0  0  0  0  0  0  0  0999 V2000
   10.0084   -1.8019   23.4945 C   0  0  0  0  0  0  0  0  0  0  0  0
   10.0005   -4.2520   16.5631 C   0  0  0  0  0  0  0  0  0  0  0  0
   10.2759   -4.0036   17.8845 C   0  0  0  0  0  0  0  0  0  0  0  0
    8.5652    1.5478   25.3778 N   0  0  0  0  0  0  0  0  0  0  0  0
    6.8048   -7.5457   17.8752 C   0  0  0  0  0  0  0  0  0  0  0  0
    6.1721   -8.2186   15.9886 N   0  0  0  0  0  0  0  0  0  0  0  0
   11.1764   -2.6600   19.5604 C   0  0  0  0  0  0  0  0  0  0  0  0
    9.5491   -0.6380   24.1912 C   0  0  0  0  0  0  0  0  0  0  0  0
    7.5337   -6.9256   16.9519 C   0  0  0  0  0  0  0  0  0  0  0  0
    9.6782    0.5671   23.5143 C   0  0  0  0  0  0  0  0  0  0  0  0
    8.4532    0.3482   26.0821 C   0  0  0  0  0  0  0  0  0  0  0  0
   10.4239   -1.7677   22.2230 N   0  0  0  0  0  0  0  0  0  0  0  0
    9.9468   -4.5953   20.1709 C   0  0  0  0  0  0  0  0  0  0  0  0
   10.0366   -3.0590   23.9864 N   0  0  0  0  0  0  0  0  0  0  0  0
    7.1191   -7.3636   15.7739 C   0  0  0  0  0  0  0  0  0  0  0  0
    5.9612   -8.3203   17.2732 N   0  0  0  0  0  0  0  0  0  0  0  0
    8.5296   -5.9814   17.1841 C   0  0  0  0  0  0  0  0  0  0  0  0
    9.1527   -5.2118   16.2116 C   0  0  0  0  0  0  0  0  0  0  0  0
   10.3364   -3.8368   22.9255 O   0  0  0  0  0  0  0  0  0  0  0  0
    9.6947   -4.8407   18.8534 C   0  0  0  0  0  0  0  0  0  0  0  0
    9.1596    1.7042   24.1381 C   0  0  0  0  0  0  0  0  0  0  0  0
   11.0456   -2.9774   18.2694 N   0  0  0  0  0  0  0  0  0  0  0  0
   10.4788   -3.0457   21.8593 C   0  0  0  0  0  0  0  0  0  0  0  0
    8.8693   -5.8099   18.4657 N   0  0  0  0  0  0  0  0  0  0  0  0
    8.9892   -0.7926   25.4573 C   0  0  0  0  0  0  0  0  0  0  0  0
   10.5677   -3.4462   20.5323 C   0  0  0  0  0  0  0  0  0  0  0  0
  1  8  1  0
  1 12  4  0
  1 14  4  0
  2  3  4  0
  2 18  4  0
  3 20  4  0
  3 22  4  0
  4 11  4  0
  4 21  4  0
  5  9  4  0
  5 16  4  0
  6 15  4  0
  6 16  4  0
  7 22  4  0
  7 26  4  0
  8 10  4  0
  8 25  4  0
  9 15  4  0
  9 17  1  0
 10 21  4  0
 11 25  4  0
 12 23  4  0
 13 20  4  0
 13 26  4  0
 14 19  4  0
 17 18  4  0
 17 24  4  0
 19 23  4  0
 20 24  4  0
 23 26  1  0
M  END
$$$$

 Created by Python create_sdf_string function

 26 30  0  0  0  0  0  0  0  0999 V2000
   10.0084   -1.8019   23.4945 C   0  0  0  0  0  0  0  0  0  0  0  0
   10.0005   -4.2520   16.5631 C   0  0  0  0  0  0  0  0  0  0  0  0
   10.2759   -4.0036   17.8845 C   0  0  0  0  0  0  0  0  0  0  0  0
    8.5652    1.5478   25.3778 N   0  0  0  0  0  0  0  0  0  0  0  0
    6.8048   -7.5457   17.8752 C   0  0  0  0  0  0  0  0  0  0  0  0
    6.1721   -8.2186   15.9886 N   0  0  0  0  0  0  0  0  0  0  0  0
   11.1764   -2.6600   19.5604 C   0  0  0  0  0  0  0  0  0  0  0  0
    9.5491   -0.6380   24.1912 C   0  0  0  0  0  0  0  0  0  0  0  0
    7.5337   -6.9256   16.9519 C   0  0  0  0  0  0  0  0  0  0  0  0
    9.6782    0.5671   23.5143 C   0  0  0  0  0  0  0  0  0  0  0  0
    8.4532    0.3482   26.0821 C   0  0  0  0  0  0  0  0  0  0  0  0
   10.4239   -1.7677   22.2230 N   0  0  0  0  0  0  0  0  0  0  0  0
    9.9468   -4.5953   20.1709 C   0  0  0  0  0  0  0  0  0  0  0  0
   10.0366   -3.0590   23.9864 N   0  0  0  0  0  0  0  0  0  0  0  0
    7.1191   -7.3636   15.7739 C   0  0  0  0  0  0  0  0  0  0  0  0
    5.9612   -8.3203   17.2732 N   0  0  0  0  0  0  0  0  0  0  0  0
    8.5296   -5.9814   17.1841 C   0  0  0  0  0  0  0  0  0  0  0  0
    9.1527   -5.2118   16.2116 C   0  0  0  0  0  0  0  0  0  0  0  0
   10.3364   -3.8368   22.9255 O   0  0  0  0  0  0  0  0  0  0  0  0
    9.6947   -4.8407   18.8534 C   0  0  0  0  0  0  0  0  0  0  0  0
    9.1596    1.7042   24.1381 C   0  0  0  0  0  0  0  0  0  0  0  0
   11.0456   -2.9774   18.2694 N   0  0  0  0  0  0  0  0  0  0  0  0
   10.4788   -3.0457   21.8593 C   0  0  0  0  0  0  0  0  0  0  0  0
    8.8693   -5.8099   18.4657 N   0  0  0  0  0  0  0  0  0  0  0  0
    8.9892   -0.7926   25.4573 C   0  0  0  0  0  0  0  0  0  0  0  0
   10.5677   -3.4462   20.5323 C   0  0  0  0  0  0  0  0  0  0  0  0
  1  8  1  0
  1 12  4  0
  1 14  4  0
  2  3  4  0
  2 18  4  0
  3 20  4  0
  3 22  4  0
  4 11  4  0
  4 21  4  0
  5  9  4  0
  5 16  4  0
  6 15  4  0
  6 16  4  0
  7 22  4  0
  7 26  4  0
  8 10  4  0
  8 25  4  0
  9 15  4  0
  9 17  1  0
 10 21  4  0
 11 25  4  0
 12 23  4  0
 13 20  4  0
 13 26  4  0
 14 19  4  0
 17 18  4  0
 17 24  4  0
 19 23  4  0
 20 24  4  0
 23 26  1  0
M  END
$$$$

 Created by Python create_sdf_string function

 26 30  0  0  0  0  0  0  0  0999 V2000
   10.0084   -1.8019   23.4945 C   0  0  0  0  0  0  0  0  0  0  0  0
   10.0005   -4.2520   16.5631 C   0  0  0  0  0  0  0  0  0  0  0  0
   10.2759   -4.0036   17.8845 C   0  0  0  0  0  0  0  0  0  0  0  0
    8.5652    1.5478   25.3778 N   0  0  0  0  0  0  0  0  0  0  0  0
    6.8048   -7.5457   17.8752 C   0  0  0  0  0  0  0  0  0  0  0  0
    6.1721   -8.2186   15.9886 N   0  0  0  0  0  0  0  0  0  0  0  0
   11.1764   -2.6600   19.5604 C   0  0  0  0  0  0  0  0  0  0  0  0
    9.5491   -0.6380   24.1912 C   0  0  0  0  0  0  0  0  0  0  0  0
    7.5337   -6.9256   16.9519 C   0  0  0  0  0  0  0  0  0  0  0  0
    9.6782    0.5671   23.5143 C   0  0  0  0  0  0  0  0  0  0  0  0
    8.4532    0.3482   26.0821 C   0  0  0  0  0  0  0  0  0  0  0  0
   10.4239   -1.7677   22.2230 N   0  0  0  0  0  0  0  0  0  0  0  0
    9.9468   -4.5953   20.1709 C   0  0  0  0  0  0  0  0  0  0  0  0
   10.0366   -3.0590   23.9864 N   0  0  0  0  0  0  0  0  0  0  0  0
    7.1191   -7.3636   15.7739 C   0  0  0  0  0  0  0  0  0  0  0  0
    5.9612   -8.3203   17.2732 N   0  0  0  0  0  0  0  0  0  0  0  0
    8.5296   -5.9814   17.1841 C   0  0  0  0  0  0  0  0  0  0  0  0
    9.1527   -5.2118   16.2116 C   0  0  0  0  0  0  0  0  0  0  0  0
   10.3364   -3.8368   22.9255 O   0  0  0  0  0  0  0  0  0  0  0  0
    9.6947   -4.8407   18.8534 C   0  0  0  0  0  0  0  0  0  0  0  0
    9.1596    1.7042   24.1381 C   0  0  0  0  0  0  0  0  0  0  0  0
   11.0456   -2.9774   18.2694 N   0  0  0  0  0  0  0  0  0  0  0  0
   10.4788   -3.0457   21.8593 C   0  0  0  0  0  0  0  0  0  0  0  0
    8.8693   -5.8099   18.4657 N   0  0  0  0  0  0  0  0  0  0  0  0
    8.9892   -0.7926   25.4573 C   0  0  0  0  0  0  0  0  0  0  0  0
   10.5677   -3.4462   20.5323 C   0  0  0  0  0  0  0  0  0  0  0  0
  1  8  1  0
  1 12  4  0
  1 14  4  0
  2  3  4  0
  2 18  4  0
  3 20  4  0
  3 22  4  0
  4 11  4  0
  4 21  4  0
  5  9  4  0
  5 16  4  0
  6 15  4  0
  6 16  4  0
  7 22  4  0
  7 26  4  0
  8 10  4  0
  8 25  4  0
  9 15  4  0
  9 17  1  0
 10 21  4  0
 11 25  4  0
 12 23  4  0
 13 20  4  0
 13 26  4  0
 14 19  4  0
 17 18  4  0
 17 24  4  0
 19 23  4  0
 20 24  4  0
 23 26  1  0
M  END
$$$$

 Created by Python create_sdf_string function

 26 30  0  0  0  0  0  0  0  0999 V2000
   10.0084   -1.8019   23.4945 C   0  0  0  0  0  0  0  0  0  0  0  0
   10.0005   -4.2520   16.5631 C   0  0  0  0  0  0  0  0  0  0  0  0
   10.2759   -4.0036   17.8845 C   0  0  0  0  0  0  0  0  0  0  0  0
    8.5652    1.5478   25.3778 N   0  0  0  0  0  0  0  0  0  0  0  0
    6.8048   -7.5457   17.8752 C   0  0  0  0  0  0  0  0  0  0  0  0
    6.1721   -8.2186   15.9886 N   0  0  0  0  0  0  0  0  0  0  0  0
   11.1764   -2.6600   19.5604 C   0  0  0  0  0  0  0  0  0  0  0  0
    9.5491   -0.6380   24.1912 C   0  0  0  0  0  0  0  0  0  0  0  0
    7.5337   -6.9256   16.9519 C   0  0  0  0  0  0  0  0  0  0  0  0
    9.6782    0.5671   23.5143 C   0  0  0  0  0  0  0  0  0  0  0  0
    8.4532    0.3482   26.0821 C   0  0  0  0  0  0  0  0  0  0  0  0
   10.4239   -1.7677   22.2230 N   0  0  0  0  0  0  0  0  0  0  0  0
    9.9468   -4.5953   20.1709 C   0  0  0  0  0  0  0  0  0  0  0  0
   10.0366   -3.0590   23.9864 N   0  0  0  0  0  0  0  0  0  0  0  0
    7.1191   -7.3636   15.7739 C   0  0  0  0  0  0  0  0  0  0  0  0
    5.9612   -8.3203   17.2732 N   0  0  0  0  0  0  0  0  0  0  0  0
    8.5296   -5.9814   17.1841 C   0  0  0  0  0  0  0  0  0  0  0  0
    9.1527   -5.2118   16.2116 C   0  0  0  0  0  0  0  0  0  0  0  0
   10.3364   -3.8368   22.9255 O   0  0  0  0  0  0  0  0  0  0  0  0
    9.6947   -4.8407   18.8534 C   0  0  0  0  0  0  0  0  0  0  0  0
    9.1596    1.7042   24.1381 C   0  0  0  0  0  0  0  0  0  0  0  0
   11.0456   -2.9774   18.2694 N   0  0  0  0  0  0  0  0  0  0  0  0
   10.4788   -3.0457   21.8593 C   0  0  0  0  0  0  0  0  0  0  0  0
    8.8693   -5.8099   18.4657 N   0  0  0  0  0  0  0  0  0  0  0  0
    8.9892   -0.7926   25.4573 C   0  0  0  0  0  0  0  0  0  0  0  0
   10.5677   -3.4462   20.5323 C   0  0  0  0  0  0  0  0  0  0  0  0
  1  8  1  0
  1 12  4  0
  1 14  4  0
  2  3  4  0
  2 18  4  0
  3 20  4  0
  3 22  4  0
  4 11  4  0
  4 21  4  0
  5  9  4  0
  5 16  4  0
  6 15  4  0
  6 16  4  0
  7 22  4  0
  7 26  4  0
  8 10  4  0
  8 25  4  0
  9 15  4  0
  9 17  1  0
 10 21  4  0
 11 25  4  0
 12 23  4  0
 13 20  4  0
 13 26  4  0
 14 19  4  0
 17 18  4  0
 17 24  4  0
 19 23  4  0
 20 24  4  0
 23 26  1  0
M  END
$$$$

 Created by Python create_sdf_string function

 26 30  0  0  0  0  0  0  0  0999 V2000
   10.0084   -1.8019   23.4945 C   0  0  0  0  0  0  0  0  0  0  0  0
   10.0005   -4.2520   16.5631 C   0  0  0  0  0  0  0  0  0  0  0  0
   10.2759   -4.0036   17.8845 C   0  0  0  0  0  0  0  0  0  0  0  0
    8.5652    1.5478   25.3778 N   0  0  0  0  0  0  0  0  0  0  0  0
    6.8048   -7.5457   17.8752 C   0  0  0  0  0  0  0  0  0  0  0  0
    6.1721   -8.2186   15.9886 N   0  0  0  0  0  0  0  0  0  0  0  0
   11.1764   -2.6600   19.5604 C   0  0  0  0  0  0  0  0  0  0  0  0
    9.5491   -0.6380   24.1912 C   0  0  0  0  0  0  0  0  0  0  0  0
    7.5337   -6.9256   16.9519 C   0  0  0  0  0  0  0  0  0  0  0  0
    9.6782    0.5671   23.5143 C   0  0  0  0  0  0  0  0  0  0  0  0
    8.4532    0.3482   26.0821 C   0  0  0  0  0  0  0  0  0  0  0  0
   10.4239   -1.7677   22.2230 N   0  0  0  0  0  0  0  0  0  0  0  0
    9.9468   -4.5953   20.1709 C   0  0  0  0  0  0  0  0  0  0  0  0
   10.0366   -3.0590   23.9864 N   0  0  0  0  0  0  0  0  0  0  0  0
    7.1191   -7.3636   15.7739 C   0  0  0  0  0  0  0  0  0  0  0  0
    5.9612   -8.3203   17.2732 N   0  0  0  0  0  0  0  0  0  0  0  0
    8.5296   -5.9814   17.1841 C   0  0  0  0  0  0  0  0  0  0  0  0
    9.1527   -5.2118   16.2116 C   0  0  0  0  0  0  0  0  0  0  0  0
   10.3364   -3.8368   22.9255 O   0  0  0  0  0  0  0  0  0  0  0  0
    9.6947   -4.8407   18.8534 C   0  0  0  0  0  0  0  0  0  0  0  0
    9.1596    1.7042   24.1381 C   0  0  0  0  0  0  0  0  0  0  0  0
   11.0456   -2.9774   18.2694 N   0  0  0  0  0  0  0  0  0  0  0  0
   10.4788   -3.0457   21.8593 C   0  0  0  0  0  0  0  0  0  0  0  0
    8.8693   -5.8099   18.4657 N   0  0  0  0  0  0  0  0  0  0  0  0
    8.9892   -0.7926   25.4573 C   0  0  0  0  0  0  0  0  0  0  0  0
   10.5677   -3.4462   20.5323 C   0  0  0  0  0  0  0  0  0  0  0  0
  1  8  1  0
  1 12  4  0
  1 14  4  0
  2  3  4  0
  2 18  4  0
  3 20  4  0
  3 22  4  0
  4 11  4  0
  4 21  4  0
  5  9  4  0
  5 16  4  0
  6 15  4  0
  6 16  4  0
  7 22  4  0
  7 26  4  0
  8 10  4  0
  8 25  4  0
  9 15  4  0
  9 17  1  0
 10 21  4  0
 11 25  4  0
 12 23  4  0
 13 20  4  0
 13 26  4  0
 14 19  4  0
 17 18  4  0
 17 24  4  0
 19 23  4  0
 20 24  4  0
 23 26  1  0
M  END
$$$$

 Created by Python create_sdf_string function

 26 30  0  0  0  0  0  0  0  0999 V2000
   10.0084   -1.8019   23.4945 C   0  0  0  0  0  0  0  0  0  0  0  0
   10.0005   -4.2520   16.5631 C   0  0  0  0  0  0  0  0  0  0  0  0
   10.2759   -4.0036   17.8845 C   0  0  0  0  0  0  0  0  0  0  0  0
    8.5652    1.5478   25.3778 N   0  0  0  0  0  0  0  0  0  0  0  0
    6.8048   -7.5457   17.8752 C   0  0  0  0  0  0  0  0  0  0  0  0
    6.1721   -8.2186   15.9886 N   0  0  0  0  0  0  0  0  0  0  0  0
   11.1764   -2.6600   19.5604 C   0  0  0  0  0  0  0  0  0  0  0  0
    9.5491   -0.6380   24.1912 C   0  0  0  0  0  0  0  0  0  0  0  0
    7.5337   -6.9256   16.9519 C   0  0  0  0  0  0  0  0  0  0  0  0
    9.6782    0.5671   23.5143 C   0  0  0  0  0  0  0  0  0  0  0  0
    8.4532    0.3482   26.0821 C   0  0  0  0  0  0  0  0  0  0  0  0
   10.4239   -1.7677   22.2230 N   0  0  0  0  0  0  0  0  0  0  0  0
    9.9468   -4.5953   20.1709 C   0  0  0  0  0  0  0  0  0  0  0  0
   10.0366   -3.0590   23.9864 N   0  0  0  0  0  0  0  0  0  0  0  0
    7.1191   -7.3636   15.7739 C   0  0  0  0  0  0  0  0  0  0  0  0
    5.9612   -8.3203   17.2732 N   0  0  0  0  0  0  0  0  0  0  0  0
    8.5296   -5.9814   17.1841 C   0  0  0  0  0  0  0  0  0  0  0  0
    9.1527   -5.2118   16.2116 C   0  0  0  0  0  0  0  0  0  0  0  0
   10.3364   -3.8368   22.9255 O   0  0  0  0  0  0  0  0  0  0  0  0
    9.6947   -4.8407   18.8534 C   0  0  0  0  0  0  0  0  0  0  0  0
    9.1596    1.7042   24.1381 C   0  0  0  0  0  0  0  0  0  0  0  0
   11.0456   -2.9774   18.2694 N   0  0  0  0  0  0  0  0  0  0  0  0
   10.4788   -3.0457   21.8593 C   0  0  0  0  0  0  0  0  0  0  0  0
    8.8693   -5.8099   18.4657 N   0  0  0  0  0  0  0  0  0  0  0  0
    8.9892   -0.7926   25.4573 C   0  0  0  0  0  0  0  0  0  0  0  0
   10.5677   -3.4462   20.5323 C   0  0  0  0  0  0  0  0  0  0  0  0
  1  8  1  0
  1 12  4  0
  1 14  4  0
  2  3  4  0
  2 18  4  0
  3 20  4  0
  3 22  4  0
  4 11  4  0
  4 21  4  0
  5  9  4  0
  5 16  4  0
  6 15  4  0
  6 16  4  0
  7 22  4  0
  7 26  4  0
  8 10  4  0
  8 25  4  0
  9 15  4  0
  9 17  1  0
 10 21  4  0
 11 25  4  0
 12 23  4  0
 13 20  4  0
 13 26  4  0
 14 19  4  0
 17 18  4  0
 17 24  4  0
 19 23  4  0
 20 24  4  0
 23 26  1  0
M  END
$$$$

 Created by Python create_sdf_string function

 26 30  0  0  0  0  0  0  0  0999 V2000
   10.0084   -1.8019   23.4945 C   0  0  0  0  0  0  0  0  0  0  0  0
   10.0005   -4.2520   16.5631 C   0  0  0  0  0  0  0  0  0  0  0  0
   10.2759   -4.0036   17.8845 C   0  0  0  0  0  0  0  0  0  0  0  0
    8.5652    1.5478   25.3778 N   0  0  0  0  0  0  0  0  0  0  0  0
    6.8048   -7.5457   17.8752 C   0  0  0  0  0  0  0  0  0  0  0  0
    6.1721   -8.2186   15.9886 N   0  0  0  0  0  0  0  0  0  0  0  0
   11.1764   -2.6600   19.5604 C   0  0  0  0  0  0  0  0  0  0  0  0
    9.5491   -0.6380   24.1912 C   0  0  0  0  0  0  0  0  0  0  0  0
    7.5337   -6.9256   16.9519 C   0  0  0  0  0  0  0  0  0  0  0  0
    9.6782    0.5671   23.5143 C   0  0  0  0  0  0  0  0  0  0  0  0
    8.4532    0.3482   26.0821 C   0  0  0  0  0  0  0  0  0  0  0  0
   10.4239   -1.7677   22.2230 N   0  0  0  0  0  0  0  0  0  0  0  0
    9.9468   -4.5953   20.1709 C   0  0  0  0  0  0  0  0  0  0  0  0
   10.0366   -3.0590   23.9864 N   0  0  0  0  0  0  0  0  0  0  0  0
    7.1191   -7.3636   15.7739 C   0  0  0  0  0  0  0  0  0  0  0  0
    5.9612   -8.3203   17.2732 N   0  0  0  0  0  0  0  0  0  0  0  0
    8.5296   -5.9814   17.1841 C   0  0  0  0  0  0  0  0  0  0  0  0
    9.1527   -5.2118   16.2116 C   0  0  0  0  0  0  0  0  0  0  0  0
   10.3364   -3.8368   22.9255 O   0  0  0  0  0  0  0  0  0  0  0  0
    9.6947   -4.8407   18.8534 C   0  0  0  0  0  0  0  0  0  0  0  0
    9.1596    1.7042   24.1381 C   0  0  0  0  0  0  0  0  0  0  0  0
   11.0456   -2.9774   18.2694 N   0  0  0  0  0  0  0  0  0  0  0  0
   10.4788   -3.0457   21.8593 C   0  0  0  0  0  0  0  0  0  0  0  0
    8.8693   -5.8099   18.4657 N   0  0  0  0  0  0  0  0  0  0  0  0
    8.9892   -0.7926   25.4573 C   0  0  0  0  0  0  0  0  0  0  0  0
   10.5677   -3.4462   20.5323 C   0  0  0  0  0  0  0  0  0  0  0  0
  1  8  1  0
  1 12  4  0
  1 14  4  0
  2  3  4  0
  2 18  4  0
  3 20  4  0
  3 22  4  0
  4 11  4  0
  4 21  4  0
  5  9  4  0
  5 16  4  0
  6 15  4  0
  6 16  4  0
  7 22  4  0
  7 26  4  0
  8 10  4  0
  8 25  4  0
  9 15  4  0
  9 17  1  0
 10 21  4  0
 11 25  4  0
 12 23  4  0
 13 20  4  0
 13 26  4  0
 14 19  4  0
 17 18  4  0
 17 24  4  0
 19 23  4  0
 20 24  4  0
 23 26  1  0
M  END
$$$$

 Created by Python create_sdf_string function

 26 30  0  0  0  0  0  0  0  0999 V2000
   10.0084   -1.8019   23.4945 C   0  0  0  0  0  0  0  0  0  0  0  0
   10.0005   -4.2520   16.5631 C   0  0  0  0  0  0  0  0  0  0  0  0
   10.2759   -4.0036   17.8845 C   0  0  0  0  0  0  0  0  0  0  0  0
    8.5652    1.5478   25.3778 N   0  0  0  0  0  0  0  0  0  0  0  0
    6.8048   -7.5457   17.8752 C   0  0  0  0  0  0  0  0  0  0  0  0
    6.1721   -8.2186   15.9886 N   0  0  0  0  0  0  0  0  0  0  0  0
   11.1764   -2.6600   19.5604 C   0  0  0  0  0  0  0  0  0  0  0  0
    9.5491   -0.6380   24.1912 C   0  0  0  0  0  0  0  0  0  0  0  0
    7.5337   -6.9256   16.9519 C   0  0  0  0  0  0  0  0  0  0  0  0
    9.6782    0.5671   23.5143 C   0  0  0  0  0  0  0  0  0  0  0  0
    8.4532    0.3482   26.0821 C   0  0  0  0  0  0  0  0  0  0  0  0
   10.4239   -1.7677   22.2230 N   0  0  0  0  0  0  0  0  0  0  0  0
    9.9468   -4.5953   20.1709 C   0  0  0  0  0  0  0  0  0  0  0  0
   10.0366   -3.0590   23.9864 N   0  0  0  0  0  0  0  0  0  0  0  0
    7.1191   -7.3636   15.7739 C   0  0  0  0  0  0  0  0  0  0  0  0
    5.9612   -8.3203   17.2732 N   0  0  0  0  0  0  0  0  0  0  0  0
    8.5296   -5.9814   17.1841 C   0  0  0  0  0  0  0  0  0  0  0  0
    9.1527   -5.2118   16.2116 C   0  0  0  0  0  0  0  0  0  0  0  0
   10.3364   -3.8368   22.9255 O   0  0  0  0  0  0  0  0  0  0  0  0
    9.6947   -4.8407   18.8534 C   0  0  0  0  0  0  0  0  0  0  0  0
    9.1596    1.7042   24.1381 C   0  0  0  0  0  0  0  0  0  0  0  0
   11.0456   -2.9774   18.2694 N   0  0  0  0  0  0  0  0  0  0  0  0
   10.4788   -3.0457   21.8593 C   0  0  0  0  0  0  0  0  0  0  0  0
    8.8693   -5.8099   18.4657 N   0  0  0  0  0  0  0  0  0  0  0  0
    8.9892   -0.7926   25.4573 C   0  0  0  0  0  0  0  0  0  0  0  0
   10.5677   -3.4462   20.5323 C   0  0  0  0  0  0  0  0  0  0  0  0
  1  8  1  0
  1 12  4  0
  1 14  4  0
  2  3  4  0
  2 18  4  0
  3 20  4  0
  3 22  4  0
  4 11  4  0
  4 21  4  0
  5  9  4  0
  5 16  4  0
  6 15  4  0
  6 16  4  0
  7 22  4  0
  7 26  4  0
  8 10  4  0
  8 25  4  0
  9 15  4  0
  9 17  1  0
 10 21  4  0
 11 25  4  0
 12 23  4  0
 13 20  4  0
 13 26  4  0
 14 19  4  0
 17 18  4  0
 17 24  4  0
 19 23  4  0
 20 24  4  0
 23 26  1  0
M  END
$$$$

 Created by Python create_sdf_string function

 26 30  0  0  0  0  0  0  0  0999 V2000
   10.0084   -1.8019   23.4945 C   0  0  0  0  0  0  0  0  0  0  0  0
   10.0005   -4.2520   16.5631 C   0  0  0  0  0  0  0  0  0  0  0  0
   10.2759   -4.0036   17.8845 C   0  0  0  0  0  0  0  0  0  0  0  0
    8.5652    1.5478   25.3778 N   0  0  0  0  0  0  0  0  0  0  0  0
    6.8048   -7.5457   17.8752 C   0  0  0  0  0  0  0  0  0  0  0  0
    6.1721   -8.2186   15.9886 N   0  0  0  0  0  0  0  0  0  0  0  0
   11.1764   -2.6600   19.5604 C   0  0  0  0  0  0  0  0  0  0  0  0
    9.5491   -0.6380   24.1912 C   0  0  0  0  0  0  0  0  0  0  0  0
    7.5337   -6.9256   16.9519 C   0  0  0  0  0  0  0  0  0  0  0  0
    9.6782    0.5671   23.5143 C   0  0  0  0  0  0  0  0  0  0  0  0
    8.4532    0.3482   26.0821 C   0  0  0  0  0  0  0  0  0  0  0  0
   10.4239   -1.7677   22.2230 N   0  0  0  0  0  0  0  0  0  0  0  0
    9.9468   -4.5953   20.1709 C   0  0  0  0  0  0  0  0  0  0  0  0
   10.0366   -3.0590   23.9864 N   0  0  0  0  0  0  0  0  0  0  0  0
    7.1191   -7.3636   15.7739 C   0  0  0  0  0  0  0  0  0  0  0  0
    5.9612   -8.3203   17.2732 N   0  0  0  0  0  0  0  0  0  0  0  0
    8.5296   -5.9814   17.1841 C   0  0  0  0  0  0  0  0  0  0  0  0
    9.1527   -5.2118   16.2116 C   0  0  0  0  0  0  0  0  0  0  0  0
   10.3364   -3.8368   22.9255 O   0  0  0  0  0  0  0  0  0  0  0  0
    9.6947   -4.8407   18.8534 C   0  0  0  0  0  0  0  0  0  0  0  0
    9.1596    1.7042   24.1381 C   0  0  0  0  0  0  0  0  0  0  0  0
   11.0456   -2.9774   18.2694 N   0  0  0  0  0  0  0  0  0  0  0  0
   10.4788   -3.0457   21.8593 C   0  0  0  0  0  0  0  0  0  0  0  0
    8.8693   -5.8099   18.4657 N   0  0  0  0  0  0  0  0  0  0  0  0
    8.9892   -0.7926   25.4573 C   0  0  0  0  0  0  0  0  0  0  0  0
   10.5677   -3.4462   20.5323 C   0  0  0  0  0  0  0  0  0  0  0  0
  1  8  1  0
  1 12  4  0
  1 14  4  0
  2  3  4  0
  2 18  4  0
  3 20  4  0
  3 22  4  0
  4 11  4  0
  4 21  4  0
  5  9  4  0
  5 16  4  0
  6 15  4  0
  6 16  4  0
  7 22  4  0
  7 26  4  0
  8 10  4  0
  8 25  4  0
  9 15  4  0
  9 17  1  0
 10 21  4  0
 11 25  4  0
 12 23  4  0
 13 20  4  0
 13 26  4  0
 14 19  4  0
 17 18  4  0
 17 24  4  0
 19 23  4  0
 20 24  4  0
 23 26  1  0
M  END
$$$$

 Created by Python create_sdf_string function

 26 30  0  0  0  0  0  0  0  0999 V2000
   10.0084   -1.8019   23.4945 C   0  0  0  0  0  0  0  0  0  0  0  0
   10.0005   -4.2520   16.5631 C   0  0  0  0  0  0  0  0  0  0  0  0
   10.2759   -4.0036   17.8845 C   0  0  0  0  0  0  0  0  0  0  0  0
    8.5652    1.5478   25.3778 N   0  0  0  0  0  0  0  0  0  0  0  0
    6.8048   -7.5457   17.8752 C   0  0  0  0  0  0  0  0  0  0  0  0
    6.1721   -8.2186   15.9886 N   0  0  0  0  0  0  0  0  0  0  0  0
   11.1764   -2.6600   19.5604 C   0  0  0  0  0  0  0  0  0  0  0  0
    9.5491   -0.6380   24.1912 C   0  0  0  0  0  0  0  0  0  0  0  0
    7.5337   -6.9256   16.9519 C   0  0  0  0  0  0  0  0  0  0  0  0
    9.6782    0.5671   23.5143 C   0  0  0  0  0  0  0  0  0  0  0  0
    8.4532    0.3482   26.0821 C   0  0  0  0  0  0  0  0  0  0  0  0
   10.4239   -1.7677   22.2230 N   0  0  0  0  0  0  0  0  0  0  0  0
    9.9468   -4.5953   20.1709 C   0  0  0  0  0  0  0  0  0  0  0  0
   10.0366   -3.0590   23.9864 N   0  0  0  0  0  0  0  0  0  0  0  0
    7.1191   -7.3636   15.7739 C   0  0  0  0  0  0  0  0  0  0  0  0
    5.9612   -8.3203   17.2732 N   0  0  0  0  0  0  0  0  0  0  0  0
    8.5296   -5.9814   17.1841 C   0  0  0  0  0  0  0  0  0  0  0  0
    9.1527   -5.2118   16.2116 C   0  0  0  0  0  0  0  0  0  0  0  0
   10.3364   -3.8368   22.9255 O   0  0  0  0  0  0  0  0  0  0  0  0
    9.6947   -4.8407   18.8534 C   0  0  0  0  0  0  0  0  0  0  0  0
    9.1596    1.7042   24.1381 C   0  0  0  0  0  0  0  0  0  0  0  0
   11.0456   -2.9774   18.2694 N   0  0  0  0  0  0  0  0  0  0  0  0
   10.4788   -3.0457   21.8593 C   0  0  0  0  0  0  0  0  0  0  0  0
    8.8693   -5.8099   18.4657 N   0  0  0  0  0  0  0  0  0  0  0  0
    8.9892   -0.7926   25.4573 C   0  0  0  0  0  0  0  0  0  0  0  0
   10.5677   -3.4462   20.5323 C   0  0  0  0  0  0  0  0  0  0  0  0
  1  8  1  0
  1 12  4  0
  1 14  4  0
  2  3  4  0
  2 18  4  0
  3 20  4  0
  3 22  4  0
  4 11  4  0
  4 21  4  0
  5  9  4  0
  5 16  4  0
  6 15  4  0
  6 16  4  0
  7 22  4  0
  7 26  4  0
  8 10  4  0
  8 25  4  0
  9 15  4  0
  9 17  1  0
 10 21  4  0
 11 25  4  0
 12 23  4  0
 13 20  4  0
 13 26  4  0
 14 19  4  0
 17 18  4  0
 17 24  4  0
 19 23  4  0
 20 24  4  0
 23 26  1  0
M  END
$$$$

 Created by Python create_sdf_string function

 26 30  0  0  0  0  0  0  0  0999 V2000
   10.0084   -1.8019   23.4945 C   0  0  0  0  0  0  0  0  0  0  0  0
   10.0005   -4.2520   16.5631 C   0  0  0  0  0  0  0  0  0  0  0  0
   10.2759   -4.0036   17.8845 C   0  0  0  0  0  0  0  0  0  0  0  0
    8.5652    1.5478   25.3778 N   0  0  0  0  0  0  0  0  0  0  0  0
    6.8048   -7.5457   17.8752 C   0  0  0  0  0  0  0  0  0  0  0  0
    6.1721   -8.2186   15.9886 N   0  0  0  0  0  0  0  0  0  0  0  0
   11.1764   -2.6600   19.5604 C   0  0  0  0  0  0  0  0  0  0  0  0
    9.5491   -0.6380   24.1912 C   0  0  0  0  0  0  0  0  0  0  0  0
    7.5337   -6.9256   16.9519 C   0  0  0  0  0  0  0  0  0  0  0  0
    9.6782    0.5671   23.5143 C   0  0  0  0  0  0  0  0  0  0  0  0
    8.4532    0.3482   26.0821 C   0  0  0  0  0  0  0  0  0  0  0  0
   10.4239   -1.7677   22.2230 N   0  0  0  0  0  0  0  0  0  0  0  0
    9.9468   -4.5953   20.1709 C   0  0  0  0  0  0  0  0  0  0  0  0
   10.0366   -3.0590   23.9864 N   0  0  0  0  0  0  0  0  0  0  0  0
    7.1191   -7.3636   15.7739 C   0  0  0  0  0  0  0  0  0  0  0  0
    5.9612   -8.3203   17.2732 N   0  0  0  0  0  0  0  0  0  0  0  0
    8.5296   -5.9814   17.1841 C   0  0  0  0  0  0  0  0  0  0  0  0
    9.1527   -5.2118   16.2116 C   0  0  0  0  0  0  0  0  0  0  0  0
   10.3364   -3.8368   22.9255 O   0  0  0  0  0  0  0  0  0  0  0  0
    9.6947   -4.8407   18.8534 C   0  0  0  0  0  0  0  0  0  0  0  0
    9.1596    1.7042   24.1381 C   0  0  0  0  0  0  0  0  0  0  0  0
   11.0456   -2.9774   18.2694 N   0  0  0  0  0  0  0  0  0  0  0  0
   10.4788   -3.0457   21.8593 C   0  0  0  0  0  0  0  0  0  0  0  0
    8.8693   -5.8099   18.4657 N   0  0  0  0  0  0  0  0  0  0  0  0
    8.9892   -0.7926   25.4573 C   0  0  0  0  0  0  0  0  0  0  0  0
   10.5677   -3.4462   20.5323 C   0  0  0  0  0  0  0  0  0  0  0  0
  1  8  1  0
  1 12  4  0
  1 14  4  0
  2  3  4  0
  2 18  4  0
  3 20  4  0
  3 22  4  0
  4 11  4  0
  4 21  4  0
  5  9  4  0
  5 16  4  0
  6 15  4  0
  6 16  4  0
  7 22  4  0
  7 26  4  0
  8 10  4  0
  8 25  4  0
  9 15  4  0
  9 17  1  0
 10 21  4  0
 11 25  4  0
 12 23  4  0
 13 20  4  0
 13 26  4  0
 14 19  4  0
 17 18  4  0
 17 24  4  0
 19 23  4  0
 20 24  4  0
 23 26  1  0
M  END
$$$$

 Created by Python create_sdf_string function

 26 30  0  0  0  0  0  0  0  0999 V2000
   10.0084   -1.8019   23.4945 C   0  0  0  0  0  0  0  0  0  0  0  0
   10.0005   -4.2520   16.5631 C   0  0  0  0  0  0  0  0  0  0  0  0
   10.2759   -4.0036   17.8845 C   0  0  0  0  0  0  0  0  0  0  0  0
    8.5652    1.5478   25.3778 N   0  0  0  0  0  0  0  0  0  0  0  0
    6.8048   -7.5457   17.8752 C   0  0  0  0  0  0  0  0  0  0  0  0
    6.1721   -8.2186   15.9886 N   0  0  0  0  0  0  0  0  0  0  0  0
   11.1764   -2.6600   19.5604 C   0  0  0  0  0  0  0  0  0  0  0  0
    9.5491   -0.6380   24.1912 C   0  0  0  0  0  0  0  0  0  0  0  0
    7.5337   -6.9256   16.9519 C   0  0  0  0  0  0  0  0  0  0  0  0
    9.6782    0.5671   23.5143 C   0  0  0  0  0  0  0  0  0  0  0  0
    8.4532    0.3482   26.0821 C   0  0  0  0  0  0  0  0  0  0  0  0
   10.4239   -1.7677   22.2230 N   0  0  0  0  0  0  0  0  0  0  0  0
    9.9468   -4.5953   20.1709 C   0  0  0  0  0  0  0  0  0  0  0  0
   10.0366   -3.0590   23.9864 N   0  0  0  0  0  0  0  0  0  0  0  0
    7.1191   -7.3636   15.7739 C   0  0  0  0  0  0  0  0  0  0  0  0
    5.9612   -8.3203   17.2732 N   0  0  0  0  0  0  0  0  0  0  0  0
    8.5296   -5.9814   17.1841 C   0  0  0  0  0  0  0  0  0  0  0  0
    9.1527   -5.2118   16.2116 C   0  0  0  0  0  0  0  0  0  0  0  0
   10.3364   -3.8368   22.9255 O   0  0  0  0  0  0  0  0  0  0  0  0
    9.6947   -4.8407   18.8534 C   0  0  0  0  0  0  0  0  0  0  0  0
    9.1596    1.7042   24.1381 C   0  0  0  0  0  0  0  0  0  0  0  0
   11.0456   -2.9774   18.2694 N   0  0  0  0  0  0  0  0  0  0  0  0
   10.4788   -3.0457   21.8593 C   0  0  0  0  0  0  0  0  0  0  0  0
    8.8693   -5.8099   18.4657 N   0  0  0  0  0  0  0  0  0  0  0  0
    8.9892   -0.7926   25.4573 C   0  0  0  0  0  0  0  0  0  0  0  0
   10.5677   -3.4462   20.5323 C   0  0  0  0  0  0  0  0  0  0  0  0
  1  8  1  0
  1 12  4  0
  1 14  4  0
  2  3  4  0
  2 18  4  0
  3 20  4  0
  3 22  4  0
  4 11  4  0
  4 21  4  0
  5  9  4  0
  5 16  4  0
  6 15  4  0
  6 16  4  0
  7 22  4  0
  7 26  4  0
  8 10  4  0
  8 25  4  0
  9 15  4  0
  9 17  1  0
 10 21  4  0
 11 25  4  0
 12 23  4  0
 13 20  4  0
 13 26  4  0
 14 19  4  0
 17 18  4  0
 17 24  4  0
 19 23  4  0
 20 24  4  0
 23 26  1  0
M  END
$$$$

 Created by Python create_sdf_string function

 26 30  0  0  0  0  0  0  0  0999 V2000
   10.0084   -1.8019   23.4945 C   0  0  0  0  0  0  0  0  0  0  0  0
   10.0005   -4.2520   16.5631 C   0  0  0  0  0  0  0  0  0  0  0  0
   10.2759   -4.0036   17.8845 C   0  0  0  0  0  0  0  0  0  0  0  0
    8.5652    1.5478   25.3778 N   0  0  0  0  0  0  0  0  0  0  0  0
    6.8048   -7.5457   17.8752 C   0  0  0  0  0  0  0  0  0  0  0  0
    6.1721   -8.2186   15.9886 N   0  0  0  0  0  0  0  0  0  0  0  0
   11.1764   -2.6600   19.5604 C   0  0  0  0  0  0  0  0  0  0  0  0
    9.5491   -0.6380   24.1912 C   0  0  0  0  0  0  0  0  0  0  0  0
    7.5337   -6.9256   16.9519 C   0  0  0  0  0  0  0  0  0  0  0  0
    9.6782    0.5671   23.5143 C   0  0  0  0  0  0  0  0  0  0  0  0
    8.4532    0.3482   26.0821 C   0  0  0  0  0  0  0  0  0  0  0  0
   10.4239   -1.7677   22.2230 N   0  0  0  0  0  0  0  0  0  0  0  0
    9.9468   -4.5953   20.1709 C   0  0  0  0  0  0  0  0  0  0  0  0
   10.0366   -3.0590   23.9864 N   0  0  0  0  0  0  0  0  0  0  0  0
    7.1191   -7.3636   15.7739 C   0  0  0  0  0  0  0  0  0  0  0  0
    5.9612   -8.3203   17.2732 N   0  0  0  0  0  0  0  0  0  0  0  0
    8.5296   -5.9814   17.1841 C   0  0  0  0  0  0  0  0  0  0  0  0
    9.1527   -5.2118   16.2116 C   0  0  0  0  0  0  0  0  0  0  0  0
   10.3364   -3.8368   22.9255 O   0  0  0  0  0  0  0  0  0  0  0  0
    9.6947   -4.8407   18.8534 C   0  0  0  0  0  0  0  0  0  0  0  0
    9.1596    1.7042   24.1381 C   0  0  0  0  0  0  0  0  0  0  0  0
   11.0456   -2.9774   18.2694 N   0  0  0  0  0  0  0  0  0  0  0  0
   10.4788   -3.0457   21.8593 C   0  0  0  0  0  0  0  0  0  0  0  0
    8.8693   -5.8099   18.4657 N   0  0  0  0  0  0  0  0  0  0  0  0
    8.9892   -0.7926   25.4573 C   0  0  0  0  0  0  0  0  0  0  0  0
   10.5677   -3.4462   20.5323 C   0  0  0  0  0  0  0  0  0  0  0  0
  1  8  1  0
  1 12  4  0
  1 14  4  0
  2  3  4  0
  2 18  4  0
  3 20  4  0
  3 22  4  0
  4 11  4  0
  4 21  4  0
  5  9  4  0
  5 16  4  0
  6 15  4  0
  6 16  4  0
  7 22  4  0
  7 26  4  0
  8 10  4  0
  8 25  4  0
  9 15  4  0
  9 17  1  0
 10 21  4  0
 11 25  4  0
 12 23  4  0
 13 20  4  0
 13 26  4  0
 14 19  4  0
 17 18  4  0
 17 24  4  0
 19 23  4  0
 20 24  4  0
 23 26  1  0
M  END
$$$$

 Created by Python create_sdf_string function

 26 30  0  0  0  0  0  0  0  0999 V2000
   10.0084   -1.8019   23.4945 C   0  0  0  0  0  0  0  0  0  0  0  0
   10.0005   -4.2520   16.5631 C   0  0  0  0  0  0  0  0  0  0  0  0
   10.2759   -4.0036   17.8845 C   0  0  0  0  0  0  0  0  0  0  0  0
    8.5652    1.5478   25.3778 N   0  0  0  0  0  0  0  0  0  0  0  0
    6.8048   -7.5457   17.8752 C   0  0  0  0  0  0  0  0  0  0  0  0
    6.1721   -8.2186   15.9886 N   0  0  0  0  0  0  0  0  0  0  0  0
   11.1764   -2.6600   19.5604 C   0  0  0  0  0  0  0  0  0  0  0  0
    9.5491   -0.6380   24.1912 C   0  0  0  0  0  0  0  0  0  0  0  0
    7.5337   -6.9256   16.9519 C   0  0  0  0  0  0  0  0  0  0  0  0
    9.6782    0.5671   23.5143 C   0  0  0  0  0  0  0  0  0  0  0  0
    8.4532    0.3482   26.0821 C   0  0  0  0  0  0  0  0  0  0  0  0
   10.4239   -1.7677   22.2230 N   0  0  0  0  0  0  0  0  0  0  0  0
    9.9468   -4.5953   20.1709 C   0  0  0  0  0  0  0  0  0  0  0  0
   10.0366   -3.0590   23.9864 N   0  0  0  0  0  0  0  0  0  0  0  0
    7.1191   -7.3636   15.7739 C   0  0  0  0  0  0  0  0  0  0  0  0
    5.9612   -8.3203   17.2732 N   0  0  0  0  0  0  0  0  0  0  0  0
    8.5296   -5.9814   17.1841 C   0  0  0  0  0  0  0  0  0  0  0  0
    9.1527   -5.2118   16.2116 C   0  0  0  0  0  0  0  0  0  0  0  0
   10.3364   -3.8368   22.9255 O   0  0  0  0  0  0  0  0  0  0  0  0
    9.6947   -4.8407   18.8534 C   0  0  0  0  0  0  0  0  0  0  0  0
    9.1596    1.7042   24.1381 C   0  0  0  0  0  0  0  0  0  0  0  0
   11.0456   -2.9774   18.2694 N   0  0  0  0  0  0  0  0  0  0  0  0
   10.4788   -3.0457   21.8593 C   0  0  0  0  0  0  0  0  0  0  0  0
    8.8693   -5.8099   18.4657 N   0  0  0  0  0  0  0  0  0  0  0  0
    8.9892   -0.7926   25.4573 C   0  0  0  0  0  0  0  0  0  0  0  0
   10.5677   -3.4462   20.5323 C   0  0  0  0  0  0  0  0  0  0  0  0
  1  8  1  0
  1 12  4  0
  1 14  4  0
  2  3  4  0
  2 18  4  0
  3 20  4  0
  3 22  4  0
  4 11  4  0
  4 21  4  0
  5  9  4  0
  5 16  4  0
  6 15  4  0
  6 16  4  0
  7 22  4  0
  7 26  4  0
  8 10  4  0
  8 25  4  0
  9 15  4  0
  9 17  1  0
 10 21  4  0
 11 25  4  0
 12 23  4  0
 13 20  4  0
 13 26  4  0
 14 19  4  0
 17 18  4  0
 17 24  4  0
 19 23  4  0
 20 24  4  0
 23 26  1  0
M  END
$$$$

 Created by Python create_sdf_string function

 26 30  0  0  0  0  0  0  0  0999 V2000
   10.0084   -1.8019   23.4945 C   0  0  0  0  0  0  0  0  0  0  0  0
   10.0005   -4.2520   16.5631 C   0  0  0  0  0  0  0  0  0  0  0  0
   10.2759   -4.0036   17.8845 C   0  0  0  0  0  0  0  0  0  0  0  0
    8.5652    1.5478   25.3778 N   0  0  0  0  0  0  0  0  0  0  0  0
    6.8048   -7.5457   17.8752 C   0  0  0  0  0  0  0  0  0  0  0  0
    6.1721   -8.2186   15.9886 N   0  0  0  0  0  0  0  0  0  0  0  0
   11.1764   -2.6600   19.5604 C   0  0  0  0  0  0  0  0  0  0  0  0
    9.5491   -0.6380   24.1912 C   0  0  0  0  0  0  0  0  0  0  0  0
    7.5337   -6.9256   16.9519 C   0  0  0  0  0  0  0  0  0  0  0  0
    9.6782    0.5671   23.5143 C   0  0  0  0  0  0  0  0  0  0  0  0
    8.4532    0.3482   26.0821 C   0  0  0  0  0  0  0  0  0  0  0  0
   10.4239   -1.7677   22.2230 N   0  0  0  0  0  0  0  0  0  0  0  0
    9.9468   -4.5953   20.1709 C   0  0  0  0  0  0  0  0  0  0  0  0
   10.0366   -3.0590   23.9864 N   0  0  0  0  0  0  0  0  0  0  0  0
    7.1191   -7.3636   15.7739 C   0  0  0  0  0  0  0  0  0  0  0  0
    5.9612   -8.3203   17.2732 N   0  0  0  0  0  0  0  0  0  0  0  0
    8.5296   -5.9814   17.1841 C   0  0  0  0  0  0  0  0  0  0  0  0
    9.1527   -5.2118   16.2116 C   0  0  0  0  0  0  0  0  0  0  0  0
   10.3364   -3.8368   22.9255 O   0  0  0  0  0  0  0  0  0  0  0  0
    9.6947   -4.8407   18.8534 C   0  0  0  0  0  0  0  0  0  0  0  0
    9.1596    1.7042   24.1381 C   0  0  0  0  0  0  0  0  0  0  0  0
   11.0456   -2.9774   18.2694 N   0  0  0  0  0  0  0  0  0  0  0  0
   10.4788   -3.0457   21.8593 C   0  0  0  0  0  0  0  0  0  0  0  0
    8.8693   -5.8099   18.4657 N   0  0  0  0  0  0  0  0  0  0  0  0
    8.9892   -0.7926   25.4573 C   0  0  0  0  0  0  0  0  0  0  0  0
   10.5677   -3.4462   20.5323 C   0  0  0  0  0  0  0  0  0  0  0  0
  1  8  1  0
  1 12  4  0
  1 14  4  0
  2  3  4  0
  2 18  4  0
  3 20  4  0
  3 22  4  0
  4 11  4  0
  4 21  4  0
  5  9  4  0
  5 16  4  0
  6 15  4  0
  6 16  4  0
  7 22  4  0
  7 26  4  0
  8 10  4  0
  8 25  4  0
  9 15  4  0
  9 17  1  0
 10 21  4  0
 11 25  4  0
 12 23  4  0
 13 20  4  0
 13 26  4  0
 14 19  4  0
 17 18  4  0
 17 24  4  0
 19 23  4  0
 20 24  4  0
 23 26  1  0
M  END
$$$$

 Created by Python create_sdf_string function

 26 30  0  0  0  0  0  0  0  0999 V2000
   10.0084   -1.8019   23.4945 C   0  0  0  0  0  0  0  0  0  0  0  0
   10.0005   -4.2520   16.5631 C   0  0  0  0  0  0  0  0  0  0  0  0
   10.2759   -4.0036   17.8845 C   0  0  0  0  0  0  0  0  0  0  0  0
    8.5652    1.5478   25.3778 N   0  0  0  0  0  0  0  0  0  0  0  0
    6.8048   -7.5457   17.8752 C   0  0  0  0  0  0  0  0  0  0  0  0
    6.1721   -8.2186   15.9886 N   0  0  0  0  0  0  0  0  0  0  0  0
   11.1764   -2.6600   19.5604 C   0  0  0  0  0  0  0  0  0  0  0  0
    9.5491   -0.6380   24.1912 C   0  0  0  0  0  0  0  0  0  0  0  0
    7.5337   -6.9256   16.9519 C   0  0  0  0  0  0  0  0  0  0  0  0
    9.6782    0.5671   23.5143 C   0  0  0  0  0  0  0  0  0  0  0  0
    8.4532    0.3482   26.0821 C   0  0  0  0  0  0  0  0  0  0  0  0
   10.4239   -1.7677   22.2230 N   0  0  0  0  0  0  0  0  0  0  0  0
    9.9468   -4.5953   20.1709 C   0  0  0  0  0  0  0  0  0  0  0  0
   10.0366   -3.0590   23.9864 N   0  0  0  0  0  0  0  0  0  0  0  0
    7.1191   -7.3636   15.7739 C   0  0  0  0  0  0  0  0  0  0  0  0
    5.9612   -8.3203   17.2732 N   0  0  0  0  0  0  0  0  0  0  0  0
    8.5296   -5.9814   17.1841 C   0  0  0  0  0  0  0  0  0  0  0  0
    9.1527   -5.2118   16.2116 C   0  0  0  0  0  0  0  0  0  0  0  0
   10.3364   -3.8368   22.9255 O   0  0  0  0  0  0  0  0  0  0  0  0
    9.6947   -4.8407   18.8534 C   0  0  0  0  0  0  0  0  0  0  0  0
    9.1596    1.7042   24.1381 C   0  0  0  0  0  0  0  0  0  0  0  0
   11.0456   -2.9774   18.2694 N   0  0  0  0  0  0  0  0  0  0  0  0
   10.4788   -3.0457   21.8593 C   0  0  0  0  0  0  0  0  0  0  0  0
    8.8693   -5.8099   18.4657 N   0  0  0  0  0  0  0  0  0  0  0  0
    8.9892   -0.7926   25.4573 C   0  0  0  0  0  0  0  0  0  0  0  0
   10.5677   -3.4462   20.5323 C   0  0  0  0  0  0  0  0  0  0  0  0
  1  8  1  0
  1 12  4  0
  1 14  4  0
  2  3  4  0
  2 18  4  0
  3 20  4  0
  3 22  4  0
  4 11  4  0
  4 21  4  0
  5  9  4  0
  5 16  4  0
  6 15  4  0
  6 16  4  0
  7 22  4  0
  7 26  4  0
  8 10  4  0
  8 25  4  0
  9 15  4  0
  9 17  1  0
 10 21  4  0
 11 25  4  0
 12 23  4  0
 13 20  4  0
 13 26  4  0
 14 19  4  0
 17 18  4  0
 17 24  4  0
 19 23  4  0
 20 24  4  0
 23 26  1  0
M  END
$$$$

 Created by Python create_sdf_string function

 26 30  0  0  0  0  0  0  0  0999 V2000
   10.0084   -1.8019   23.4945 C   0  0  0  0  0  0  0  0  0  0  0  0
   10.0005   -4.2520   16.5631 C   0  0  0  0  0  0  0  0  0  0  0  0
   10.2759   -4.0036   17.8845 C   0  0  0  0  0  0  0  0  0  0  0  0
    8.5652    1.5478   25.3778 N   0  0  0  0  0  0  0  0  0  0  0  0
    6.8048   -7.5457   17.8752 C   0  0  0  0  0  0  0  0  0  0  0  0
    6.1721   -8.2186   15.9886 N   0  0  0  0  0  0  0  0  0  0  0  0
   11.1764   -2.6600   19.5604 C   0  0  0  0  0  0  0  0  0  0  0  0
    9.5491   -0.6380   24.1912 C   0  0  0  0  0  0  0  0  0  0  0  0
    7.5337   -6.9256   16.9519 C   0  0  0  0  0  0  0  0  0  0  0  0
    9.6782    0.5671   23.5143 C   0  0  0  0  0  0  0  0  0  0  0  0
    8.4532    0.3482   26.0821 C   0  0  0  0  0  0  0  0  0  0  0  0
   10.4239   -1.7677   22.2230 N   0  0  0  0  0  0  0  0  0  0  0  0
    9.9468   -4.5953   20.1709 C   0  0  0  0  0  0  0  0  0  0  0  0
   10.0366   -3.0590   23.9864 N   0  0  0  0  0  0  0  0  0  0  0  0
    7.1191   -7.3636   15.7739 C   0  0  0  0  0  0  0  0  0  0  0  0
    5.9612   -8.3203   17.2732 N   0  0  0  0  0  0  0  0  0  0  0  0
    8.5296   -5.9814   17.1841 C   0  0  0  0  0  0  0  0  0  0  0  0
    9.1527   -5.2118   16.2116 C   0  0  0  0  0  0  0  0  0  0  0  0
   10.3364   -3.8368   22.9255 O   0  0  0  0  0  0  0  0  0  0  0  0
    9.6947   -4.8407   18.8534 C   0  0  0  0  0  0  0  0  0  0  0  0
    9.1596    1.7042   24.1381 C   0  0  0  0  0  0  0  0  0  0  0  0
   11.0456   -2.9774   18.2694 N   0  0  0  0  0  0  0  0  0  0  0  0
   10.4788   -3.0457   21.8593 C   0  0  0  0  0  0  0  0  0  0  0  0
    8.8693   -5.8099   18.4657 N   0  0  0  0  0  0  0  0  0  0  0  0
    8.9892   -0.7926   25.4573 C   0  0  0  0  0  0  0  0  0  0  0  0
   10.5677   -3.4462   20.5323 C   0  0  0  0  0  0  0  0  0  0  0  0
  1  8  1  0
  1 12  4  0
  1 14  4  0
  2  3  4  0
  2 18  4  0
  3 20  4  0
  3 22  4  0
  4 11  4  0
  4 21  4  0
  5  9  4  0
  5 16  4  0
  6 15  4  0
  6 16  4  0
  7 22  4  0
  7 26  4  0
  8 10  4  0
  8 25  4  0
  9 15  4  0
  9 17  1  0
 10 21  4  0
 11 25  4  0
 12 23  4  0
 13 20  4  0
 13 26  4  0
 14 19  4  0
 17 18  4  0
 17 24  4  0
 19 23  4  0
 20 24  4  0
 23 26  1  0
M  END
$$$$

 Created by Python create_sdf_string function

 26 30  0  0  0  0  0  0  0  0999 V2000
   10.0084   -1.8019   23.4945 C   0  0  0  0  0  0  0  0  0  0  0  0
   10.0005   -4.2520   16.5631 C   0  0  0  0  0  0  0  0  0  0  0  0
   10.2759   -4.0036   17.8845 C   0  0  0  0  0  0  0  0  0  0  0  0
    8.5652    1.5478   25.3778 N   0  0  0  0  0  0  0  0  0  0  0  0
    6.8048   -7.5457   17.8752 C   0  0  0  0  0  0  0  0  0  0  0  0
    6.1721   -8.2186   15.9886 N   0  0  0  0  0  0  0  0  0  0  0  0
   11.1764   -2.6600   19.5604 C   0  0  0  0  0  0  0  0  0  0  0  0
    9.5491   -0.6380   24.1912 C   0  0  0  0  0  0  0  0  0  0  0  0
    7.5337   -6.9256   16.9519 C   0  0  0  0  0  0  0  0  0  0  0  0
    9.6782    0.5671   23.5143 C   0  0  0  0  0  0  0  0  0  0  0  0
    8.4532    0.3482   26.0821 C   0  0  0  0  0  0  0  0  0  0  0  0
   10.4239   -1.7677   22.2230 N   0  0  0  0  0  0  0  0  0  0  0  0
    9.9468   -4.5953   20.1709 C   0  0  0  0  0  0  0  0  0  0  0  0
   10.0366   -3.0590   23.9864 N   0  0  0  0  0  0  0  0  0  0  0  0
    7.1191   -7.3636   15.7739 C   0  0  0  0  0  0  0  0  0  0  0  0
    5.9612   -8.3203   17.2732 N   0  0  0  0  0  0  0  0  0  0  0  0
    8.5296   -5.9814   17.1841 C   0  0  0  0  0  0  0  0  0  0  0  0
    9.1527   -5.2118   16.2116 C   0  0  0  0  0  0  0  0  0  0  0  0
   10.3364   -3.8368   22.9255 O   0  0  0  0  0  0  0  0  0  0  0  0
    9.6947   -4.8407   18.8534 C   0  0  0  0  0  0  0  0  0  0  0  0
    9.1596    1.7042   24.1381 C   0  0  0  0  0  0  0  0  0  0  0  0
   11.0456   -2.9774   18.2694 N   0  0  0  0  0  0  0  0  0  0  0  0
   10.4788   -3.0457   21.8593 C   0  0  0  0  0  0  0  0  0  0  0  0
    8.8693   -5.8099   18.4657 N   0  0  0  0  0  0  0  0  0  0  0  0
    8.9892   -0.7926   25.4573 C   0  0  0  0  0  0  0  0  0  0  0  0
   10.5677   -3.4462   20.5323 C   0  0  0  0  0  0  0  0  0  0  0  0
  1  8  1  0
  1 12  4  0
  1 14  4  0
  2  3  4  0
  2 18  4  0
  3 20  4  0
  3 22  4  0
  4 11  4  0
  4 21  4  0
  5  9  4  0
  5 16  4  0
  6 15  4  0
  6 16  4  0
  7 22  4  0
  7 26  4  0
  8 10  4  0
  8 25  4  0
  9 15  4  0
  9 17  1  0
 10 21  4  0
 11 25  4  0
 12 23  4  0
 13 20  4  0
 13 26  4  0
 14 19  4  0
 17 18  4  0
 17 24  4  0
 19 23  4  0
 20 24  4  0
 23 26  1  0
M  END
$$$$

 Created by Python create_sdf_string function

 26 30  0  0  0  0  0  0  0  0999 V2000
   10.0084   -1.8019   23.4945 C   0  0  0  0  0  0  0  0  0  0  0  0
   10.0005   -4.2520   16.5631 C   0  0  0  0  0  0  0  0  0  0  0  0
   10.2759   -4.0036   17.8845 C   0  0  0  0  0  0  0  0  0  0  0  0
    8.5652    1.5478   25.3778 N   0  0  0  0  0  0  0  0  0  0  0  0
    6.8048   -7.5457   17.8752 C   0  0  0  0  0  0  0  0  0  0  0  0
    6.1721   -8.2186   15.9886 N   0  0  0  0  0  0  0  0  0  0  0  0
   11.1764   -2.6600   19.5604 C   0  0  0  0  0  0  0  0  0  0  0  0
    9.5491   -0.6380   24.1912 C   0  0  0  0  0  0  0  0  0  0  0  0
    7.5337   -6.9256   16.9519 C   0  0  0  0  0  0  0  0  0  0  0  0
    9.6782    0.5671   23.5143 C   0  0  0  0  0  0  0  0  0  0  0  0
    8.4532    0.3482   26.0821 C   0  0  0  0  0  0  0  0  0  0  0  0
   10.4239   -1.7677   22.2230 N   0  0  0  0  0  0  0  0  0  0  0  0
    9.9468   -4.5953   20.1709 C   0  0  0  0  0  0  0  0  0  0  0  0
   10.0366   -3.0590   23.9864 N   0  0  0  0  0  0  0  0  0  0  0  0
    7.1191   -7.3636   15.7739 C   0  0  0  0  0  0  0  0  0  0  0  0
    5.9612   -8.3203   17.2732 N   0  0  0  0  0  0  0  0  0  0  0  0
    8.5296   -5.9814   17.1841 C   0  0  0  0  0  0  0  0  0  0  0  0
    9.1527   -5.2118   16.2116 C   0  0  0  0  0  0  0  0  0  0  0  0
   10.3364   -3.8368   22.9255 O   0  0  0  0  0  0  0  0  0  0  0  0
    9.6947   -4.8407   18.8534 C   0  0  0  0  0  0  0  0  0  0  0  0
    9.1596    1.7042   24.1381 C   0  0  0  0  0  0  0  0  0  0  0  0
   11.0456   -2.9774   18.2694 N   0  0  0  0  0  0  0  0  0  0  0  0
   10.4788   -3.0457   21.8593 C   0  0  0  0  0  0  0  0  0  0  0  0
    8.8693   -5.8099   18.4657 N   0  0  0  0  0  0  0  0  0  0  0  0
    8.9892   -0.7926   25.4573 C   0  0  0  0  0  0  0  0  0  0  0  0
   10.5677   -3.4462   20.5323 C   0  0  0  0  0  0  0  0  0  0  0  0
  1  8  1  0
  1 12  4  0
  1 14  4  0
  2  3  4  0
  2 18  4  0
  3 20  4  0
  3 22  4  0
  4 11  4  0
  4 21  4  0
  5  9  4  0
  5 16  4  0
  6 15  4  0
  6 16  4  0
  7 22  4  0
  7 26  4  0
  8 10  4  0
  8 25  4  0
  9 15  4  0
  9 17  1  0
 10 21  4  0
 11 25  4  0
 12 23  4  0
 13 20  4  0
 13 26  4  0
 14 19  4  0
 17 18  4  0
 17 24  4  0
 19 23  4  0
 20 24  4  0
 23 26  1  0
M  END
$$$$

 Created by Python create_sdf_string function

 26 30  0  0  0  0  0  0  0  0999 V2000
   10.0084   -1.8019   23.4945 C   0  0  0  0  0  0  0  0  0  0  0  0
   10.0005   -4.2520   16.5631 C   0  0  0  0  0  0  0  0  0  0  0  0
   10.2759   -4.0036   17.8845 C   0  0  0  0  0  0  0  0  0  0  0  0
    8.5652    1.5478   25.3778 N   0  0  0  0  0  0  0  0  0  0  0  0
    6.8048   -7.5457   17.8752 C   0  0  0  0  0  0  0  0  0  0  0  0
    6.1721   -8.2186   15.9886 N   0  0  0  0  0  0  0  0  0  0  0  0
   11.1764   -2.6600   19.5604 C   0  0  0  0  0  0  0  0  0  0  0  0
    9.5491   -0.6380   24.1912 C   0  0  0  0  0  0  0  0  0  0  0  0
    7.5337   -6.9256   16.9519 C   0  0  0  0  0  0  0  0  0  0  0  0
    9.6782    0.5671   23.5143 C   0  0  0  0  0  0  0  0  0  0  0  0
    8.4532    0.3482   26.0821 C   0  0  0  0  0  0  0  0  0  0  0  0
   10.4239   -1.7677   22.2230 N   0  0  0  0  0  0  0  0  0  0  0  0
    9.9468   -4.5953   20.1709 C   0  0  0  0  0  0  0  0  0  0  0  0
   10.0366   -3.0590   23.9864 N   0  0  0  0  0  0  0  0  0  0  0  0
    7.1191   -7.3636   15.7739 C   0  0  0  0  0  0  0  0  0  0  0  0
    5.9612   -8.3203   17.2732 N   0  0  0  0  0  0  0  0  0  0  0  0
    8.5296   -5.9814   17.1841 C   0  0  0  0  0  0  0  0  0  0  0  0
    9.1527   -5.2118   16.2116 C   0  0  0  0  0  0  0  0  0  0  0  0
   10.3364   -3.8368   22.9255 O   0  0  0  0  0  0  0  0  0  0  0  0
    9.6947   -4.8407   18.8534 C   0  0  0  0  0  0  0  0  0  0  0  0
    9.1596    1.7042   24.1381 C   0  0  0  0  0  0  0  0  0  0  0  0
   11.0456   -2.9774   18.2694 N   0  0  0  0  0  0  0  0  0  0  0  0
   10.4788   -3.0457   21.8593 C   0  0  0  0  0  0  0  0  0  0  0  0
    8.8693   -5.8099   18.4657 N   0  0  0  0  0  0  0  0  0  0  0  0
    8.9892   -0.7926   25.4573 C   0  0  0  0  0  0  0  0  0  0  0  0
   10.5677   -3.4462   20.5323 C   0  0  0  0  0  0  0  0  0  0  0  0
  1  8  1  0
  1 12  4  0
  1 14  4  0
  2  3  4  0
  2 18  4  0
  3 20  4  0
  3 22  4  0
  4 11  4  0
  4 21  4  0
  5  9  4  0
  5 16  4  0
  6 15  4  0
  6 16  4  0
  7 22  4  0
  7 26  4  0
  8 10  4  0
  8 25  4  0
  9 15  4  0
  9 17  1  0
 10 21  4  0
 11 25  4  0
 12 23  4  0
 13 20  4  0
 13 26  4  0
 14 19  4  0
 17 18  4  0
 17 24  4  0
 19 23  4  0
 20 24  4  0
 23 26  1  0
M  END
$$$$

 Created by Python create_sdf_string function

 26 30  0  0  0  0  0  0  0  0999 V2000
   10.0084   -1.8019   23.4945 C   0  0  0  0  0  0  0  0  0  0  0  0
   10.0005   -4.2520   16.5631 C   0  0  0  0  0  0  0  0  0  0  0  0
   10.2759   -4.0036   17.8845 C   0  0  0  0  0  0  0  0  0  0  0  0
    8.5652    1.5478   25.3778 N   0  0  0  0  0  0  0  0  0  0  0  0
    6.8048   -7.5457   17.8752 C   0  0  0  0  0  0  0  0  0  0  0  0
    6.1721   -8.2186   15.9886 N   0  0  0  0  0  0  0  0  0  0  0  0
   11.1764   -2.6600   19.5604 C   0  0  0  0  0  0  0  0  0  0  0  0
    9.5491   -0.6380   24.1912 C   0  0  0  0  0  0  0  0  0  0  0  0
    7.5337   -6.9256   16.9519 C   0  0  0  0  0  0  0  0  0  0  0  0
    9.6782    0.5671   23.5143 C   0  0  0  0  0  0  0  0  0  0  0  0
    8.4532    0.3482   26.0821 C   0  0  0  0  0  0  0  0  0  0  0  0
   10.4239   -1.7677   22.2230 N   0  0  0  0  0  0  0  0  0  0  0  0
    9.9468   -4.5953   20.1709 C   0  0  0  0  0  0  0  0  0  0  0  0
   10.0366   -3.0590   23.9864 N   0  0  0  0  0  0  0  0  0  0  0  0
    7.1191   -7.3636   15.7739 C   0  0  0  0  0  0  0  0  0  0  0  0
    5.9612   -8.3203   17.2732 N   0  0  0  0  0  0  0  0  0  0  0  0
    8.5296   -5.9814   17.1841 C   0  0  0  0  0  0  0  0  0  0  0  0
    9.1527   -5.2118   16.2116 C   0  0  0  0  0  0  0  0  0  0  0  0
   10.3364   -3.8368   22.9255 O   0  0  0  0  0  0  0  0  0  0  0  0
    9.6947   -4.8407   18.8534 C   0  0  0  0  0  0  0  0  0  0  0  0
    9.1596    1.7042   24.1381 C   0  0  0  0  0  0  0  0  0  0  0  0
   11.0456   -2.9774   18.2694 N   0  0  0  0  0  0  0  0  0  0  0  0
   10.4788   -3.0457   21.8593 C   0  0  0  0  0  0  0  0  0  0  0  0
    8.8693   -5.8099   18.4657 N   0  0  0  0  0  0  0  0  0  0  0  0
    8.9892   -0.7926   25.4573 C   0  0  0  0  0  0  0  0  0  0  0  0
   10.5677   -3.4462   20.5323 C   0  0  0  0  0  0  0  0  0  0  0  0
  1  8  1  0
  1 12  4  0
  1 14  4  0
  2  3  4  0
  2 18  4  0
  3 20  4  0
  3 22  4  0
  4 11  4  0
  4 21  4  0
  5  9  4  0
  5 16  4  0
  6 15  4  0
  6 16  4  0
  7 22  4  0
  7 26  4  0
  8 10  4  0
  8 25  4  0
  9 15  4  0
  9 17  1  0
 10 21  4  0
 11 25  4  0
 12 23  4  0
 13 20  4  0
 13 26  4  0
 14 19  4  0
 17 18  4  0
 17 24  4  0
 19 23  4  0
 20 24  4  0
 23 26  1  0
M  END
$$$$

 Created by Python create_sdf_string function

 26 30  0  0  0  0  0  0  0  0999 V2000
   10.0084   -1.8019   23.4945 C   0  0  0  0  0  0  0  0  0  0  0  0
   10.0005   -4.2520   16.5631 C   0  0  0  0  0  0  0  0  0  0  0  0
   10.2759   -4.0036   17.8845 C   0  0  0  0  0  0  0  0  0  0  0  0
    8.5652    1.5478   25.3778 N   0  0  0  0  0  0  0  0  0  0  0  0
    6.8048   -7.5457   17.8752 C   0  0  0  0  0  0  0  0  0  0  0  0
    6.1721   -8.2186   15.9886 N   0  0  0  0  0  0  0  0  0  0  0  0
   11.1764   -2.6600   19.5604 C   0  0  0  0  0  0  0  0  0  0  0  0
    9.5491   -0.6380   24.1912 C   0  0  0  0  0  0  0  0  0  0  0  0
    7.5337   -6.9256   16.9519 C   0  0  0  0  0  0  0  0  0  0  0  0
    9.6782    0.5671   23.5143 C   0  0  0  0  0  0  0  0  0  0  0  0
    8.4532    0.3482   26.0821 C   0  0  0  0  0  0  0  0  0  0  0  0
   10.4239   -1.7677   22.2230 N   0  0  0  0  0  0  0  0  0  0  0  0
    9.9468   -4.5953   20.1709 C   0  0  0  0  0  0  0  0  0  0  0  0
   10.0366   -3.0590   23.9864 N   0  0  0  0  0  0  0  0  0  0  0  0
    7.1191   -7.3636   15.7739 C   0  0  0  0  0  0  0  0  0  0  0  0
    5.9612   -8.3203   17.2732 N   0  0  0  0  0  0  0  0  0  0  0  0
    8.5296   -5.9814   17.1841 C   0  0  0  0  0  0  0  0  0  0  0  0
    9.1527   -5.2118   16.2116 C   0  0  0  0  0  0  0  0  0  0  0  0
   10.3364   -3.8368   22.9255 O   0  0  0  0  0  0  0  0  0  0  0  0
    9.6947   -4.8407   18.8534 C   0  0  0  0  0  0  0  0  0  0  0  0
    9.1596    1.7042   24.1381 C   0  0  0  0  0  0  0  0  0  0  0  0
   11.0456   -2.9774   18.2694 N   0  0  0  0  0  0  0  0  0  0  0  0
   10.4788   -3.0457   21.8593 C   0  0  0  0  0  0  0  0  0  0  0  0
    8.8693   -5.8099   18.4657 N   0  0  0  0  0  0  0  0  0  0  0  0
    8.9892   -0.7926   25.4573 C   0  0  0  0  0  0  0  0  0  0  0  0
   10.5677   -3.4462   20.5323 C   0  0  0  0  0  0  0  0  0  0  0  0
  1  8  1  0
  1 12  4  0
  1 14  4  0
  2  3  4  0
  2 18  4  0
  3 20  4  0
  3 22  4  0
  4 11  4  0
  4 21  4  0
  5  9  4  0
  5 16  4  0
  6 15  4  0
  6 16  4  0
  7 22  4  0
  7 26  4  0
  8 10  4  0
  8 25  4  0
  9 15  4  0
  9 17  1  0
 10 21  4  0
 11 25  4  0
 12 23  4  0
 13 20  4  0
 13 26  4  0
 14 19  4  0
 17 18  4  0
 17 24  4  0
 19 23  4  0
 20 24  4  0
 23 26  1  0
M  END
$$$$

 Created by Python create_sdf_string function

 26 30  0  0  0  0  0  0  0  0999 V2000
   10.0084   -1.8019   23.4945 C   0  0  0  0  0  0  0  0  0  0  0  0
   10.0005   -4.2520   16.5631 C   0  0  0  0  0  0  0  0  0  0  0  0
   10.2759   -4.0036   17.8845 C   0  0  0  0  0  0  0  0  0  0  0  0
    8.5652    1.5478   25.3778 N   0  0  0  0  0  0  0  0  0  0  0  0
    6.8048   -7.5457   17.8752 C   0  0  0  0  0  0  0  0  0  0  0  0
    6.1721   -8.2186   15.9886 N   0  0  0  0  0  0  0  0  0  0  0  0
   11.1764   -2.6600   19.5604 C   0  0  0  0  0  0  0  0  0  0  0  0
    9.5491   -0.6380   24.1912 C   0  0  0  0  0  0  0  0  0  0  0  0
    7.5337   -6.9256   16.9519 C   0  0  0  0  0  0  0  0  0  0  0  0
    9.6782    0.5671   23.5143 C   0  0  0  0  0  0  0  0  0  0  0  0
    8.4532    0.3482   26.0821 C   0  0  0  0  0  0  0  0  0  0  0  0
   10.4239   -1.7677   22.2230 N   0  0  0  0  0  0  0  0  0  0  0  0
    9.9468   -4.5953   20.1709 C   0  0  0  0  0  0  0  0  0  0  0  0
   10.0366   -3.0590   23.9864 N   0  0  0  0  0  0  0  0  0  0  0  0
    7.1191   -7.3636   15.7739 C   0  0  0  0  0  0  0  0  0  0  0  0
    5.9612   -8.3203   17.2732 N   0  0  0  0  0  0  0  0  0  0  0  0
    8.5296   -5.9814   17.1841 C   0  0  0  0  0  0  0  0  0  0  0  0
    9.1527   -5.2118   16.2116 C   0  0  0  0  0  0  0  0  0  0  0  0
   10.3364   -3.8368   22.9255 O   0  0  0  0  0  0  0  0  0  0  0  0
    9.6947   -4.8407   18.8534 C   0  0  0  0  0  0  0  0  0  0  0  0
    9.1596    1.7042   24.1381 C   0  0  0  0  0  0  0  0  0  0  0  0
   11.0456   -2.9774   18.2694 N   0  0  0  0  0  0  0  0  0  0  0  0
   10.4788   -3.0457   21.8593 C   0  0  0  0  0  0  0  0  0  0  0  0
    8.8693   -5.8099   18.4657 N   0  0  0  0  0  0  0  0  0  0  0  0
    8.9892   -0.7926   25.4573 C   0  0  0  0  0  0  0  0  0  0  0  0
   10.5677   -3.4462   20.5323 C   0  0  0  0  0  0  0  0  0  0  0  0
  1  8  1  0
  1 12  4  0
  1 14  4  0
  2  3  4  0
  2 18  4  0
  3 20  4  0
  3 22  4  0
  4 11  4  0
  4 21  4  0
  5  9  4  0
  5 16  4  0
  6 15  4  0
  6 16  4  0
  7 22  4  0
  7 26  4  0
  8 10  4  0
  8 25  4  0
  9 15  4  0
  9 17  1  0
 10 21  4  0
 11 25  4  0
 12 23  4  0
 13 20  4  0
 13 26  4  0
 14 19  4  0
 17 18  4  0
 17 24  4  0
 19 23  4  0
 20 24  4  0
 23 26  1  0
M  END
$$$$

 Created by Python create_sdf_string function

 26 30  0  0  0  0  0  0  0  0999 V2000
   10.0084   -1.8019   23.4945 C   0  0  0  0  0  0  0  0  0  0  0  0
   10.0005   -4.2520   16.5631 C   0  0  0  0  0  0  0  0  0  0  0  0
   10.2759   -4.0036   17.8845 C   0  0  0  0  0  0  0  0  0  0  0  0
    8.5652    1.5478   25.3778 N   0  0  0  0  0  0  0  0  0  0  0  0
    6.8048   -7.5457   17.8752 C   0  0  0  0  0  0  0  0  0  0  0  0
    6.1721   -8.2186   15.9886 N   0  0  0  0  0  0  0  0  0  0  0  0
   11.1764   -2.6600   19.5604 C   0  0  0  0  0  0  0  0  0  0  0  0
    9.5491   -0.6380   24.1912 C   0  0  0  0  0  0  0  0  0  0  0  0
    7.5337   -6.9256   16.9519 C   0  0  0  0  0  0  0  0  0  0  0  0
    9.6782    0.5671   23.5143 C   0  0  0  0  0  0  0  0  0  0  0  0
    8.4532    0.3482   26.0821 C   0  0  0  0  0  0  0  0  0  0  0  0
   10.4239   -1.7677   22.2230 N   0  0  0  0  0  0  0  0  0  0  0  0
    9.9468   -4.5953   20.1709 C   0  0  0  0  0  0  0  0  0  0  0  0
   10.0366   -3.0590   23.9864 N   0  0  0  0  0  0  0  0  0  0  0  0
    7.1191   -7.3636   15.7739 C   0  0  0  0  0  0  0  0  0  0  0  0
    5.9612   -8.3203   17.2732 N   0  0  0  0  0  0  0  0  0  0  0  0
    8.5296   -5.9814   17.1841 C   0  0  0  0  0  0  0  0  0  0  0  0
    9.1527   -5.2118   16.2116 C   0  0  0  0  0  0  0  0  0  0  0  0
   10.3364   -3.8368   22.9255 O   0  0  0  0  0  0  0  0  0  0  0  0
    9.6947   -4.8407   18.8534 C   0  0  0  0  0  0  0  0  0  0  0  0
    9.1596    1.7042   24.1381 C   0  0  0  0  0  0  0  0  0  0  0  0
   11.0456   -2.9774   18.2694 N   0  0  0  0  0  0  0  0  0  0  0  0
   10.4788   -3.0457   21.8593 C   0  0  0  0  0  0  0  0  0  0  0  0
    8.8693   -5.8099   18.4657 N   0  0  0  0  0  0  0  0  0  0  0  0
    8.9892   -0.7926   25.4573 C   0  0  0  0  0  0  0  0  0  0  0  0
   10.5677   -3.4462   20.5323 C   0  0  0  0  0  0  0  0  0  0  0  0
  1  8  1  0
  1 12  4  0
  1 14  4  0
  2  3  4  0
  2 18  4  0
  3 20  4  0
  3 22  4  0
  4 11  4  0
  4 21  4  0
  5  9  4  0
  5 16  4  0
  6 15  4  0
  6 16  4  0
  7 22  4  0
  7 26  4  0
  8 10  4  0
  8 25  4  0
  9 15  4  0
  9 17  1  0
 10 21  4  0
 11 25  4  0
 12 23  4  0
 13 20  4  0
 13 26  4  0
 14 19  4  0
 17 18  4  0
 17 24  4  0
 19 23  4  0
 20 24  4  0
 23 26  1  0
M  END
$$$$

 Created by Python create_sdf_string function

 26 30  0  0  0  0  0  0  0  0999 V2000
   10.0084   -1.8019   23.4945 C   0  0  0  0  0  0  0  0  0  0  0  0
   10.0005   -4.2520   16.5631 C   0  0  0  0  0  0  0  0  0  0  0  0
   10.2759   -4.0036   17.8845 C   0  0  0  0  0  0  0  0  0  0  0  0
    8.5652    1.5478   25.3778 N   0  0  0  0  0  0  0  0  0  0  0  0
    6.8048   -7.5457   17.8752 C   0  0  0  0  0  0  0  0  0  0  0  0
    6.1721   -8.2186   15.9886 N   0  0  0  0  0  0  0  0  0  0  0  0
   11.1764   -2.6600   19.5604 C   0  0  0  0  0  0  0  0  0  0  0  0
    9.5491   -0.6380   24.1912 C   0  0  0  0  0  0  0  0  0  0  0  0
    7.5337   -6.9256   16.9519 C   0  0  0  0  0  0  0  0  0  0  0  0
    9.6782    0.5671   23.5143 C   0  0  0  0  0  0  0  0  0  0  0  0
    8.4532    0.3482   26.0821 C   0  0  0  0  0  0  0  0  0  0  0  0
   10.4239   -1.7677   22.2230 N   0  0  0  0  0  0  0  0  0  0  0  0
    9.9468   -4.5953   20.1709 C   0  0  0  0  0  0  0  0  0  0  0  0
   10.0366   -3.0590   23.9864 N   0  0  0  0  0  0  0  0  0  0  0  0
    7.1191   -7.3636   15.7739 C   0  0  0  0  0  0  0  0  0  0  0  0
    5.9612   -8.3203   17.2732 N   0  0  0  0  0  0  0  0  0  0  0  0
    8.5296   -5.9814   17.1841 C   0  0  0  0  0  0  0  0  0  0  0  0
    9.1527   -5.2118   16.2116 C   0  0  0  0  0  0  0  0  0  0  0  0
   10.3364   -3.8368   22.9255 O   0  0  0  0  0  0  0  0  0  0  0  0
    9.6947   -4.8407   18.8534 C   0  0  0  0  0  0  0  0  0  0  0  0
    9.1596    1.7042   24.1381 C   0  0  0  0  0  0  0  0  0  0  0  0
   11.0456   -2.9774   18.2694 N   0  0  0  0  0  0  0  0  0  0  0  0
   10.4788   -3.0457   21.8593 C   0  0  0  0  0  0  0  0  0  0  0  0
    8.8693   -5.8099   18.4657 N   0  0  0  0  0  0  0  0  0  0  0  0
    8.9892   -0.7926   25.4573 C   0  0  0  0  0  0  0  0  0  0  0  0
   10.5677   -3.4462   20.5323 C   0  0  0  0  0  0  0  0  0  0  0  0
  1  8  1  0
  1 12  4  0
  1 14  4  0
  2  3  4  0
  2 18  4  0
  3 20  4  0
  3 22  4  0
  4 11  4  0
  4 21  4  0
  5  9  4  0
  5 16  4  0
  6 15  4  0
  6 16  4  0
  7 22  4  0
  7 26  4  0
  8 10  4  0
  8 25  4  0
  9 15  4  0
  9 17  1  0
 10 21  4  0
 11 25  4  0
 12 23  4  0
 13 20  4  0
 13 26  4  0
 14 19  4  0
 17 18  4  0
 17 24  4  0
 19 23  4  0
 20 24  4  0
 23 26  1  0
M  END
$$$$

 Created by Python create_sdf_string function

 26 30  0  0  0  0  0  0  0  0999 V2000
   10.0084   -1.8019   23.4945 C   0  0  0  0  0  0  0  0  0  0  0  0
   10.0005   -4.2520   16.5631 C   0  0  0  0  0  0  0  0  0  0  0  0
   10.2759   -4.0036   17.8845 C   0  0  0  0  0  0  0  0  0  0  0  0
    8.5652    1.5478   25.3778 N   0  0  0  0  0  0  0  0  0  0  0  0
    6.8048   -7.5457   17.8752 C   0  0  0  0  0  0  0  0  0  0  0  0
    6.1721   -8.2186   15.9886 N   0  0  0  0  0  0  0  0  0  0  0  0
   11.1764   -2.6600   19.5604 C   0  0  0  0  0  0  0  0  0  0  0  0
    9.5491   -0.6380   24.1912 C   0  0  0  0  0  0  0  0  0  0  0  0
    7.5337   -6.9256   16.9519 C   0  0  0  0  0  0  0  0  0  0  0  0
    9.6782    0.5671   23.5143 C   0  0  0  0  0  0  0  0  0  0  0  0
    8.4532    0.3482   26.0821 C   0  0  0  0  0  0  0  0  0  0  0  0
   10.4239   -1.7677   22.2230 N   0  0  0  0  0  0  0  0  0  0  0  0
    9.9468   -4.5953   20.1709 C   0  0  0  0  0  0  0  0  0  0  0  0
   10.0366   -3.0590   23.9864 N   0  0  0  0  0  0  0  0  0  0  0  0
    7.1191   -7.3636   15.7739 C   0  0  0  0  0  0  0  0  0  0  0  0
    5.9612   -8.3203   17.2732 N   0  0  0  0  0  0  0  0  0  0  0  0
    8.5296   -5.9814   17.1841 C   0  0  0  0  0  0  0  0  0  0  0  0
    9.1527   -5.2118   16.2116 C   0  0  0  0  0  0  0  0  0  0  0  0
   10.3364   -3.8368   22.9255 O   0  0  0  0  0  0  0  0  0  0  0  0
    9.6947   -4.8407   18.8534 C   0  0  0  0  0  0  0  0  0  0  0  0
    9.1596    1.7042   24.1381 C   0  0  0  0  0  0  0  0  0  0  0  0
   11.0456   -2.9774   18.2694 N   0  0  0  0  0  0  0  0  0  0  0  0
   10.4788   -3.0457   21.8593 C   0  0  0  0  0  0  0  0  0  0  0  0
    8.8693   -5.8099   18.4657 N   0  0  0  0  0  0  0  0  0  0  0  0
    8.9892   -0.7926   25.4573 C   0  0  0  0  0  0  0  0  0  0  0  0
   10.5677   -3.4462   20.5323 C   0  0  0  0  0  0  0  0  0  0  0  0
  1  8  1  0
  1 12  4  0
  1 14  4  0
  2  3  4  0
  2 18  4  0
  3 20  4  0
  3 22  4  0
  4 11  4  0
  4 21  4  0
  5  9  4  0
  5 16  4  0
  6 15  4  0
  6 16  4  0
  7 22  4  0
  7 26  4  0
  8 10  4  0
  8 25  4  0
  9 15  4  0
  9 17  1  0
 10 21  4  0
 11 25  4  0
 12 23  4  0
 13 20  4  0
 13 26  4  0
 14 19  4  0
 17 18  4  0
 17 24  4  0
 19 23  4  0
 20 24  4  0
 23 26  1  0
M  END
$$$$

 Created by Python create_sdf_string function

 26 30  0  0  0  0  0  0  0  0999 V2000
   10.0084   -1.8019   23.4945 C   0  0  0  0  0  0  0  0  0  0  0  0
   10.0005   -4.2520   16.5631 C   0  0  0  0  0  0  0  0  0  0  0  0
   10.2759   -4.0036   17.8845 C   0  0  0  0  0  0  0  0  0  0  0  0
    8.5652    1.5478   25.3778 N   0  0  0  0  0  0  0  0  0  0  0  0
    6.8048   -7.5457   17.8752 C   0  0  0  0  0  0  0  0  0  0  0  0
    6.1721   -8.2186   15.9886 N   0  0  0  0  0  0  0  0  0  0  0  0
   11.1764   -2.6600   19.5604 C   0  0  0  0  0  0  0  0  0  0  0  0
    9.5491   -0.6380   24.1912 C   0  0  0  0  0  0  0  0  0  0  0  0
    7.5337   -6.9256   16.9519 C   0  0  0  0  0  0  0  0  0  0  0  0
    9.6782    0.5671   23.5143 C   0  0  0  0  0  0  0  0  0  0  0  0
    8.4532    0.3482   26.0821 C   0  0  0  0  0  0  0  0  0  0  0  0
   10.4239   -1.7677   22.2230 N   0  0  0  0  0  0  0  0  0  0  0  0
    9.9468   -4.5953   20.1709 C   0  0  0  0  0  0  0  0  0  0  0  0
   10.0366   -3.0590   23.9864 N   0  0  0  0  0  0  0  0  0  0  0  0
    7.1191   -7.3636   15.7739 C   0  0  0  0  0  0  0  0  0  0  0  0
    5.9612   -8.3203   17.2732 N   0  0  0  0  0  0  0  0  0  0  0  0
    8.5296   -5.9814   17.1841 C   0  0  0  0  0  0  0  0  0  0  0  0
    9.1527   -5.2118   16.2116 C   0  0  0  0  0  0  0  0  0  0  0  0
   10.3364   -3.8368   22.9255 O   0  0  0  0  0  0  0  0  0  0  0  0
    9.6947   -4.8407   18.8534 C   0  0  0  0  0  0  0  0  0  0  0  0
    9.1596    1.7042   24.1381 C   0  0  0  0  0  0  0  0  0  0  0  0
   11.0456   -2.9774   18.2694 N   0  0  0  0  0  0  0  0  0  0  0  0
   10.4788   -3.0457   21.8593 C   0  0  0  0  0  0  0  0  0  0  0  0
    8.8693   -5.8099   18.4657 N   0  0  0  0  0  0  0  0  0  0  0  0
    8.9892   -0.7926   25.4573 C   0  0  0  0  0  0  0  0  0  0  0  0
   10.5677   -3.4462   20.5323 C   0  0  0  0  0  0  0  0  0  0  0  0
  1  8  1  0
  1 12  4  0
  1 14  4  0
  2  3  4  0
  2 18  4  0
  3 20  4  0
  3 22  4  0
  4 11  4  0
  4 21  4  0
  5  9  4  0
  5 16  4  0
  6 15  4  0
  6 16  4  0
  7 22  4  0
  7 26  4  0
  8 10  4  0
  8 25  4  0
  9 15  4  0
  9 17  1  0
 10 21  4  0
 11 25  4  0
 12 23  4  0
 13 20  4  0
 13 26  4  0
 14 19  4  0
 17 18  4  0
 17 24  4  0
 19 23  4  0
 20 24  4  0
 23 26  1  0
M  END
$$$$

 Created by Python create_sdf_string function

 26 30  0  0  0  0  0  0  0  0999 V2000
   10.0084   -1.8019   23.4945 C   0  0  0  0  0  0  0  0  0  0  0  0
   10.0005   -4.2520   16.5631 C   0  0  0  0  0  0  0  0  0  0  0  0
   10.2759   -4.0036   17.8845 C   0  0  0  0  0  0  0  0  0  0  0  0
    8.5652    1.5478   25.3778 N   0  0  0  0  0  0  0  0  0  0  0  0
    6.8048   -7.5457   17.8752 C   0  0  0  0  0  0  0  0  0  0  0  0
    6.1721   -8.2186   15.9886 N   0  0  0  0  0  0  0  0  0  0  0  0
   11.1764   -2.6600   19.5604 C   0  0  0  0  0  0  0  0  0  0  0  0
    9.5491   -0.6380   24.1912 C   0  0  0  0  0  0  0  0  0  0  0  0
    7.5337   -6.9256   16.9519 C   0  0  0  0  0  0  0  0  0  0  0  0
    9.6782    0.5671   23.5143 C   0  0  0  0  0  0  0  0  0  0  0  0
    8.4532    0.3482   26.0821 C   0  0  0  0  0  0  0  0  0  0  0  0
   10.4239   -1.7677   22.2230 N   0  0  0  0  0  0  0  0  0  0  0  0
    9.9468   -4.5953   20.1709 C   0  0  0  0  0  0  0  0  0  0  0  0
   10.0366   -3.0590   23.9864 N   0  0  0  0  0  0  0  0  0  0  0  0
    7.1191   -7.3636   15.7739 C   0  0  0  0  0  0  0  0  0  0  0  0
    5.9612   -8.3203   17.2732 N   0  0  0  0  0  0  0  0  0  0  0  0
    8.5296   -5.9814   17.1841 C   0  0  0  0  0  0  0  0  0  0  0  0
    9.1527   -5.2118   16.2116 C   0  0  0  0  0  0  0  0  0  0  0  0
   10.3364   -3.8368   22.9255 O   0  0  0  0  0  0  0  0  0  0  0  0
    9.6947   -4.8407   18.8534 C   0  0  0  0  0  0  0  0  0  0  0  0
    9.1596    1.7042   24.1381 C   0  0  0  0  0  0  0  0  0  0  0  0
   11.0456   -2.9774   18.2694 N   0  0  0  0  0  0  0  0  0  0  0  0
   10.4788   -3.0457   21.8593 C   0  0  0  0  0  0  0  0  0  0  0  0
    8.8693   -5.8099   18.4657 N   0  0  0  0  0  0  0  0  0  0  0  0
    8.9892   -0.7926   25.4573 C   0  0  0  0  0  0  0  0  0  0  0  0
   10.5677   -3.4462   20.5323 C   0  0  0  0  0  0  0  0  0  0  0  0
  1  8  1  0
  1 12  4  0
  1 14  4  0
  2  3  4  0
  2 18  4  0
  3 20  4  0
  3 22  4  0
  4 11  4  0
  4 21  4  0
  5  9  4  0
  5 16  4  0
  6 15  4  0
  6 16  4  0
  7 22  4  0
  7 26  4  0
  8 10  4  0
  8 25  4  0
  9 15  4  0
  9 17  1  0
 10 21  4  0
 11 25  4  0
 12 23  4  0
 13 20  4  0
 13 26  4  0
 14 19  4  0
 17 18  4  0
 17 24  4  0
 19 23  4  0
 20 24  4  0
 23 26  1  0
M  END
$$$$

 Created by Python create_sdf_string function

 26 30  0  0  0  0  0  0  0  0999 V2000
   10.0084   -1.8019   23.4945 C   0  0  0  0  0  0  0  0  0  0  0  0
   10.0005   -4.2520   16.5631 C   0  0  0  0  0  0  0  0  0  0  0  0
   10.2759   -4.0036   17.8845 C   0  0  0  0  0  0  0  0  0  0  0  0
    8.5652    1.5478   25.3778 N   0  0  0  0  0  0  0  0  0  0  0  0
    6.8048   -7.5457   17.8752 C   0  0  0  0  0  0  0  0  0  0  0  0
    6.1721   -8.2186   15.9886 N   0  0  0  0  0  0  0  0  0  0  0  0
   11.1764   -2.6600   19.5604 C   0  0  0  0  0  0  0  0  0  0  0  0
    9.5491   -0.6380   24.1912 C   0  0  0  0  0  0  0  0  0  0  0  0
    7.5337   -6.9256   16.9519 C   0  0  0  0  0  0  0  0  0  0  0  0
    9.6782    0.5671   23.5143 C   0  0  0  0  0  0  0  0  0  0  0  0
    8.4532    0.3482   26.0821 C   0  0  0  0  0  0  0  0  0  0  0  0
   10.4239   -1.7677   22.2230 N   0  0  0  0  0  0  0  0  0  0  0  0
    9.9468   -4.5953   20.1709 C   0  0  0  0  0  0  0  0  0  0  0  0
   10.0366   -3.0590   23.9864 N   0  0  0  0  0  0  0  0  0  0  0  0
    7.1191   -7.3636   15.7739 C   0  0  0  0  0  0  0  0  0  0  0  0
    5.9612   -8.3203   17.2732 N   0  0  0  0  0  0  0  0  0  0  0  0
    8.5296   -5.9814   17.1841 C   0  0  0  0  0  0  0  0  0  0  0  0
    9.1527   -5.2118   16.2116 C   0  0  0  0  0  0  0  0  0  0  0  0
   10.3364   -3.8368   22.9255 O   0  0  0  0  0  0  0  0  0  0  0  0
    9.6947   -4.8407   18.8534 C   0  0  0  0  0  0  0  0  0  0  0  0
    9.1596    1.7042   24.1381 C   0  0  0  0  0  0  0  0  0  0  0  0
   11.0456   -2.9774   18.2694 N   0  0  0  0  0  0  0  0  0  0  0  0
   10.4788   -3.0457   21.8593 C   0  0  0  0  0  0  0  0  0  0  0  0
    8.8693   -5.8099   18.4657 N   0  0  0  0  0  0  0  0  0  0  0  0
    8.9892   -0.7926   25.4573 C   0  0  0  0  0  0  0  0  0  0  0  0
   10.5677   -3.4462   20.5323 C   0  0  0  0  0  0  0  0  0  0  0  0
  1  8  1  0
  1 12  4  0
  1 14  4  0
  2  3  4  0
  2 18  4  0
  3 20  4  0
  3 22  4  0
  4 11  4  0
  4 21  4  0
  5  9  4  0
  5 16  4  0
  6 15  4  0
  6 16  4  0
  7 22  4  0
  7 26  4  0
  8 10  4  0
  8 25  4  0
  9 15  4  0
  9 17  1  0
 10 21  4  0
 11 25  4  0
 12 23  4  0
 13 20  4  0
 13 26  4  0
 14 19  4  0
 17 18  4  0
 17 24  4  0
 19 23  4  0
 20 24  4  0
 23 26  1  0
M  END
$$$$

 Created by Python create_sdf_string function

 26 30  0  0  0  0  0  0  0  0999 V2000
   10.0084   -1.8019   23.4945 C   0  0  0  0  0  0  0  0  0  0  0  0
   10.0005   -4.2520   16.5631 C   0  0  0  0  0  0  0  0  0  0  0  0
   10.2759   -4.0036   17.8845 C   0  0  0  0  0  0  0  0  0  0  0  0
    8.5652    1.5478   25.3778 N   0  0  0  0  0  0  0  0  0  0  0  0
    6.8048   -7.5457   17.8752 C   0  0  0  0  0  0  0  0  0  0  0  0
    6.1721   -8.2186   15.9886 N   0  0  0  0  0  0  0  0  0  0  0  0
   11.1764   -2.6600   19.5604 C   0  0  0  0  0  0  0  0  0  0  0  0
    9.5491   -0.6380   24.1912 C   0  0  0  0  0  0  0  0  0  0  0  0
    7.5337   -6.9256   16.9519 C   0  0  0  0  0  0  0  0  0  0  0  0
    9.6782    0.5671   23.5143 C   0  0  0  0  0  0  0  0  0  0  0  0
    8.4532    0.3482   26.0821 C   0  0  0  0  0  0  0  0  0  0  0  0
   10.4239   -1.7677   22.2230 N   0  0  0  0  0  0  0  0  0  0  0  0
    9.9468   -4.5953   20.1709 C   0  0  0  0  0  0  0  0  0  0  0  0
   10.0366   -3.0590   23.9864 N   0  0  0  0  0  0  0  0  0  0  0  0
    7.1191   -7.3636   15.7739 C   0  0  0  0  0  0  0  0  0  0  0  0
    5.9612   -8.3203   17.2732 N   0  0  0  0  0  0  0  0  0  0  0  0
    8.5296   -5.9814   17.1841 C   0  0  0  0  0  0  0  0  0  0  0  0
    9.1527   -5.2118   16.2116 C   0  0  0  0  0  0  0  0  0  0  0  0
   10.3364   -3.8368   22.9255 O   0  0  0  0  0  0  0  0  0  0  0  0
    9.6947   -4.8407   18.8534 C   0  0  0  0  0  0  0  0  0  0  0  0
    9.1596    1.7042   24.1381 C   0  0  0  0  0  0  0  0  0  0  0  0
   11.0456   -2.9774   18.2694 N   0  0  0  0  0  0  0  0  0  0  0  0
   10.4788   -3.0457   21.8593 C   0  0  0  0  0  0  0  0  0  0  0  0
    8.8693   -5.8099   18.4657 N   0  0  0  0  0  0  0  0  0  0  0  0
    8.9892   -0.7926   25.4573 C   0  0  0  0  0  0  0  0  0  0  0  0
   10.5677   -3.4462   20.5323 C   0  0  0  0  0  0  0  0  0  0  0  0
  1  8  1  0
  1 12  4  0
  1 14  4  0
  2  3  4  0
  2 18  4  0
  3 20  4  0
  3 22  4  0
  4 11  4  0
  4 21  4  0
  5  9  4  0
  5 16  4  0
  6 15  4  0
  6 16  4  0
  7 22  4  0
  7 26  4  0
  8 10  4  0
  8 25  4  0
  9 15  4  0
  9 17  1  0
 10 21  4  0
 11 25  4  0
 12 23  4  0
 13 20  4  0
 13 26  4  0
 14 19  4  0
 17 18  4  0
 17 24  4  0
 19 23  4  0
 20 24  4  0
 23 26  1  0
M  END
$$$$

 Created by Python create_sdf_string function

 26 30  0  0  0  0  0  0  0  0999 V2000
   10.0084   -1.8019   23.4945 C   0  0  0  0  0  0  0  0  0  0  0  0
   10.0005   -4.2520   16.5631 C   0  0  0  0  0  0  0  0  0  0  0  0
   10.2759   -4.0036   17.8845 C   0  0  0  0  0  0  0  0  0  0  0  0
    8.5652    1.5478   25.3778 N   0  0  0  0  0  0  0  0  0  0  0  0
    6.8048   -7.5457   17.8752 C   0  0  0  0  0  0  0  0  0  0  0  0
    6.1721   -8.2186   15.9886 N   0  0  0  0  0  0  0  0  0  0  0  0
   11.1764   -2.6600   19.5604 C   0  0  0  0  0  0  0  0  0  0  0  0
    9.5491   -0.6380   24.1912 C   0  0  0  0  0  0  0  0  0  0  0  0
    7.5337   -6.9256   16.9519 C   0  0  0  0  0  0  0  0  0  0  0  0
    9.6782    0.5671   23.5143 C   0  0  0  0  0  0  0  0  0  0  0  0
    8.4532    0.3482   26.0821 C   0  0  0  0  0  0  0  0  0  0  0  0
   10.4239   -1.7677   22.2230 N   0  0  0  0  0  0  0  0  0  0  0  0
    9.9468   -4.5953   20.1709 C   0  0  0  0  0  0  0  0  0  0  0  0
   10.0366   -3.0590   23.9864 N   0  0  0  0  0  0  0  0  0  0  0  0
    7.1191   -7.3636   15.7739 C   0  0  0  0  0  0  0  0  0  0  0  0
    5.9612   -8.3203   17.2732 N   0  0  0  0  0  0  0  0  0  0  0  0
    8.5296   -5.9814   17.1841 C   0  0  0  0  0  0  0  0  0  0  0  0
    9.1527   -5.2118   16.2116 C   0  0  0  0  0  0  0  0  0  0  0  0
   10.3364   -3.8368   22.9255 O   0  0  0  0  0  0  0  0  0  0  0  0
    9.6947   -4.8407   18.8534 C   0  0  0  0  0  0  0  0  0  0  0  0
    9.1596    1.7042   24.1381 C   0  0  0  0  0  0  0  0  0  0  0  0
   11.0456   -2.9774   18.2694 N   0  0  0  0  0  0  0  0  0  0  0  0
   10.4788   -3.0457   21.8593 C   0  0  0  0  0  0  0  0  0  0  0  0
    8.8693   -5.8099   18.4657 N   0  0  0  0  0  0  0  0  0  0  0  0
    8.9892   -0.7926   25.4573 C   0  0  0  0  0  0  0  0  0  0  0  0
   10.5677   -3.4462   20.5323 C   0  0  0  0  0  0  0  0  0  0  0  0
  1  8  1  0
  1 12  4  0
  1 14  4  0
  2  3  4  0
  2 18  4  0
  3 20  4  0
  3 22  4  0
  4 11  4  0
  4 21  4  0
  5  9  4  0
  5 16  4  0
  6 15  4  0
  6 16  4  0
  7 22  4  0
  7 26  4  0
  8 10  4  0
  8 25  4  0
  9 15  4  0
  9 17  1  0
 10 21  4  0
 11 25  4  0
 12 23  4  0
 13 20  4  0
 13 26  4  0
 14 19  4  0
 17 18  4  0
 17 24  4  0
 19 23  4  0
 20 24  4  0
 23 26  1  0
M  END
$$$$

 Created by Python create_sdf_string function

 26 30  0  0  0  0  0  0  0  0999 V2000
   10.0084   -1.8019   23.4945 C   0  0  0  0  0  0  0  0  0  0  0  0
   10.0005   -4.2520   16.5631 C   0  0  0  0  0  0  0  0  0  0  0  0
   10.2759   -4.0036   17.8845 C   0  0  0  0  0  0  0  0  0  0  0  0
    8.5652    1.5478   25.3778 N   0  0  0  0  0  0  0  0  0  0  0  0
    6.8048   -7.5457   17.8752 C   0  0  0  0  0  0  0  0  0  0  0  0
    6.1721   -8.2186   15.9886 N   0  0  0  0  0  0  0  0  0  0  0  0
   11.1764   -2.6600   19.5604 C   0  0  0  0  0  0  0  0  0  0  0  0
    9.5491   -0.6380   24.1912 C   0  0  0  0  0  0  0  0  0  0  0  0
    7.5337   -6.9256   16.9519 C   0  0  0  0  0  0  0  0  0  0  0  0
    9.6782    0.5671   23.5143 C   0  0  0  0  0  0  0  0  0  0  0  0
    8.4532    0.3482   26.0821 C   0  0  0  0  0  0  0  0  0  0  0  0
   10.4239   -1.7677   22.2230 N   0  0  0  0  0  0  0  0  0  0  0  0
    9.9468   -4.5953   20.1709 C   0  0  0  0  0  0  0  0  0  0  0  0
   10.0366   -3.0590   23.9864 N   0  0  0  0  0  0  0  0  0  0  0  0
    7.1191   -7.3636   15.7739 C   0  0  0  0  0  0  0  0  0  0  0  0
    5.9612   -8.3203   17.2732 N   0  0  0  0  0  0  0  0  0  0  0  0
    8.5296   -5.9814   17.1841 C   0  0  0  0  0  0  0  0  0  0  0  0
    9.1527   -5.2118   16.2116 C   0  0  0  0  0  0  0  0  0  0  0  0
   10.3364   -3.8368   22.9255 O   0  0  0  0  0  0  0  0  0  0  0  0
    9.6947   -4.8407   18.8534 C   0  0  0  0  0  0  0  0  0  0  0  0
    9.1596    1.7042   24.1381 C   0  0  0  0  0  0  0  0  0  0  0  0
   11.0456   -2.9774   18.2694 N   0  0  0  0  0  0  0  0  0  0  0  0
   10.4788   -3.0457   21.8593 C   0  0  0  0  0  0  0  0  0  0  0  0
    8.8693   -5.8099   18.4657 N   0  0  0  0  0  0  0  0  0  0  0  0
    8.9892   -0.7926   25.4573 C   0  0  0  0  0  0  0  0  0  0  0  0
   10.5677   -3.4462   20.5323 C   0  0  0  0  0  0  0  0  0  0  0  0
  1  8  1  0
  1 12  4  0
  1 14  4  0
  2  3  4  0
  2 18  4  0
  3 20  4  0
  3 22  4  0
  4 11  4  0
  4 21  4  0
  5  9  4  0
  5 16  4  0
  6 15  4  0
  6 16  4  0
  7 22  4  0
  7 26  4  0
  8 10  4  0
  8 25  4  0
  9 15  4  0
  9 17  1  0
 10 21  4  0
 11 25  4  0
 12 23  4  0
 13 20  4  0
 13 26  4  0
 14 19  4  0
 17 18  4  0
 17 24  4  0
 19 23  4  0
 20 24  4  0
 23 26  1  0
M  END
$$$$

 Created by Python create_sdf_string function

 26 30  0  0  0  0  0  0  0  0999 V2000
   10.0084   -1.8019   23.4945 C   0  0  0  0  0  0  0  0  0  0  0  0
   10.0005   -4.2520   16.5631 C   0  0  0  0  0  0  0  0  0  0  0  0
   10.2759   -4.0036   17.8845 C   0  0  0  0  0  0  0  0  0  0  0  0
    8.5652    1.5478   25.3778 N   0  0  0  0  0  0  0  0  0  0  0  0
    6.8048   -7.5457   17.8752 C   0  0  0  0  0  0  0  0  0  0  0  0
    6.1721   -8.2186   15.9886 N   0  0  0  0  0  0  0  0  0  0  0  0
   11.1764   -2.6600   19.5604 C   0  0  0  0  0  0  0  0  0  0  0  0
    9.5491   -0.6380   24.1912 C   0  0  0  0  0  0  0  0  0  0  0  0
    7.5337   -6.9256   16.9519 C   0  0  0  0  0  0  0  0  0  0  0  0
    9.6782    0.5671   23.5143 C   0  0  0  0  0  0  0  0  0  0  0  0
    8.4532    0.3482   26.0821 C   0  0  0  0  0  0  0  0  0  0  0  0
   10.4239   -1.7677   22.2230 N   0  0  0  0  0  0  0  0  0  0  0  0
    9.9468   -4.5953   20.1709 C   0  0  0  0  0  0  0  0  0  0  0  0
   10.0366   -3.0590   23.9864 N   0  0  0  0  0  0  0  0  0  0  0  0
    7.1191   -7.3636   15.7739 C   0  0  0  0  0  0  0  0  0  0  0  0
    5.9612   -8.3203   17.2732 N   0  0  0  0  0  0  0  0  0  0  0  0
    8.5296   -5.9814   17.1841 C   0  0  0  0  0  0  0  0  0  0  0  0
    9.1527   -5.2118   16.2116 C   0  0  0  0  0  0  0  0  0  0  0  0
   10.3364   -3.8368   22.9255 O   0  0  0  0  0  0  0  0  0  0  0  0
    9.6947   -4.8407   18.8534 C   0  0  0  0  0  0  0  0  0  0  0  0
    9.1596    1.7042   24.1381 C   0  0  0  0  0  0  0  0  0  0  0  0
   11.0456   -2.9774   18.2694 N   0  0  0  0  0  0  0  0  0  0  0  0
   10.4788   -3.0457   21.8593 C   0  0  0  0  0  0  0  0  0  0  0  0
    8.8693   -5.8099   18.4657 N   0  0  0  0  0  0  0  0  0  0  0  0
    8.9892   -0.7926   25.4573 C   0  0  0  0  0  0  0  0  0  0  0  0
   10.5677   -3.4462   20.5323 C   0  0  0  0  0  0  0  0  0  0  0  0
  1  8  1  0
  1 12  4  0
  1 14  4  0
  2  3  4  0
  2 18  4  0
  3 20  4  0
  3 22  4  0
  4 11  4  0
  4 21  4  0
  5  9  4  0
  5 16  4  0
  6 15  4  0
  6 16  4  0
  7 22  4  0
  7 26  4  0
  8 10  4  0
  8 25  4  0
  9 15  4  0
  9 17  1  0
 10 21  4  0
 11 25  4  0
 12 23  4  0
 13 20  4  0
 13 26  4  0
 14 19  4  0
 17 18  4  0
 17 24  4  0
 19 23  4  0
 20 24  4  0
 23 26  1  0
M  END
$$$$

 Created by Python create_sdf_string function

 26 30  0  0  0  0  0  0  0  0999 V2000
   10.0084   -1.8019   23.4945 C   0  0  0  0  0  0  0  0  0  0  0  0
   10.0005   -4.2520   16.5631 C   0  0  0  0  0  0  0  0  0  0  0  0
   10.2759   -4.0036   17.8845 C   0  0  0  0  0  0  0  0  0  0  0  0
    8.5652    1.5478   25.3778 N   0  0  0  0  0  0  0  0  0  0  0  0
    6.8048   -7.5457   17.8752 C   0  0  0  0  0  0  0  0  0  0  0  0
    6.1721   -8.2186   15.9886 N   0  0  0  0  0  0  0  0  0  0  0  0
   11.1764   -2.6600   19.5604 C   0  0  0  0  0  0  0  0  0  0  0  0
    9.5491   -0.6380   24.1912 C   0  0  0  0  0  0  0  0  0  0  0  0
    7.5337   -6.9256   16.9519 C   0  0  0  0  0  0  0  0  0  0  0  0
    9.6782    0.5671   23.5143 C   0  0  0  0  0  0  0  0  0  0  0  0
    8.4532    0.3482   26.0821 C   0  0  0  0  0  0  0  0  0  0  0  0
   10.4239   -1.7677   22.2230 N   0  0  0  0  0  0  0  0  0  0  0  0
    9.9468   -4.5953   20.1709 C   0  0  0  0  0  0  0  0  0  0  0  0
   10.0366   -3.0590   23.9864 N   0  0  0  0  0  0  0  0  0  0  0  0
    7.1191   -7.3636   15.7739 C   0  0  0  0  0  0  0  0  0  0  0  0
    5.9612   -8.3203   17.2732 N   0  0  0  0  0  0  0  0  0  0  0  0
    8.5296   -5.9814   17.1841 C   0  0  0  0  0  0  0  0  0  0  0  0
    9.1527   -5.2118   16.2116 C   0  0  0  0  0  0  0  0  0  0  0  0
   10.3364   -3.8368   22.9255 O   0  0  0  0  0  0  0  0  0  0  0  0
    9.6947   -4.8407   18.8534 C   0  0  0  0  0  0  0  0  0  0  0  0
    9.1596    1.7042   24.1381 C   0  0  0  0  0  0  0  0  0  0  0  0
   11.0456   -2.9774   18.2694 N   0  0  0  0  0  0  0  0  0  0  0  0
   10.4788   -3.0457   21.8593 C   0  0  0  0  0  0  0  0  0  0  0  0
    8.8693   -5.8099   18.4657 N   0  0  0  0  0  0  0  0  0  0  0  0
    8.9892   -0.7926   25.4573 C   0  0  0  0  0  0  0  0  0  0  0  0
   10.5677   -3.4462   20.5323 C   0  0  0  0  0  0  0  0  0  0  0  0
  1  8  1  0
  1 12  4  0
  1 14  4  0
  2  3  4  0
  2 18  4  0
  3 20  4  0
  3 22  4  0
  4 11  4  0
  4 21  4  0
  5  9  4  0
  5 16  4  0
  6 15  4  0
  6 16  4  0
  7 22  4  0
  7 26  4  0
  8 10  4  0
  8 25  4  0
  9 15  4  0
  9 17  1  0
 10 21  4  0
 11 25  4  0
 12 23  4  0
 13 20  4  0
 13 26  4  0
 14 19  4  0
 17 18  4  0
 17 24  4  0
 19 23  4  0
 20 24  4  0
 23 26  1  0
M  END
$$$$

 Created by Python create_sdf_string function

 26 30  0  0  0  0  0  0  0  0999 V2000
   10.0084   -1.8019   23.4945 C   0  0  0  0  0  0  0  0  0  0  0  0
   10.0005   -4.2520   16.5631 C   0  0  0  0  0  0  0  0  0  0  0  0
   10.2759   -4.0036   17.8845 C   0  0  0  0  0  0  0  0  0  0  0  0
    8.5652    1.5478   25.3778 N   0  0  0  0  0  0  0  0  0  0  0  0
    6.8048   -7.5457   17.8752 C   0  0  0  0  0  0  0  0  0  0  0  0
    6.1721   -8.2186   15.9886 N   0  0  0  0  0  0  0  0  0  0  0  0
   11.1764   -2.6600   19.5604 C   0  0  0  0  0  0  0  0  0  0  0  0
    9.5491   -0.6380   24.1912 C   0  0  0  0  0  0  0  0  0  0  0  0
    7.5337   -6.9256   16.9519 C   0  0  0  0  0  0  0  0  0  0  0  0
    9.6782    0.5671   23.5143 C   0  0  0  0  0  0  0  0  0  0  0  0
    8.4532    0.3482   26.0821 C   0  0  0  0  0  0  0  0  0  0  0  0
   10.4239   -1.7677   22.2230 N   0  0  0  0  0  0  0  0  0  0  0  0
    9.9468   -4.5953   20.1709 C   0  0  0  0  0  0  0  0  0  0  0  0
   10.0366   -3.0590   23.9864 N   0  0  0  0  0  0  0  0  0  0  0  0
    7.1191   -7.3636   15.7739 C   0  0  0  0  0  0  0  0  0  0  0  0
    5.9612   -8.3203   17.2732 N   0  0  0  0  0  0  0  0  0  0  0  0
    8.5296   -5.9814   17.1841 C   0  0  0  0  0  0  0  0  0  0  0  0
    9.1527   -5.2118   16.2116 C   0  0  0  0  0  0  0  0  0  0  0  0
   10.3364   -3.8368   22.9255 O   0  0  0  0  0  0  0  0  0  0  0  0
    9.6947   -4.8407   18.8534 C   0  0  0  0  0  0  0  0  0  0  0  0
    9.1596    1.7042   24.1381 C   0  0  0  0  0  0  0  0  0  0  0  0
   11.0456   -2.9774   18.2694 N   0  0  0  0  0  0  0  0  0  0  0  0
   10.4788   -3.0457   21.8593 C   0  0  0  0  0  0  0  0  0  0  0  0
    8.8693   -5.8099   18.4657 N   0  0  0  0  0  0  0  0  0  0  0  0
    8.9892   -0.7926   25.4573 C   0  0  0  0  0  0  0  0  0  0  0  0
   10.5677   -3.4462   20.5323 C   0  0  0  0  0  0  0  0  0  0  0  0
  1  8  1  0
  1 12  4  0
  1 14  4  0
  2  3  4  0
  2 18  4  0
  3 20  4  0
  3 22  4  0
  4 11  4  0
  4 21  4  0
  5  9  4  0
  5 16  4  0
  6 15  4  0
  6 16  4  0
  7 22  4  0
  7 26  4  0
  8 10  4  0
  8 25  4  0
  9 15  4  0
  9 17  1  0
 10 21  4  0
 11 25  4  0
 12 23  4  0
 13 20  4  0
 13 26  4  0
 14 19  4  0
 17 18  4  0
 17 24  4  0
 19 23  4  0
 20 24  4  0
 23 26  1  0
M  END
$$$$

 Created by Python create_sdf_string function

 26 30  0  0  0  0  0  0  0  0999 V2000
   10.0084   -1.8019   23.4945 C   0  0  0  0  0  0  0  0  0  0  0  0
   10.0005   -4.2520   16.5631 C   0  0  0  0  0  0  0  0  0  0  0  0
   10.2759   -4.0036   17.8845 C   0  0  0  0  0  0  0  0  0  0  0  0
    8.5652    1.5478   25.3778 N   0  0  0  0  0  0  0  0  0  0  0  0
    6.8048   -7.5457   17.8752 C   0  0  0  0  0  0  0  0  0  0  0  0
    6.1721   -8.2186   15.9886 N   0  0  0  0  0  0  0  0  0  0  0  0
   11.1764   -2.6600   19.5604 C   0  0  0  0  0  0  0  0  0  0  0  0
    9.5491   -0.6380   24.1912 C   0  0  0  0  0  0  0  0  0  0  0  0
    7.5337   -6.9256   16.9519 C   0  0  0  0  0  0  0  0  0  0  0  0
    9.6782    0.5671   23.5143 C   0  0  0  0  0  0  0  0  0  0  0  0
    8.4532    0.3482   26.0821 C   0  0  0  0  0  0  0  0  0  0  0  0
   10.4239   -1.7677   22.2230 N   0  0  0  0  0  0  0  0  0  0  0  0
    9.9468   -4.5953   20.1709 C   0  0  0  0  0  0  0  0  0  0  0  0
   10.0366   -3.0590   23.9864 N   0  0  0  0  0  0  0  0  0  0  0  0
    7.1191   -7.3636   15.7739 C   0  0  0  0  0  0  0  0  0  0  0  0
    5.9612   -8.3203   17.2732 N   0  0  0  0  0  0  0  0  0  0  0  0
    8.5296   -5.9814   17.1841 C   0  0  0  0  0  0  0  0  0  0  0  0
    9.1527   -5.2118   16.2116 C   0  0  0  0  0  0  0  0  0  0  0  0
   10.3364   -3.8368   22.9255 O   0  0  0  0  0  0  0  0  0  0  0  0
    9.6947   -4.8407   18.8534 C   0  0  0  0  0  0  0  0  0  0  0  0
    9.1596    1.7042   24.1381 C   0  0  0  0  0  0  0  0  0  0  0  0
   11.0456   -2.9774   18.2694 N   0  0  0  0  0  0  0  0  0  0  0  0
   10.4788   -3.0457   21.8593 C   0  0  0  0  0  0  0  0  0  0  0  0
    8.8693   -5.8099   18.4657 N   0  0  0  0  0  0  0  0  0  0  0  0
    8.9892   -0.7926   25.4573 C   0  0  0  0  0  0  0  0  0  0  0  0
   10.5677   -3.4462   20.5323 C   0  0  0  0  0  0  0  0  0  0  0  0
  1  8  1  0
  1 12  4  0
  1 14  4  0
  2  3  4  0
  2 18  4  0
  3 20  4  0
  3 22  4  0
  4 11  4  0
  4 21  4  0
  5  9  4  0
  5 16  4  0
  6 15  4  0
  6 16  4  0
  7 22  4  0
  7 26  4  0
  8 10  4  0
  8 25  4  0
  9 15  4  0
  9 17  1  0
 10 21  4  0
 11 25  4  0
 12 23  4  0
 13 20  4  0
 13 26  4  0
 14 19  4  0
 17 18  4  0
 17 24  4  0
 19 23  4  0
 20 24  4  0
 23 26  1  0
M  END
$$$$

 Created by Python create_sdf_string function

 26 30  0  0  0  0  0  0  0  0999 V2000
   10.0084   -1.8019   23.4945 C   0  0  0  0  0  0  0  0  0  0  0  0
   10.0005   -4.2520   16.5631 C   0  0  0  0  0  0  0  0  0  0  0  0
   10.2759   -4.0036   17.8845 C   0  0  0  0  0  0  0  0  0  0  0  0
    8.5652    1.5478   25.3778 N   0  0  0  0  0  0  0  0  0  0  0  0
    6.8048   -7.5457   17.8752 C   0  0  0  0  0  0  0  0  0  0  0  0
    6.1721   -8.2186   15.9886 N   0  0  0  0  0  0  0  0  0  0  0  0
   11.1764   -2.6600   19.5604 C   0  0  0  0  0  0  0  0  0  0  0  0
    9.5491   -0.6380   24.1912 C   0  0  0  0  0  0  0  0  0  0  0  0
    7.5337   -6.9256   16.9519 C   0  0  0  0  0  0  0  0  0  0  0  0
    9.6782    0.5671   23.5143 C   0  0  0  0  0  0  0  0  0  0  0  0
    8.4532    0.3482   26.0821 C   0  0  0  0  0  0  0  0  0  0  0  0
   10.4239   -1.7677   22.2230 N   0  0  0  0  0  0  0  0  0  0  0  0
    9.9468   -4.5953   20.1709 C   0  0  0  0  0  0  0  0  0  0  0  0
   10.0366   -3.0590   23.9864 N   0  0  0  0  0  0  0  0  0  0  0  0
    7.1191   -7.3636   15.7739 C   0  0  0  0  0  0  0  0  0  0  0  0
    5.9612   -8.3203   17.2732 N   0  0  0  0  0  0  0  0  0  0  0  0
    8.5296   -5.9814   17.1841 C   0  0  0  0  0  0  0  0  0  0  0  0
    9.1527   -5.2118   16.2116 C   0  0  0  0  0  0  0  0  0  0  0  0
   10.3364   -3.8368   22.9255 O   0  0  0  0  0  0  0  0  0  0  0  0
    9.6947   -4.8407   18.8534 C   0  0  0  0  0  0  0  0  0  0  0  0
    9.1596    1.7042   24.1381 C   0  0  0  0  0  0  0  0  0  0  0  0
   11.0456   -2.9774   18.2694 N   0  0  0  0  0  0  0  0  0  0  0  0
   10.4788   -3.0457   21.8593 C   0  0  0  0  0  0  0  0  0  0  0  0
    8.8693   -5.8099   18.4657 N   0  0  0  0  0  0  0  0  0  0  0  0
    8.9892   -0.7926   25.4573 C   0  0  0  0  0  0  0  0  0  0  0  0
   10.5677   -3.4462   20.5323 C   0  0  0  0  0  0  0  0  0  0  0  0
  1  8  1  0
  1 12  4  0
  1 14  4  0
  2  3  4  0
  2 18  4  0
  3 20  4  0
  3 22  4  0
  4 11  4  0
  4 21  4  0
  5  9  4  0
  5 16  4  0
  6 15  4  0
  6 16  4  0
  7 22  4  0
  7 26  4  0
  8 10  4  0
  8 25  4  0
  9 15  4  0
  9 17  1  0
 10 21  4  0
 11 25  4  0
 12 23  4  0
 13 20  4  0
 13 26  4  0
 14 19  4  0
 17 18  4  0
 17 24  4  0
 19 23  4  0
 20 24  4  0
 23 26  1  0
M  END
$$$$

 Created by Python create_sdf_string function

 26 30  0  0  0  0  0  0  0  0999 V2000
   10.0084   -1.8019   23.4945 C   0  0  0  0  0  0  0  0  0  0  0  0
   10.0005   -4.2520   16.5631 C   0  0  0  0  0  0  0  0  0  0  0  0
   10.2759   -4.0036   17.8845 C   0  0  0  0  0  0  0  0  0  0  0  0
    8.5652    1.5478   25.3778 N   0  0  0  0  0  0  0  0  0  0  0  0
    6.8048   -7.5457   17.8752 C   0  0  0  0  0  0  0  0  0  0  0  0
    6.1721   -8.2186   15.9886 N   0  0  0  0  0  0  0  0  0  0  0  0
   11.1764   -2.6600   19.5604 C   0  0  0  0  0  0  0  0  0  0  0  0
    9.5491   -0.6380   24.1912 C   0  0  0  0  0  0  0  0  0  0  0  0
    7.5337   -6.9256   16.9519 C   0  0  0  0  0  0  0  0  0  0  0  0
    9.6782    0.5671   23.5143 C   0  0  0  0  0  0  0  0  0  0  0  0
    8.4532    0.3482   26.0821 C   0  0  0  0  0  0  0  0  0  0  0  0
   10.4239   -1.7677   22.2230 N   0  0  0  0  0  0  0  0  0  0  0  0
    9.9468   -4.5953   20.1709 C   0  0  0  0  0  0  0  0  0  0  0  0
   10.0366   -3.0590   23.9864 N   0  0  0  0  0  0  0  0  0  0  0  0
    7.1191   -7.3636   15.7739 C   0  0  0  0  0  0  0  0  0  0  0  0
    5.9612   -8.3203   17.2732 N   0  0  0  0  0  0  0  0  0  0  0  0
    8.5296   -5.9814   17.1841 C   0  0  0  0  0  0  0  0  0  0  0  0
    9.1527   -5.2118   16.2116 C   0  0  0  0  0  0  0  0  0  0  0  0
   10.3364   -3.8368   22.9255 O   0  0  0  0  0  0  0  0  0  0  0  0
    9.6947   -4.8407   18.8534 C   0  0  0  0  0  0  0  0  0  0  0  0
    9.1596    1.7042   24.1381 C   0  0  0  0  0  0  0  0  0  0  0  0
   11.0456   -2.9774   18.2694 N   0  0  0  0  0  0  0  0  0  0  0  0
   10.4788   -3.0457   21.8593 C   0  0  0  0  0  0  0  0  0  0  0  0
    8.8693   -5.8099   18.4657 N   0  0  0  0  0  0  0  0  0  0  0  0
    8.9892   -0.7926   25.4573 C   0  0  0  0  0  0  0  0  0  0  0  0
   10.5677   -3.4462   20.5323 C   0  0  0  0  0  0  0  0  0  0  0  0
  1  8  1  0
  1 12  4  0
  1 14  4  0
  2  3  4  0
  2 18  4  0
  3 20  4  0
  3 22  4  0
  4 11  4  0
  4 21  4  0
  5  9  4  0
  5 16  4  0
  6 15  4  0
  6 16  4  0
  7 22  4  0
  7 26  4  0
  8 10  4  0
  8 25  4  0
  9 15  4  0
  9 17  1  0
 10 21  4  0
 11 25  4  0
 12 23  4  0
 13 20  4  0
 13 26  4  0
 14 19  4  0
 17 18  4  0
 17 24  4  0
 19 23  4  0
 20 24  4  0
 23 26  1  0
M  END
$$$$

 Created by Python create_sdf_string function

 26 30  0  0  0  0  0  0  0  0999 V2000
   10.0084   -1.8019   23.4945 C   0  0  0  0  0  0  0  0  0  0  0  0
   10.0005   -4.2520   16.5631 C   0  0  0  0  0  0  0  0  0  0  0  0
   10.2759   -4.0036   17.8845 C   0  0  0  0  0  0  0  0  0  0  0  0
    8.5652    1.5478   25.3778 N   0  0  0  0  0  0  0  0  0  0  0  0
    6.8048   -7.5457   17.8752 C   0  0  0  0  0  0  0  0  0  0  0  0
    6.1721   -8.2186   15.9886 N   0  0  0  0  0  0  0  0  0  0  0  0
   11.1764   -2.6600   19.5604 C   0  0  0  0  0  0  0  0  0  0  0  0
    9.5491   -0.6380   24.1912 C   0  0  0  0  0  0  0  0  0  0  0  0
    7.5337   -6.9256   16.9519 C   0  0  0  0  0  0  0  0  0  0  0  0
    9.6782    0.5671   23.5143 C   0  0  0  0  0  0  0  0  0  0  0  0
    8.4532    0.3482   26.0821 C   0  0  0  0  0  0  0  0  0  0  0  0
   10.4239   -1.7677   22.2230 N   0  0  0  0  0  0  0  0  0  0  0  0
    9.9468   -4.5953   20.1709 C   0  0  0  0  0  0  0  0  0  0  0  0
   10.0366   -3.0590   23.9864 N   0  0  0  0  0  0  0  0  0  0  0  0
    7.1191   -7.3636   15.7739 C   0  0  0  0  0  0  0  0  0  0  0  0
    5.9612   -8.3203   17.2732 N   0  0  0  0  0  0  0  0  0  0  0  0
    8.5296   -5.9814   17.1841 C   0  0  0  0  0  0  0  0  0  0  0  0
    9.1527   -5.2118   16.2116 C   0  0  0  0  0  0  0  0  0  0  0  0
   10.3364   -3.8368   22.9255 O   0  0  0  0  0  0  0  0  0  0  0  0
    9.6947   -4.8407   18.8534 C   0  0  0  0  0  0  0  0  0  0  0  0
    9.1596    1.7042   24.1381 C   0  0  0  0  0  0  0  0  0  0  0  0
   11.0456   -2.9774   18.2694 N   0  0  0  0  0  0  0  0  0  0  0  0
   10.4788   -3.0457   21.8593 C   0  0  0  0  0  0  0  0  0  0  0  0
    8.8693   -5.8099   18.4657 N   0  0  0  0  0  0  0  0  0  0  0  0
    8.9892   -0.7926   25.4573 C   0  0  0  0  0  0  0  0  0  0  0  0
   10.5677   -3.4462   20.5323 C   0  0  0  0  0  0  0  0  0  0  0  0
  1  8  1  0
  1 12  4  0
  1 14  4  0
  2  3  4  0
  2 18  4  0
  3 20  4  0
  3 22  4  0
  4 11  4  0
  4 21  4  0
  5  9  4  0
  5 16  4  0
  6 15  4  0
  6 16  4  0
  7 22  4  0
  7 26  4  0
  8 10  4  0
  8 25  4  0
  9 15  4  0
  9 17  1  0
 10 21  4  0
 11 25  4  0
 12 23  4  0
 13 20  4  0
 13 26  4  0
 14 19  4  0
 17 18  4  0
 17 24  4  0
 19 23  4  0
 20 24  4  0
 23 26  1  0
M  END
$$$$

 Created by Python create_sdf_string function

 26 30  0  0  0  0  0  0  0  0999 V2000
   10.0084   -1.8019   23.4945 C   0  0  0  0  0  0  0  0  0  0  0  0
   10.0005   -4.2520   16.5631 C   0  0  0  0  0  0  0  0  0  0  0  0
   10.2759   -4.0036   17.8845 C   0  0  0  0  0  0  0  0  0  0  0  0
    8.5652    1.5478   25.3778 N   0  0  0  0  0  0  0  0  0  0  0  0
    6.8048   -7.5457   17.8752 C   0  0  0  0  0  0  0  0  0  0  0  0
    6.1721   -8.2186   15.9886 N   0  0  0  0  0  0  0  0  0  0  0  0
   11.1764   -2.6600   19.5604 C   0  0  0  0  0  0  0  0  0  0  0  0
    9.5491   -0.6380   24.1912 C   0  0  0  0  0  0  0  0  0  0  0  0
    7.5337   -6.9256   16.9519 C   0  0  0  0  0  0  0  0  0  0  0  0
    9.6782    0.5671   23.5143 C   0  0  0  0  0  0  0  0  0  0  0  0
    8.4532    0.3482   26.0821 C   0  0  0  0  0  0  0  0  0  0  0  0
   10.4239   -1.7677   22.2230 N   0  0  0  0  0  0  0  0  0  0  0  0
    9.9468   -4.5953   20.1709 C   0  0  0  0  0  0  0  0  0  0  0  0
   10.0366   -3.0590   23.9864 N   0  0  0  0  0  0  0  0  0  0  0  0
    7.1191   -7.3636   15.7739 C   0  0  0  0  0  0  0  0  0  0  0  0
    5.9612   -8.3203   17.2732 N   0  0  0  0  0  0  0  0  0  0  0  0
    8.5296   -5.9814   17.1841 C   0  0  0  0  0  0  0  0  0  0  0  0
    9.1527   -5.2118   16.2116 C   0  0  0  0  0  0  0  0  0  0  0  0
   10.3364   -3.8368   22.9255 O   0  0  0  0  0  0  0  0  0  0  0  0
    9.6947   -4.8407   18.8534 C   0  0  0  0  0  0  0  0  0  0  0  0
    9.1596    1.7042   24.1381 C   0  0  0  0  0  0  0  0  0  0  0  0
   11.0456   -2.9774   18.2694 N   0  0  0  0  0  0  0  0  0  0  0  0
   10.4788   -3.0457   21.8593 C   0  0  0  0  0  0  0  0  0  0  0  0
    8.8693   -5.8099   18.4657 N   0  0  0  0  0  0  0  0  0  0  0  0
    8.9892   -0.7926   25.4573 C   0  0  0  0  0  0  0  0  0  0  0  0
   10.5677   -3.4462   20.5323 C   0  0  0  0  0  0  0  0  0  0  0  0
  1  8  1  0
  1 12  4  0
  1 14  4  0
  2  3  4  0
  2 18  4  0
  3 20  4  0
  3 22  4  0
  4 11  4  0
  4 21  4  0
  5  9  4  0
  5 16  4  0
  6 15  4  0
  6 16  4  0
  7 22  4  0
  7 26  4  0
  8 10  4  0
  8 25  4  0
  9 15  4  0
  9 17  1  0
 10 21  4  0
 11 25  4  0
 12 23  4  0
 13 20  4  0
 13 26  4  0
 14 19  4  0
 17 18  4  0
 17 24  4  0
 19 23  4  0
 20 24  4  0
 23 26  1  0
M  END
$$$$

 Created by Python create_sdf_string function

 26 30  0  0  0  0  0  0  0  0999 V2000
   10.0084   -1.8019   23.4945 C   0  0  0  0  0  0  0  0  0  0  0  0
   10.0005   -4.2520   16.5631 C   0  0  0  0  0  0  0  0  0  0  0  0
   10.2759   -4.0036   17.8845 C   0  0  0  0  0  0  0  0  0  0  0  0
    8.5652    1.5478   25.3778 N   0  0  0  0  0  0  0  0  0  0  0  0
    6.8048   -7.5457   17.8752 C   0  0  0  0  0  0  0  0  0  0  0  0
    6.1721   -8.2186   15.9886 N   0  0  0  0  0  0  0  0  0  0  0  0
   11.1764   -2.6600   19.5604 C   0  0  0  0  0  0  0  0  0  0  0  0
    9.5491   -0.6380   24.1912 C   0  0  0  0  0  0  0  0  0  0  0  0
    7.5337   -6.9256   16.9519 C   0  0  0  0  0  0  0  0  0  0  0  0
    9.6782    0.5671   23.5143 C   0  0  0  0  0  0  0  0  0  0  0  0
    8.4532    0.3482   26.0821 C   0  0  0  0  0  0  0  0  0  0  0  0
   10.4239   -1.7677   22.2230 N   0  0  0  0  0  0  0  0  0  0  0  0
    9.9468   -4.5953   20.1709 C   0  0  0  0  0  0  0  0  0  0  0  0
   10.0366   -3.0590   23.9864 N   0  0  0  0  0  0  0  0  0  0  0  0
    7.1191   -7.3636   15.7739 C   0  0  0  0  0  0  0  0  0  0  0  0
    5.9612   -8.3203   17.2732 N   0  0  0  0  0  0  0  0  0  0  0  0
    8.5296   -5.9814   17.1841 C   0  0  0  0  0  0  0  0  0  0  0  0
    9.1527   -5.2118   16.2116 C   0  0  0  0  0  0  0  0  0  0  0  0
   10.3364   -3.8368   22.9255 O   0  0  0  0  0  0  0  0  0  0  0  0
    9.6947   -4.8407   18.8534 C   0  0  0  0  0  0  0  0  0  0  0  0
    9.1596    1.7042   24.1381 C   0  0  0  0  0  0  0  0  0  0  0  0
   11.0456   -2.9774   18.2694 N   0  0  0  0  0  0  0  0  0  0  0  0
   10.4788   -3.0457   21.8593 C   0  0  0  0  0  0  0  0  0  0  0  0
    8.8693   -5.8099   18.4657 N   0  0  0  0  0  0  0  0  0  0  0  0
    8.9892   -0.7926   25.4573 C   0  0  0  0  0  0  0  0  0  0  0  0
   10.5677   -3.4462   20.5323 C   0  0  0  0  0  0  0  0  0  0  0  0
  1  8  1  0
  1 12  4  0
  1 14  4  0
  2  3  4  0
  2 18  4  0
  3 20  4  0
  3 22  4  0
  4 11  4  0
  4 21  4  0
  5  9  4  0
  5 16  4  0
  6 15  4  0
  6 16  4  0
  7 22  4  0
  7 26  4  0
  8 10  4  0
  8 25  4  0
  9 15  4  0
  9 17  1  0
 10 21  4  0
 11 25  4  0
 12 23  4  0
 13 20  4  0
 13 26  4  0
 14 19  4  0
 17 18  4  0
 17 24  4  0
 19 23  4  0
 20 24  4  0
 23 26  1  0
M  END
$$$$

 Created by Python create_sdf_string function

 26 30  0  0  0  0  0  0  0  0999 V2000
   10.0084   -1.8019   23.4945 C   0  0  0  0  0  0  0  0  0  0  0  0
   10.0005   -4.2520   16.5631 C   0  0  0  0  0  0  0  0  0  0  0  0
   10.2759   -4.0036   17.8845 C   0  0  0  0  0  0  0  0  0  0  0  0
    8.5652    1.5478   25.3778 N   0  0  0  0  0  0  0  0  0  0  0  0
    6.8048   -7.5457   17.8752 C   0  0  0  0  0  0  0  0  0  0  0  0
    6.1721   -8.2186   15.9886 N   0  0  0  0  0  0  0  0  0  0  0  0
   11.1764   -2.6600   19.5604 C   0  0  0  0  0  0  0  0  0  0  0  0
    9.5491   -0.6380   24.1912 C   0  0  0  0  0  0  0  0  0  0  0  0
    7.5337   -6.9256   16.9519 C   0  0  0  0  0  0  0  0  0  0  0  0
    9.6782    0.5671   23.5143 C   0  0  0  0  0  0  0  0  0  0  0  0
    8.4532    0.3482   26.0821 C   0  0  0  0  0  0  0  0  0  0  0  0
   10.4239   -1.7677   22.2230 N   0  0  0  0  0  0  0  0  0  0  0  0
    9.9468   -4.5953   20.1709 C   0  0  0  0  0  0  0  0  0  0  0  0
   10.0366   -3.0590   23.9864 N   0  0  0  0  0  0  0  0  0  0  0  0
    7.1191   -7.3636   15.7739 C   0  0  0  0  0  0  0  0  0  0  0  0
    5.9612   -8.3203   17.2732 N   0  0  0  0  0  0  0  0  0  0  0  0
    8.5296   -5.9814   17.1841 C   0  0  0  0  0  0  0  0  0  0  0  0
    9.1527   -5.2118   16.2116 C   0  0  0  0  0  0  0  0  0  0  0  0
   10.3364   -3.8368   22.9255 O   0  0  0  0  0  0  0  0  0  0  0  0
    9.6947   -4.8407   18.8534 C   0  0  0  0  0  0  0  0  0  0  0  0
    9.1596    1.7042   24.1381 C   0  0  0  0  0  0  0  0  0  0  0  0
   11.0456   -2.9774   18.2694 N   0  0  0  0  0  0  0  0  0  0  0  0
   10.4788   -3.0457   21.8593 C   0  0  0  0  0  0  0  0  0  0  0  0
    8.8693   -5.8099   18.4657 N   0  0  0  0  0  0  0  0  0  0  0  0
    8.9892   -0.7926   25.4573 C   0  0  0  0  0  0  0  0  0  0  0  0
   10.5677   -3.4462   20.5323 C   0  0  0  0  0  0  0  0  0  0  0  0
  1  8  1  0
  1 12  4  0
  1 14  4  0
  2  3  4  0
  2 18  4  0
  3 20  4  0
  3 22  4  0
  4 11  4  0
  4 21  4  0
  5  9  4  0
  5 16  4  0
  6 15  4  0
  6 16  4  0
  7 22  4  0
  7 26  4  0
  8 10  4  0
  8 25  4  0
  9 15  4  0
  9 17  1  0
 10 21  4  0
 11 25  4  0
 12 23  4  0
 13 20  4  0
 13 26  4  0
 14 19  4  0
 17 18  4  0
 17 24  4  0
 19 23  4  0
 20 24  4  0
 23 26  1  0
M  END
$$$$

 Created by Python create_sdf_string function

 26 30  0  0  0  0  0  0  0  0999 V2000
   10.0084   -1.8019   23.4945 C   0  0  0  0  0  0  0  0  0  0  0  0
   10.0005   -4.2520   16.5631 C   0  0  0  0  0  0  0  0  0  0  0  0
   10.2759   -4.0036   17.8845 C   0  0  0  0  0  0  0  0  0  0  0  0
    8.5652    1.5478   25.3778 N   0  0  0  0  0  0  0  0  0  0  0  0
    6.8048   -7.5457   17.8752 C   0  0  0  0  0  0  0  0  0  0  0  0
    6.1721   -8.2186   15.9886 N   0  0  0  0  0  0  0  0  0  0  0  0
   11.1764   -2.6600   19.5604 C   0  0  0  0  0  0  0  0  0  0  0  0
    9.5491   -0.6380   24.1912 C   0  0  0  0  0  0  0  0  0  0  0  0
    7.5337   -6.9256   16.9519 C   0  0  0  0  0  0  0  0  0  0  0  0
    9.6782    0.5671   23.5143 C   0  0  0  0  0  0  0  0  0  0  0  0
    8.4532    0.3482   26.0821 C   0  0  0  0  0  0  0  0  0  0  0  0
   10.4239   -1.7677   22.2230 N   0  0  0  0  0  0  0  0  0  0  0  0
    9.9468   -4.5953   20.1709 C   0  0  0  0  0  0  0  0  0  0  0  0
   10.0366   -3.0590   23.9864 N   0  0  0  0  0  0  0  0  0  0  0  0
    7.1191   -7.3636   15.7739 C   0  0  0  0  0  0  0  0  0  0  0  0
    5.9612   -8.3203   17.2732 N   0  0  0  0  0  0  0  0  0  0  0  0
    8.5296   -5.9814   17.1841 C   0  0  0  0  0  0  0  0  0  0  0  0
    9.1527   -5.2118   16.2116 C   0  0  0  0  0  0  0  0  0  0  0  0
   10.3364   -3.8368   22.9255 O   0  0  0  0  0  0  0  0  0  0  0  0
    9.6947   -4.8407   18.8534 C   0  0  0  0  0  0  0  0  0  0  0  0
    9.1596    1.7042   24.1381 C   0  0  0  0  0  0  0  0  0  0  0  0
   11.0456   -2.9774   18.2694 N   0  0  0  0  0  0  0  0  0  0  0  0
   10.4788   -3.0457   21.8593 C   0  0  0  0  0  0  0  0  0  0  0  0
    8.8693   -5.8099   18.4657 N   0  0  0  0  0  0  0  0  0  0  0  0
    8.9892   -0.7926   25.4573 C   0  0  0  0  0  0  0  0  0  0  0  0
   10.5677   -3.4462   20.5323 C   0  0  0  0  0  0  0  0  0  0  0  0
  1  8  1  0
  1 12  4  0
  1 14  4  0
  2  3  4  0
  2 18  4  0
  3 20  4  0
  3 22  4  0
  4 11  4  0
  4 21  4  0
  5  9  4  0
  5 16  4  0
  6 15  4  0
  6 16  4  0
  7 22  4  0
  7 26  4  0
  8 10  4  0
  8 25  4  0
  9 15  4  0
  9 17  1  0
 10 21  4  0
 11 25  4  0
 12 23  4  0
 13 20  4  0
 13 26  4  0
 14 19  4  0
 17 18  4  0
 17 24  4  0
 19 23  4  0
 20 24  4  0
 23 26  1  0
M  END
$$$$

 Created by Python create_sdf_string function

 26 30  0  0  0  0  0  0  0  0999 V2000
   10.0084   -1.8019   23.4945 C   0  0  0  0  0  0  0  0  0  0  0  0
   10.0005   -4.2520   16.5631 C   0  0  0  0  0  0  0  0  0  0  0  0
   10.2759   -4.0036   17.8845 C   0  0  0  0  0  0  0  0  0  0  0  0
    8.5652    1.5478   25.3778 N   0  0  0  0  0  0  0  0  0  0  0  0
    6.8048   -7.5457   17.8752 C   0  0  0  0  0  0  0  0  0  0  0  0
    6.1721   -8.2186   15.9886 N   0  0  0  0  0  0  0  0  0  0  0  0
   11.1764   -2.6600   19.5604 C   0  0  0  0  0  0  0  0  0  0  0  0
    9.5491   -0.6380   24.1912 C   0  0  0  0  0  0  0  0  0  0  0  0
    7.5337   -6.9256   16.9519 C   0  0  0  0  0  0  0  0  0  0  0  0
    9.6782    0.5671   23.5143 C   0  0  0  0  0  0  0  0  0  0  0  0
    8.4532    0.3482   26.0821 C   0  0  0  0  0  0  0  0  0  0  0  0
   10.4239   -1.7677   22.2230 N   0  0  0  0  0  0  0  0  0  0  0  0
    9.9468   -4.5953   20.1709 C   0  0  0  0  0  0  0  0  0  0  0  0
   10.0366   -3.0590   23.9864 N   0  0  0  0  0  0  0  0  0  0  0  0
    7.1191   -7.3636   15.7739 C   0  0  0  0  0  0  0  0  0  0  0  0
    5.9612   -8.3203   17.2732 N   0  0  0  0  0  0  0  0  0  0  0  0
    8.5296   -5.9814   17.1841 C   0  0  0  0  0  0  0  0  0  0  0  0
    9.1527   -5.2118   16.2116 C   0  0  0  0  0  0  0  0  0  0  0  0
   10.3364   -3.8368   22.9255 O   0  0  0  0  0  0  0  0  0  0  0  0
    9.6947   -4.8407   18.8534 C   0  0  0  0  0  0  0  0  0  0  0  0
    9.1596    1.7042   24.1381 C   0  0  0  0  0  0  0  0  0  0  0  0
   11.0456   -2.9774   18.2694 N   0  0  0  0  0  0  0  0  0  0  0  0
   10.4788   -3.0457   21.8593 C   0  0  0  0  0  0  0  0  0  0  0  0
    8.8693   -5.8099   18.4657 N   0  0  0  0  0  0  0  0  0  0  0  0
    8.9892   -0.7926   25.4573 C   0  0  0  0  0  0  0  0  0  0  0  0
   10.5677   -3.4462   20.5323 C   0  0  0  0  0  0  0  0  0  0  0  0
  1  8  1  0
  1 12  4  0
  1 14  4  0
  2  3  4  0
  2 18  4  0
  3 20  4  0
  3 22  4  0
  4 11  4  0
  4 21  4  0
  5  9  4  0
  5 16  4  0
  6 15  4  0
  6 16  4  0
  7 22  4  0
  7 26  4  0
  8 10  4  0
  8 25  4  0
  9 15  4  0
  9 17  1  0
 10 21  4  0
 11 25  4  0
 12 23  4  0
 13 20  4  0
 13 26  4  0
 14 19  4  0
 17 18  4  0
 17 24  4  0
 19 23  4  0
 20 24  4  0
 23 26  1  0
M  END
$$$$

 Created by Python create_sdf_string function

 26 30  0  0  0  0  0  0  0  0999 V2000
   10.0084   -1.8019   23.4945 C   0  0  0  0  0  0  0  0  0  0  0  0
   10.0005   -4.2520   16.5631 C   0  0  0  0  0  0  0  0  0  0  0  0
   10.2759   -4.0036   17.8845 C   0  0  0  0  0  0  0  0  0  0  0  0
    8.5652    1.5478   25.3778 N   0  0  0  0  0  0  0  0  0  0  0  0
    6.8048   -7.5457   17.8752 C   0  0  0  0  0  0  0  0  0  0  0  0
    6.1721   -8.2186   15.9886 N   0  0  0  0  0  0  0  0  0  0  0  0
   11.1764   -2.6600   19.5604 C   0  0  0  0  0  0  0  0  0  0  0  0
    9.5491   -0.6380   24.1912 C   0  0  0  0  0  0  0  0  0  0  0  0
    7.5337   -6.9256   16.9519 C   0  0  0  0  0  0  0  0  0  0  0  0
    9.6782    0.5671   23.5143 C   0  0  0  0  0  0  0  0  0  0  0  0
    8.4532    0.3482   26.0821 C   0  0  0  0  0  0  0  0  0  0  0  0
   10.4239   -1.7677   22.2230 N   0  0  0  0  0  0  0  0  0  0  0  0
    9.9468   -4.5953   20.1709 C   0  0  0  0  0  0  0  0  0  0  0  0
   10.0366   -3.0590   23.9864 N   0  0  0  0  0  0  0  0  0  0  0  0
    7.1191   -7.3636   15.7739 C   0  0  0  0  0  0  0  0  0  0  0  0
    5.9612   -8.3203   17.2732 N   0  0  0  0  0  0  0  0  0  0  0  0
    8.5296   -5.9814   17.1841 C   0  0  0  0  0  0  0  0  0  0  0  0
    9.1527   -5.2118   16.2116 C   0  0  0  0  0  0  0  0  0  0  0  0
   10.3364   -3.8368   22.9255 O   0  0  0  0  0  0  0  0  0  0  0  0
    9.6947   -4.8407   18.8534 C   0  0  0  0  0  0  0  0  0  0  0  0
    9.1596    1.7042   24.1381 C   0  0  0  0  0  0  0  0  0  0  0  0
   11.0456   -2.9774   18.2694 N   0  0  0  0  0  0  0  0  0  0  0  0
   10.4788   -3.0457   21.8593 C   0  0  0  0  0  0  0  0  0  0  0  0
    8.8693   -5.8099   18.4657 N   0  0  0  0  0  0  0  0  0  0  0  0
    8.9892   -0.7926   25.4573 C   0  0  0  0  0  0  0  0  0  0  0  0
   10.5677   -3.4462   20.5323 C   0  0  0  0  0  0  0  0  0  0  0  0
  1  8  1  0
  1 12  4  0
  1 14  4  0
  2  3  4  0
  2 18  4  0
  3 20  4  0
  3 22  4  0
  4 11  4  0
  4 21  4  0
  5  9  4  0
  5 16  4  0
  6 15  4  0
  6 16  4  0
  7 22  4  0
  7 26  4  0
  8 10  4  0
  8 25  4  0
  9 15  4  0
  9 17  1  0
 10 21  4  0
 11 25  4  0
 12 23  4  0
 13 20  4  0
 13 26  4  0
 14 19  4  0
 17 18  4  0
 17 24  4  0
 19 23  4  0
 20 24  4  0
 23 26  1  0
M  END
$$$$

 Created by Python create_sdf_string function

 26 30  0  0  0  0  0  0  0  0999 V2000
   10.0084   -1.8019   23.4945 C   0  0  0  0  0  0  0  0  0  0  0  0
   10.0005   -4.2520   16.5631 C   0  0  0  0  0  0  0  0  0  0  0  0
   10.2759   -4.0036   17.8845 C   0  0  0  0  0  0  0  0  0  0  0  0
    8.5652    1.5478   25.3778 N   0  0  0  0  0  0  0  0  0  0  0  0
    6.8048   -7.5457   17.8752 C   0  0  0  0  0  0  0  0  0  0  0  0
    6.1721   -8.2186   15.9886 N   0  0  0  0  0  0  0  0  0  0  0  0
   11.1764   -2.6600   19.5604 C   0  0  0  0  0  0  0  0  0  0  0  0
    9.5491   -0.6380   24.1912 C   0  0  0  0  0  0  0  0  0  0  0  0
    7.5337   -6.9256   16.9519 C   0  0  0  0  0  0  0  0  0  0  0  0
    9.6782    0.5671   23.5143 C   0  0  0  0  0  0  0  0  0  0  0  0
    8.4532    0.3482   26.0821 C   0  0  0  0  0  0  0  0  0  0  0  0
   10.4239   -1.7677   22.2230 N   0  0  0  0  0  0  0  0  0  0  0  0
    9.9468   -4.5953   20.1709 C   0  0  0  0  0  0  0  0  0  0  0  0
   10.0366   -3.0590   23.9864 N   0  0  0  0  0  0  0  0  0  0  0  0
    7.1191   -7.3636   15.7739 C   0  0  0  0  0  0  0  0  0  0  0  0
    5.9612   -8.3203   17.2732 N   0  0  0  0  0  0  0  0  0  0  0  0
    8.5296   -5.9814   17.1841 C   0  0  0  0  0  0  0  0  0  0  0  0
    9.1527   -5.2118   16.2116 C   0  0  0  0  0  0  0  0  0  0  0  0
   10.3364   -3.8368   22.9255 O   0  0  0  0  0  0  0  0  0  0  0  0
    9.6947   -4.8407   18.8534 C   0  0  0  0  0  0  0  0  0  0  0  0
    9.1596    1.7042   24.1381 C   0  0  0  0  0  0  0  0  0  0  0  0
   11.0456   -2.9774   18.2694 N   0  0  0  0  0  0  0  0  0  0  0  0
   10.4788   -3.0457   21.8593 C   0  0  0  0  0  0  0  0  0  0  0  0
    8.8693   -5.8099   18.4657 N   0  0  0  0  0  0  0  0  0  0  0  0
    8.9892   -0.7926   25.4573 C   0  0  0  0  0  0  0  0  0  0  0  0
   10.5677   -3.4462   20.5323 C   0  0  0  0  0  0  0  0  0  0  0  0
  1  8  1  0
  1 12  4  0
  1 14  4  0
  2  3  4  0
  2 18  4  0
  3 20  4  0
  3 22  4  0
  4 11  4  0
  4 21  4  0
  5  9  4  0
  5 16  4  0
  6 15  4  0
  6 16  4  0
  7 22  4  0
  7 26  4  0
  8 10  4  0
  8 25  4  0
  9 15  4  0
  9 17  1  0
 10 21  4  0
 11 25  4  0
 12 23  4  0
 13 20  4  0
 13 26  4  0
 14 19  4  0
 17 18  4  0
 17 24  4  0
 19 23  4  0
 20 24  4  0
 23 26  1  0
M  END
$$$$

 Created by Python create_sdf_string function

 26 30  0  0  0  0  0  0  0  0999 V2000
   10.0084   -1.8019   23.4945 C   0  0  0  0  0  0  0  0  0  0  0  0
   10.0005   -4.2520   16.5631 C   0  0  0  0  0  0  0  0  0  0  0  0
   10.2759   -4.0036   17.8845 C   0  0  0  0  0  0  0  0  0  0  0  0
    8.5652    1.5478   25.3778 N   0  0  0  0  0  0  0  0  0  0  0  0
    6.8048   -7.5457   17.8752 C   0  0  0  0  0  0  0  0  0  0  0  0
    6.1721   -8.2186   15.9886 N   0  0  0  0  0  0  0  0  0  0  0  0
   11.1764   -2.6600   19.5604 C   0  0  0  0  0  0  0  0  0  0  0  0
    9.5491   -0.6380   24.1912 C   0  0  0  0  0  0  0  0  0  0  0  0
    7.5337   -6.9256   16.9519 C   0  0  0  0  0  0  0  0  0  0  0  0
    9.6782    0.5671   23.5143 C   0  0  0  0  0  0  0  0  0  0  0  0
    8.4532    0.3482   26.0821 C   0  0  0  0  0  0  0  0  0  0  0  0
   10.4239   -1.7677   22.2230 N   0  0  0  0  0  0  0  0  0  0  0  0
    9.9468   -4.5953   20.1709 C   0  0  0  0  0  0  0  0  0  0  0  0
   10.0366   -3.0590   23.9864 N   0  0  0  0  0  0  0  0  0  0  0  0
    7.1191   -7.3636   15.7739 C   0  0  0  0  0  0  0  0  0  0  0  0
    5.9612   -8.3203   17.2732 N   0  0  0  0  0  0  0  0  0  0  0  0
    8.5296   -5.9814   17.1841 C   0  0  0  0  0  0  0  0  0  0  0  0
    9.1527   -5.2118   16.2116 C   0  0  0  0  0  0  0  0  0  0  0  0
   10.3364   -3.8368   22.9255 O   0  0  0  0  0  0  0  0  0  0  0  0
    9.6947   -4.8407   18.8534 C   0  0  0  0  0  0  0  0  0  0  0  0
    9.1596    1.7042   24.1381 C   0  0  0  0  0  0  0  0  0  0  0  0
   11.0456   -2.9774   18.2694 N   0  0  0  0  0  0  0  0  0  0  0  0
   10.4788   -3.0457   21.8593 C   0  0  0  0  0  0  0  0  0  0  0  0
    8.8693   -5.8099   18.4657 N   0  0  0  0  0  0  0  0  0  0  0  0
    8.9892   -0.7926   25.4573 C   0  0  0  0  0  0  0  0  0  0  0  0
   10.5677   -3.4462   20.5323 C   0  0  0  0  0  0  0  0  0  0  0  0
  1  8  1  0
  1 12  4  0
  1 14  4  0
  2  3  4  0
  2 18  4  0
  3 20  4  0
  3 22  4  0
  4 11  4  0
  4 21  4  0
  5  9  4  0
  5 16  4  0
  6 15  4  0
  6 16  4  0
  7 22  4  0
  7 26  4  0
  8 10  4  0
  8 25  4  0
  9 15  4  0
  9 17  1  0
 10 21  4  0
 11 25  4  0
 12 23  4  0
 13 20  4  0
 13 26  4  0
 14 19  4  0
 17 18  4  0
 17 24  4  0
 19 23  4  0
 20 24  4  0
 23 26  1  0
M  END
$$$$

 Created by Python create_sdf_string function

 26 30  0  0  0  0  0  0  0  0999 V2000
   10.0084   -1.8019   23.4945 C   0  0  0  0  0  0  0  0  0  0  0  0
   10.0005   -4.2520   16.5631 C   0  0  0  0  0  0  0  0  0  0  0  0
   10.2759   -4.0036   17.8845 C   0  0  0  0  0  0  0  0  0  0  0  0
    8.5652    1.5478   25.3778 N   0  0  0  0  0  0  0  0  0  0  0  0
    6.8048   -7.5457   17.8752 C   0  0  0  0  0  0  0  0  0  0  0  0
    6.1721   -8.2186   15.9886 N   0  0  0  0  0  0  0  0  0  0  0  0
   11.1764   -2.6600   19.5604 C   0  0  0  0  0  0  0  0  0  0  0  0
    9.5491   -0.6380   24.1912 C   0  0  0  0  0  0  0  0  0  0  0  0
    7.5337   -6.9256   16.9519 C   0  0  0  0  0  0  0  0  0  0  0  0
    9.6782    0.5671   23.5143 C   0  0  0  0  0  0  0  0  0  0  0  0
    8.4532    0.3482   26.0821 C   0  0  0  0  0  0  0  0  0  0  0  0
   10.4239   -1.7677   22.2230 N   0  0  0  0  0  0  0  0  0  0  0  0
    9.9468   -4.5953   20.1709 C   0  0  0  0  0  0  0  0  0  0  0  0
   10.0366   -3.0590   23.9864 N   0  0  0  0  0  0  0  0  0  0  0  0
    7.1191   -7.3636   15.7739 C   0  0  0  0  0  0  0  0  0  0  0  0
    5.9612   -8.3203   17.2732 N   0  0  0  0  0  0  0  0  0  0  0  0
    8.5296   -5.9814   17.1841 C   0  0  0  0  0  0  0  0  0  0  0  0
    9.1527   -5.2118   16.2116 C   0  0  0  0  0  0  0  0  0  0  0  0
   10.3364   -3.8368   22.9255 O   0  0  0  0  0  0  0  0  0  0  0  0
    9.6947   -4.8407   18.8534 C   0  0  0  0  0  0  0  0  0  0  0  0
    9.1596    1.7042   24.1381 C   0  0  0  0  0  0  0  0  0  0  0  0
   11.0456   -2.9774   18.2694 N   0  0  0  0  0  0  0  0  0  0  0  0
   10.4788   -3.0457   21.8593 C   0  0  0  0  0  0  0  0  0  0  0  0
    8.8693   -5.8099   18.4657 N   0  0  0  0  0  0  0  0  0  0  0  0
    8.9892   -0.7926   25.4573 C   0  0  0  0  0  0  0  0  0  0  0  0
   10.5677   -3.4462   20.5323 C   0  0  0  0  0  0  0  0  0  0  0  0
  1  8  1  0
  1 12  4  0
  1 14  4  0
  2  3  4  0
  2 18  4  0
  3 20  4  0
  3 22  4  0
  4 11  4  0
  4 21  4  0
  5  9  4  0
  5 16  4  0
  6 15  4  0
  6 16  4  0
  7 22  4  0
  7 26  4  0
  8 10  4  0
  8 25  4  0
  9 15  4  0
  9 17  1  0
 10 21  4  0
 11 25  4  0
 12 23  4  0
 13 20  4  0
 13 26  4  0
 14 19  4  0
 17 18  4  0
 17 24  4  0
 19 23  4  0
 20 24  4  0
 23 26  1  0
M  END
$$$$

 Created by Python create_sdf_string function

 26 30  0  0  0  0  0  0  0  0999 V2000
   10.0084   -1.8019   23.4945 C   0  0  0  0  0  0  0  0  0  0  0  0
   10.0005   -4.2520   16.5631 C   0  0  0  0  0  0  0  0  0  0  0  0
   10.2759   -4.0036   17.8845 C   0  0  0  0  0  0  0  0  0  0  0  0
    8.5652    1.5478   25.3778 N   0  0  0  0  0  0  0  0  0  0  0  0
    6.8048   -7.5457   17.8752 C   0  0  0  0  0  0  0  0  0  0  0  0
    6.1721   -8.2186   15.9886 N   0  0  0  0  0  0  0  0  0  0  0  0
   11.1764   -2.6600   19.5604 C   0  0  0  0  0  0  0  0  0  0  0  0
    9.5491   -0.6380   24.1912 C   0  0  0  0  0  0  0  0  0  0  0  0
    7.5337   -6.9256   16.9519 C   0  0  0  0  0  0  0  0  0  0  0  0
    9.6782    0.5671   23.5143 C   0  0  0  0  0  0  0  0  0  0  0  0
    8.4532    0.3482   26.0821 C   0  0  0  0  0  0  0  0  0  0  0  0
   10.4239   -1.7677   22.2230 N   0  0  0  0  0  0  0  0  0  0  0  0
    9.9468   -4.5953   20.1709 C   0  0  0  0  0  0  0  0  0  0  0  0
   10.0366   -3.0590   23.9864 N   0  0  0  0  0  0  0  0  0  0  0  0
    7.1191   -7.3636   15.7739 C   0  0  0  0  0  0  0  0  0  0  0  0
    5.9612   -8.3203   17.2732 N   0  0  0  0  0  0  0  0  0  0  0  0
    8.5296   -5.9814   17.1841 C   0  0  0  0  0  0  0  0  0  0  0  0
    9.1527   -5.2118   16.2116 C   0  0  0  0  0  0  0  0  0  0  0  0
   10.3364   -3.8368   22.9255 O   0  0  0  0  0  0  0  0  0  0  0  0
    9.6947   -4.8407   18.8534 C   0  0  0  0  0  0  0  0  0  0  0  0
    9.1596    1.7042   24.1381 C   0  0  0  0  0  0  0  0  0  0  0  0
   11.0456   -2.9774   18.2694 N   0  0  0  0  0  0  0  0  0  0  0  0
   10.4788   -3.0457   21.8593 C   0  0  0  0  0  0  0  0  0  0  0  0
    8.8693   -5.8099   18.4657 N   0  0  0  0  0  0  0  0  0  0  0  0
    8.9892   -0.7926   25.4573 C   0  0  0  0  0  0  0  0  0  0  0  0
   10.5677   -3.4462   20.5323 C   0  0  0  0  0  0  0  0  0  0  0  0
  1  8  1  0
  1 12  4  0
  1 14  4  0
  2  3  4  0
  2 18  4  0
  3 20  4  0
  3 22  4  0
  4 11  4  0
  4 21  4  0
  5  9  4  0
  5 16  4  0
  6 15  4  0
  6 16  4  0
  7 22  4  0
  7 26  4  0
  8 10  4  0
  8 25  4  0
  9 15  4  0
  9 17  1  0
 10 21  4  0
 11 25  4  0
 12 23  4  0
 13 20  4  0
 13 26  4  0
 14 19  4  0
 17 18  4  0
 17 24  4  0
 19 23  4  0
 20 24  4  0
 23 26  1  0
M  END
$$$$

 Created by Python create_sdf_string function

 26 30  0  0  0  0  0  0  0  0999 V2000
   10.0084   -1.8019   23.4945 C   0  0  0  0  0  0  0  0  0  0  0  0
   10.0005   -4.2520   16.5631 C   0  0  0  0  0  0  0  0  0  0  0  0
   10.2759   -4.0036   17.8845 C   0  0  0  0  0  0  0  0  0  0  0  0
    8.5652    1.5478   25.3778 N   0  0  0  0  0  0  0  0  0  0  0  0
    6.8048   -7.5457   17.8752 C   0  0  0  0  0  0  0  0  0  0  0  0
    6.1721   -8.2186   15.9886 N   0  0  0  0  0  0  0  0  0  0  0  0
   11.1764   -2.6600   19.5604 C   0  0  0  0  0  0  0  0  0  0  0  0
    9.5491   -0.6380   24.1912 C   0  0  0  0  0  0  0  0  0  0  0  0
    7.5337   -6.9256   16.9519 C   0  0  0  0  0  0  0  0  0  0  0  0
    9.6782    0.5671   23.5143 C   0  0  0  0  0  0  0  0  0  0  0  0
    8.4532    0.3482   26.0821 C   0  0  0  0  0  0  0  0  0  0  0  0
   10.4239   -1.7677   22.2230 N   0  0  0  0  0  0  0  0  0  0  0  0
    9.9468   -4.5953   20.1709 C   0  0  0  0  0  0  0  0  0  0  0  0
   10.0366   -3.0590   23.9864 N   0  0  0  0  0  0  0  0  0  0  0  0
    7.1191   -7.3636   15.7739 C   0  0  0  0  0  0  0  0  0  0  0  0
    5.9612   -8.3203   17.2732 N   0  0  0  0  0  0  0  0  0  0  0  0
    8.5296   -5.9814   17.1841 C   0  0  0  0  0  0  0  0  0  0  0  0
    9.1527   -5.2118   16.2116 C   0  0  0  0  0  0  0  0  0  0  0  0
   10.3364   -3.8368   22.9255 O   0  0  0  0  0  0  0  0  0  0  0  0
    9.6947   -4.8407   18.8534 C   0  0  0  0  0  0  0  0  0  0  0  0
    9.1596    1.7042   24.1381 C   0  0  0  0  0  0  0  0  0  0  0  0
   11.0456   -2.9774   18.2694 N   0  0  0  0  0  0  0  0  0  0  0  0
   10.4788   -3.0457   21.8593 C   0  0  0  0  0  0  0  0  0  0  0  0
    8.8693   -5.8099   18.4657 N   0  0  0  0  0  0  0  0  0  0  0  0
    8.9892   -0.7926   25.4573 C   0  0  0  0  0  0  0  0  0  0  0  0
   10.5677   -3.4462   20.5323 C   0  0  0  0  0  0  0  0  0  0  0  0
  1  8  1  0
  1 12  4  0
  1 14  4  0
  2  3  4  0
  2 18  4  0
  3 20  4  0
  3 22  4  0
  4 11  4  0
  4 21  4  0
  5  9  4  0
  5 16  4  0
  6 15  4  0
  6 16  4  0
  7 22  4  0
  7 26  4  0
  8 10  4  0
  8 25  4  0
  9 15  4  0
  9 17  1  0
 10 21  4  0
 11 25  4  0
 12 23  4  0
 13 20  4  0
 13 26  4  0
 14 19  4  0
 17 18  4  0
 17 24  4  0
 19 23  4  0
 20 24  4  0
 23 26  1  0
M  END
$$$$

 Created by Python create_sdf_string function

 26 30  0  0  0  0  0  0  0  0999 V2000
   10.0084   -1.8019   23.4945 C   0  0  0  0  0  0  0  0  0  0  0  0
   10.0005   -4.2520   16.5631 C   0  0  0  0  0  0  0  0  0  0  0  0
   10.2759   -4.0036   17.8845 C   0  0  0  0  0  0  0  0  0  0  0  0
    8.5652    1.5478   25.3778 N   0  0  0  0  0  0  0  0  0  0  0  0
    6.8048   -7.5457   17.8752 C   0  0  0  0  0  0  0  0  0  0  0  0
    6.1721   -8.2186   15.9886 N   0  0  0  0  0  0  0  0  0  0  0  0
   11.1764   -2.6600   19.5604 C   0  0  0  0  0  0  0  0  0  0  0  0
    9.5491   -0.6380   24.1912 C   0  0  0  0  0  0  0  0  0  0  0  0
    7.5337   -6.9256   16.9519 C   0  0  0  0  0  0  0  0  0  0  0  0
    9.6782    0.5671   23.5143 C   0  0  0  0  0  0  0  0  0  0  0  0
    8.4532    0.3482   26.0821 C   0  0  0  0  0  0  0  0  0  0  0  0
   10.4239   -1.7677   22.2230 N   0  0  0  0  0  0  0  0  0  0  0  0
    9.9468   -4.5953   20.1709 C   0  0  0  0  0  0  0  0  0  0  0  0
   10.0366   -3.0590   23.9864 N   0  0  0  0  0  0  0  0  0  0  0  0
    7.1191   -7.3636   15.7739 C   0  0  0  0  0  0  0  0  0  0  0  0
    5.9612   -8.3203   17.2732 N   0  0  0  0  0  0  0  0  0  0  0  0
    8.5296   -5.9814   17.1841 C   0  0  0  0  0  0  0  0  0  0  0  0
    9.1527   -5.2118   16.2116 C   0  0  0  0  0  0  0  0  0  0  0  0
   10.3364   -3.8368   22.9255 O   0  0  0  0  0  0  0  0  0  0  0  0
    9.6947   -4.8407   18.8534 C   0  0  0  0  0  0  0  0  0  0  0  0
    9.1596    1.7042   24.1381 C   0  0  0  0  0  0  0  0  0  0  0  0
   11.0456   -2.9774   18.2694 N   0  0  0  0  0  0  0  0  0  0  0  0
   10.4788   -3.0457   21.8593 C   0  0  0  0  0  0  0  0  0  0  0  0
    8.8693   -5.8099   18.4657 N   0  0  0  0  0  0  0  0  0  0  0  0
    8.9892   -0.7926   25.4573 C   0  0  0  0  0  0  0  0  0  0  0  0
   10.5677   -3.4462   20.5323 C   0  0  0  0  0  0  0  0  0  0  0  0
  1  8  1  0
  1 12  4  0
  1 14  4  0
  2  3  4  0
  2 18  4  0
  3 20  4  0
  3 22  4  0
  4 11  4  0
  4 21  4  0
  5  9  4  0
  5 16  4  0
  6 15  4  0
  6 16  4  0
  7 22  4  0
  7 26  4  0
  8 10  4  0
  8 25  4  0
  9 15  4  0
  9 17  1  0
 10 21  4  0
 11 25  4  0
 12 23  4  0
 13 20  4  0
 13 26  4  0
 14 19  4  0
 17 18  4  0
 17 24  4  0
 19 23  4  0
 20 24  4  0
 23 26  1  0
M  END
$$$$

 Created by Python create_sdf_string function

 26 30  0  0  0  0  0  0  0  0999 V2000
   10.0084   -1.8019   23.4945 C   0  0  0  0  0  0  0  0  0  0  0  0
   10.0005   -4.2520   16.5631 C   0  0  0  0  0  0  0  0  0  0  0  0
   10.2759   -4.0036   17.8845 C   0  0  0  0  0  0  0  0  0  0  0  0
    8.5652    1.5478   25.3778 N   0  0  0  0  0  0  0  0  0  0  0  0
    6.8048   -7.5457   17.8752 C   0  0  0  0  0  0  0  0  0  0  0  0
    6.1721   -8.2186   15.9886 N   0  0  0  0  0  0  0  0  0  0  0  0
   11.1764   -2.6600   19.5604 C   0  0  0  0  0  0  0  0  0  0  0  0
    9.5491   -0.6380   24.1912 C   0  0  0  0  0  0  0  0  0  0  0  0
    7.5337   -6.9256   16.9519 C   0  0  0  0  0  0  0  0  0  0  0  0
    9.6782    0.5671   23.5143 C   0  0  0  0  0  0  0  0  0  0  0  0
    8.4532    0.3482   26.0821 C   0  0  0  0  0  0  0  0  0  0  0  0
   10.4239   -1.7677   22.2230 N   0  0  0  0  0  0  0  0  0  0  0  0
    9.9468   -4.5953   20.1709 C   0  0  0  0  0  0  0  0  0  0  0  0
   10.0366   -3.0590   23.9864 N   0  0  0  0  0  0  0  0  0  0  0  0
    7.1191   -7.3636   15.7739 C   0  0  0  0  0  0  0  0  0  0  0  0
    5.9612   -8.3203   17.2732 N   0  0  0  0  0  0  0  0  0  0  0  0
    8.5296   -5.9814   17.1841 C   0  0  0  0  0  0  0  0  0  0  0  0
    9.1527   -5.2118   16.2116 C   0  0  0  0  0  0  0  0  0  0  0  0
   10.3364   -3.8368   22.9255 O   0  0  0  0  0  0  0  0  0  0  0  0
    9.6947   -4.8407   18.8534 C   0  0  0  0  0  0  0  0  0  0  0  0
    9.1596    1.7042   24.1381 C   0  0  0  0  0  0  0  0  0  0  0  0
   11.0456   -2.9774   18.2694 N   0  0  0  0  0  0  0  0  0  0  0  0
   10.4788   -3.0457   21.8593 C   0  0  0  0  0  0  0  0  0  0  0  0
    8.8693   -5.8099   18.4657 N   0  0  0  0  0  0  0  0  0  0  0  0
    8.9892   -0.7926   25.4573 C   0  0  0  0  0  0  0  0  0  0  0  0
   10.5677   -3.4462   20.5323 C   0  0  0  0  0  0  0  0  0  0  0  0
  1  8  1  0
  1 12  4  0
  1 14  4  0
  2  3  4  0
  2 18  4  0
  3 20  4  0
  3 22  4  0
  4 11  4  0
  4 21  4  0
  5  9  4  0
  5 16  4  0
  6 15  4  0
  6 16  4  0
  7 22  4  0
  7 26  4  0
  8 10  4  0
  8 25  4  0
  9 15  4  0
  9 17  1  0
 10 21  4  0
 11 25  4  0
 12 23  4  0
 13 20  4  0
 13 26  4  0
 14 19  4  0
 17 18  4  0
 17 24  4  0
 19 23  4  0
 20 24  4  0
 23 26  1  0
M  END
$$$$

 Created by Python create_sdf_string function

 26 30  0  0  0  0  0  0  0  0999 V2000
   10.0084   -1.8019   23.4945 C   0  0  0  0  0  0  0  0  0  0  0  0
   10.0005   -4.2520   16.5631 C   0  0  0  0  0  0  0  0  0  0  0  0
   10.2759   -4.0036   17.8845 C   0  0  0  0  0  0  0  0  0  0  0  0
    8.5652    1.5478   25.3778 N   0  0  0  0  0  0  0  0  0  0  0  0
    6.8048   -7.5457   17.8752 C   0  0  0  0  0  0  0  0  0  0  0  0
    6.1721   -8.2186   15.9886 N   0  0  0  0  0  0  0  0  0  0  0  0
   11.1764   -2.6600   19.5604 C   0  0  0  0  0  0  0  0  0  0  0  0
    9.5491   -0.6380   24.1912 C   0  0  0  0  0  0  0  0  0  0  0  0
    7.5337   -6.9256   16.9519 C   0  0  0  0  0  0  0  0  0  0  0  0
    9.6782    0.5671   23.5143 C   0  0  0  0  0  0  0  0  0  0  0  0
    8.4532    0.3482   26.0821 C   0  0  0  0  0  0  0  0  0  0  0  0
   10.4239   -1.7677   22.2230 N   0  0  0  0  0  0  0  0  0  0  0  0
    9.9468   -4.5953   20.1709 C   0  0  0  0  0  0  0  0  0  0  0  0
   10.0366   -3.0590   23.9864 N   0  0  0  0  0  0  0  0  0  0  0  0
    7.1191   -7.3636   15.7739 C   0  0  0  0  0  0  0  0  0  0  0  0
    5.9612   -8.3203   17.2732 N   0  0  0  0  0  0  0  0  0  0  0  0
    8.5296   -5.9814   17.1841 C   0  0  0  0  0  0  0  0  0  0  0  0
    9.1527   -5.2118   16.2116 C   0  0  0  0  0  0  0  0  0  0  0  0
   10.3364   -3.8368   22.9255 O   0  0  0  0  0  0  0  0  0  0  0  0
    9.6947   -4.8407   18.8534 C   0  0  0  0  0  0  0  0  0  0  0  0
    9.1596    1.7042   24.1381 C   0  0  0  0  0  0  0  0  0  0  0  0
   11.0456   -2.9774   18.2694 N   0  0  0  0  0  0  0  0  0  0  0  0
   10.4788   -3.0457   21.8593 C   0  0  0  0  0  0  0  0  0  0  0  0
    8.8693   -5.8099   18.4657 N   0  0  0  0  0  0  0  0  0  0  0  0
    8.9892   -0.7926   25.4573 C   0  0  0  0  0  0  0  0  0  0  0  0
   10.5677   -3.4462   20.5323 C   0  0  0  0  0  0  0  0  0  0  0  0
  1  8  1  0
  1 12  4  0
  1 14  4  0
  2  3  4  0
  2 18  4  0
  3 20  4  0
  3 22  4  0
  4 11  4  0
  4 21  4  0
  5  9  4  0
  5 16  4  0
  6 15  4  0
  6 16  4  0
  7 22  4  0
  7 26  4  0
  8 10  4  0
  8 25  4  0
  9 15  4  0
  9 17  1  0
 10 21  4  0
 11 25  4  0
 12 23  4  0
 13 20  4  0
 13 26  4  0
 14 19  4  0
 17 18  4  0
 17 24  4  0
 19 23  4  0
 20 24  4  0
 23 26  1  0
M  END
$$$$

 Created by Python create_sdf_string function

 26 30  0  0  0  0  0  0  0  0999 V2000
   10.0084   -1.8019   23.4945 C   0  0  0  0  0  0  0  0  0  0  0  0
   10.0005   -4.2520   16.5631 C   0  0  0  0  0  0  0  0  0  0  0  0
   10.2759   -4.0036   17.8845 C   0  0  0  0  0  0  0  0  0  0  0  0
    8.5652    1.5478   25.3778 N   0  0  0  0  0  0  0  0  0  0  0  0
    6.8048   -7.5457   17.8752 C   0  0  0  0  0  0  0  0  0  0  0  0
    6.1721   -8.2186   15.9886 N   0  0  0  0  0  0  0  0  0  0  0  0
   11.1764   -2.6600   19.5604 C   0  0  0  0  0  0  0  0  0  0  0  0
    9.5491   -0.6380   24.1912 C   0  0  0  0  0  0  0  0  0  0  0  0
    7.5337   -6.9256   16.9519 C   0  0  0  0  0  0  0  0  0  0  0  0
    9.6782    0.5671   23.5143 C   0  0  0  0  0  0  0  0  0  0  0  0
    8.4532    0.3482   26.0821 C   0  0  0  0  0  0  0  0  0  0  0  0
   10.4239   -1.7677   22.2230 N   0  0  0  0  0  0  0  0  0  0  0  0
    9.9468   -4.5953   20.1709 C   0  0  0  0  0  0  0  0  0  0  0  0
   10.0366   -3.0590   23.9864 N   0  0  0  0  0  0  0  0  0  0  0  0
    7.1191   -7.3636   15.7739 C   0  0  0  0  0  0  0  0  0  0  0  0
    5.9612   -8.3203   17.2732 N   0  0  0  0  0  0  0  0  0  0  0  0
    8.5296   -5.9814   17.1841 C   0  0  0  0  0  0  0  0  0  0  0  0
    9.1527   -5.2118   16.2116 C   0  0  0  0  0  0  0  0  0  0  0  0
   10.3364   -3.8368   22.9255 O   0  0  0  0  0  0  0  0  0  0  0  0
    9.6947   -4.8407   18.8534 C   0  0  0  0  0  0  0  0  0  0  0  0
    9.1596    1.7042   24.1381 C   0  0  0  0  0  0  0  0  0  0  0  0
   11.0456   -2.9774   18.2694 N   0  0  0  0  0  0  0  0  0  0  0  0
   10.4788   -3.0457   21.8593 C   0  0  0  0  0  0  0  0  0  0  0  0
    8.8693   -5.8099   18.4657 N   0  0  0  0  0  0  0  0  0  0  0  0
    8.9892   -0.7926   25.4573 C   0  0  0  0  0  0  0  0  0  0  0  0
   10.5677   -3.4462   20.5323 C   0  0  0  0  0  0  0  0  0  0  0  0
  1  8  1  0
  1 12  4  0
  1 14  4  0
  2  3  4  0
  2 18  4  0
  3 20  4  0
  3 22  4  0
  4 11  4  0
  4 21  4  0
  5  9  4  0
  5 16  4  0
  6 15  4  0
  6 16  4  0
  7 22  4  0
  7 26  4  0
  8 10  4  0
  8 25  4  0
  9 15  4  0
  9 17  1  0
 10 21  4  0
 11 25  4  0
 12 23  4  0
 13 20  4  0
 13 26  4  0
 14 19  4  0
 17 18  4  0
 17 24  4  0
 19 23  4  0
 20 24  4  0
 23 26  1  0
M  END
$$$$

 Created by Python create_sdf_string function

 26 30  0  0  0  0  0  0  0  0999 V2000
   10.0084   -1.8019   23.4945 C   0  0  0  0  0  0  0  0  0  0  0  0
   10.0005   -4.2520   16.5631 C   0  0  0  0  0  0  0  0  0  0  0  0
   10.2759   -4.0036   17.8845 C   0  0  0  0  0  0  0  0  0  0  0  0
    8.5652    1.5478   25.3778 N   0  0  0  0  0  0  0  0  0  0  0  0
    6.8048   -7.5457   17.8752 C   0  0  0  0  0  0  0  0  0  0  0  0
    6.1721   -8.2186   15.9886 N   0  0  0  0  0  0  0  0  0  0  0  0
   11.1764   -2.6600   19.5604 C   0  0  0  0  0  0  0  0  0  0  0  0
    9.5491   -0.6380   24.1912 C   0  0  0  0  0  0  0  0  0  0  0  0
    7.5337   -6.9256   16.9519 C   0  0  0  0  0  0  0  0  0  0  0  0
    9.6782    0.5671   23.5143 C   0  0  0  0  0  0  0  0  0  0  0  0
    8.4532    0.3482   26.0821 C   0  0  0  0  0  0  0  0  0  0  0  0
   10.4239   -1.7677   22.2230 N   0  0  0  0  0  0  0  0  0  0  0  0
    9.9468   -4.5953   20.1709 C   0  0  0  0  0  0  0  0  0  0  0  0
   10.0366   -3.0590   23.9864 N   0  0  0  0  0  0  0  0  0  0  0  0
    7.1191   -7.3636   15.7739 C   0  0  0  0  0  0  0  0  0  0  0  0
    5.9612   -8.3203   17.2732 N   0  0  0  0  0  0  0  0  0  0  0  0
    8.5296   -5.9814   17.1841 C   0  0  0  0  0  0  0  0  0  0  0  0
    9.1527   -5.2118   16.2116 C   0  0  0  0  0  0  0  0  0  0  0  0
   10.3364   -3.8368   22.9255 O   0  0  0  0  0  0  0  0  0  0  0  0
    9.6947   -4.8407   18.8534 C   0  0  0  0  0  0  0  0  0  0  0  0
    9.1596    1.7042   24.1381 C   0  0  0  0  0  0  0  0  0  0  0  0
   11.0456   -2.9774   18.2694 N   0  0  0  0  0  0  0  0  0  0  0  0
   10.4788   -3.0457   21.8593 C   0  0  0  0  0  0  0  0  0  0  0  0
    8.8693   -5.8099   18.4657 N   0  0  0  0  0  0  0  0  0  0  0  0
    8.9892   -0.7926   25.4573 C   0  0  0  0  0  0  0  0  0  0  0  0
   10.5677   -3.4462   20.5323 C   0  0  0  0  0  0  0  0  0  0  0  0
  1  8  1  0
  1 12  4  0
  1 14  4  0
  2  3  4  0
  2 18  4  0
  3 20  4  0
  3 22  4  0
  4 11  4  0
  4 21  4  0
  5  9  4  0
  5 16  4  0
  6 15  4  0
  6 16  4  0
  7 22  4  0
  7 26  4  0
  8 10  4  0
  8 25  4  0
  9 15  4  0
  9 17  1  0
 10 21  4  0
 11 25  4  0
 12 23  4  0
 13 20  4  0
 13 26  4  0
 14 19  4  0
 17 18  4  0
 17 24  4  0
 19 23  4  0
 20 24  4  0
 23 26  1  0
M  END
$$$$

 Created by Python create_sdf_string function

 26 30  0  0  0  0  0  0  0  0999 V2000
   10.0084   -1.8019   23.4945 C   0  0  0  0  0  0  0  0  0  0  0  0
   10.0005   -4.2520   16.5631 C   0  0  0  0  0  0  0  0  0  0  0  0
   10.2759   -4.0036   17.8845 C   0  0  0  0  0  0  0  0  0  0  0  0
    8.5652    1.5478   25.3778 N   0  0  0  0  0  0  0  0  0  0  0  0
    6.8048   -7.5457   17.8752 C   0  0  0  0  0  0  0  0  0  0  0  0
    6.1721   -8.2186   15.9886 N   0  0  0  0  0  0  0  0  0  0  0  0
   11.1764   -2.6600   19.5604 C   0  0  0  0  0  0  0  0  0  0  0  0
    9.5491   -0.6380   24.1912 C   0  0  0  0  0  0  0  0  0  0  0  0
    7.5337   -6.9256   16.9519 C   0  0  0  0  0  0  0  0  0  0  0  0
    9.6782    0.5671   23.5143 C   0  0  0  0  0  0  0  0  0  0  0  0
    8.4532    0.3482   26.0821 C   0  0  0  0  0  0  0  0  0  0  0  0
   10.4239   -1.7677   22.2230 N   0  0  0  0  0  0  0  0  0  0  0  0
    9.9468   -4.5953   20.1709 C   0  0  0  0  0  0  0  0  0  0  0  0
   10.0366   -3.0590   23.9864 N   0  0  0  0  0  0  0  0  0  0  0  0
    7.1191   -7.3636   15.7739 C   0  0  0  0  0  0  0  0  0  0  0  0
    5.9612   -8.3203   17.2732 N   0  0  0  0  0  0  0  0  0  0  0  0
    8.5296   -5.9814   17.1841 C   0  0  0  0  0  0  0  0  0  0  0  0
    9.1527   -5.2118   16.2116 C   0  0  0  0  0  0  0  0  0  0  0  0
   10.3364   -3.8368   22.9255 O   0  0  0  0  0  0  0  0  0  0  0  0
    9.6947   -4.8407   18.8534 C   0  0  0  0  0  0  0  0  0  0  0  0
    9.1596    1.7042   24.1381 C   0  0  0  0  0  0  0  0  0  0  0  0
   11.0456   -2.9774   18.2694 N   0  0  0  0  0  0  0  0  0  0  0  0
   10.4788   -3.0457   21.8593 C   0  0  0  0  0  0  0  0  0  0  0  0
    8.8693   -5.8099   18.4657 N   0  0  0  0  0  0  0  0  0  0  0  0
    8.9892   -0.7926   25.4573 C   0  0  0  0  0  0  0  0  0  0  0  0
   10.5677   -3.4462   20.5323 C   0  0  0  0  0  0  0  0  0  0  0  0
  1  8  1  0
  1 12  4  0
  1 14  4  0
  2  3  4  0
  2 18  4  0
  3 20  4  0
  3 22  4  0
  4 11  4  0
  4 21  4  0
  5  9  4  0
  5 16  4  0
  6 15  4  0
  6 16  4  0
  7 22  4  0
  7 26  4  0
  8 10  4  0
  8 25  4  0
  9 15  4  0
  9 17  1  0
 10 21  4  0
 11 25  4  0
 12 23  4  0
 13 20  4  0
 13 26  4  0
 14 19  4  0
 17 18  4  0
 17 24  4  0
 19 23  4  0
 20 24  4  0
 23 26  1  0
M  END
$$$$

 Created by Python create_sdf_string function

 26 30  0  0  0  0  0  0  0  0999 V2000
   10.0084   -1.8019   23.4945 C   0  0  0  0  0  0  0  0  0  0  0  0
   10.0005   -4.2520   16.5631 C   0  0  0  0  0  0  0  0  0  0  0  0
   10.2759   -4.0036   17.8845 C   0  0  0  0  0  0  0  0  0  0  0  0
    8.5652    1.5478   25.3778 N   0  0  0  0  0  0  0  0  0  0  0  0
    6.8048   -7.5457   17.8752 C   0  0  0  0  0  0  0  0  0  0  0  0
    6.1721   -8.2186   15.9886 N   0  0  0  0  0  0  0  0  0  0  0  0
   11.1764   -2.6600   19.5604 C   0  0  0  0  0  0  0  0  0  0  0  0
    9.5491   -0.6380   24.1912 C   0  0  0  0  0  0  0  0  0  0  0  0
    7.5337   -6.9256   16.9519 C   0  0  0  0  0  0  0  0  0  0  0  0
    9.6782    0.5671   23.5143 C   0  0  0  0  0  0  0  0  0  0  0  0
    8.4532    0.3482   26.0821 C   0  0  0  0  0  0  0  0  0  0  0  0
   10.4239   -1.7677   22.2230 N   0  0  0  0  0  0  0  0  0  0  0  0
    9.9468   -4.5953   20.1709 C   0  0  0  0  0  0  0  0  0  0  0  0
   10.0366   -3.0590   23.9864 N   0  0  0  0  0  0  0  0  0  0  0  0
    7.1191   -7.3636   15.7739 C   0  0  0  0  0  0  0  0  0  0  0  0
    5.9612   -8.3203   17.2732 N   0  0  0  0  0  0  0  0  0  0  0  0
    8.5296   -5.9814   17.1841 C   0  0  0  0  0  0  0  0  0  0  0  0
    9.1527   -5.2118   16.2116 C   0  0  0  0  0  0  0  0  0  0  0  0
   10.3364   -3.8368   22.9255 O   0  0  0  0  0  0  0  0  0  0  0  0
    9.6947   -4.8407   18.8534 C   0  0  0  0  0  0  0  0  0  0  0  0
    9.1596    1.7042   24.1381 C   0  0  0  0  0  0  0  0  0  0  0  0
   11.0456   -2.9774   18.2694 N   0  0  0  0  0  0  0  0  0  0  0  0
   10.4788   -3.0457   21.8593 C   0  0  0  0  0  0  0  0  0  0  0  0
    8.8693   -5.8099   18.4657 N   0  0  0  0  0  0  0  0  0  0  0  0
    8.9892   -0.7926   25.4573 C   0  0  0  0  0  0  0  0  0  0  0  0
   10.5677   -3.4462   20.5323 C   0  0  0  0  0  0  0  0  0  0  0  0
  1  8  1  0
  1 12  4  0
  1 14  4  0
  2  3  4  0
  2 18  4  0
  3 20  4  0
  3 22  4  0
  4 11  4  0
  4 21  4  0
  5  9  4  0
  5 16  4  0
  6 15  4  0
  6 16  4  0
  7 22  4  0
  7 26  4  0
  8 10  4  0
  8 25  4  0
  9 15  4  0
  9 17  1  0
 10 21  4  0
 11 25  4  0
 12 23  4  0
 13 20  4  0
 13 26  4  0
 14 19  4  0
 17 18  4  0
 17 24  4  0
 19 23  4  0
 20 24  4  0
 23 26  1  0
M  END
$$$$

 Created by Python create_sdf_string function

 26 30  0  0  0  0  0  0  0  0999 V2000
   10.0084   -1.8019   23.4945 C   0  0  0  0  0  0  0  0  0  0  0  0
   10.0005   -4.2520   16.5631 C   0  0  0  0  0  0  0  0  0  0  0  0
   10.2759   -4.0036   17.8845 C   0  0  0  0  0  0  0  0  0  0  0  0
    8.5652    1.5478   25.3778 N   0  0  0  0  0  0  0  0  0  0  0  0
    6.8048   -7.5457   17.8752 C   0  0  0  0  0  0  0  0  0  0  0  0
    6.1721   -8.2186   15.9886 N   0  0  0  0  0  0  0  0  0  0  0  0
   11.1764   -2.6600   19.5604 C   0  0  0  0  0  0  0  0  0  0  0  0
    9.5491   -0.6380   24.1912 C   0  0  0  0  0  0  0  0  0  0  0  0
    7.5337   -6.9256   16.9519 C   0  0  0  0  0  0  0  0  0  0  0  0
    9.6782    0.5671   23.5143 C   0  0  0  0  0  0  0  0  0  0  0  0
    8.4532    0.3482   26.0821 C   0  0  0  0  0  0  0  0  0  0  0  0
   10.4239   -1.7677   22.2230 N   0  0  0  0  0  0  0  0  0  0  0  0
    9.9468   -4.5953   20.1709 C   0  0  0  0  0  0  0  0  0  0  0  0
   10.0366   -3.0590   23.9864 N   0  0  0  0  0  0  0  0  0  0  0  0
    7.1191   -7.3636   15.7739 C   0  0  0  0  0  0  0  0  0  0  0  0
    5.9612   -8.3203   17.2732 N   0  0  0  0  0  0  0  0  0  0  0  0
    8.5296   -5.9814   17.1841 C   0  0  0  0  0  0  0  0  0  0  0  0
    9.1527   -5.2118   16.2116 C   0  0  0  0  0  0  0  0  0  0  0  0
   10.3364   -3.8368   22.9255 O   0  0  0  0  0  0  0  0  0  0  0  0
    9.6947   -4.8407   18.8534 C   0  0  0  0  0  0  0  0  0  0  0  0
    9.1596    1.7042   24.1381 C   0  0  0  0  0  0  0  0  0  0  0  0
   11.0456   -2.9774   18.2694 N   0  0  0  0  0  0  0  0  0  0  0  0
   10.4788   -3.0457   21.8593 C   0  0  0  0  0  0  0  0  0  0  0  0
    8.8693   -5.8099   18.4657 N   0  0  0  0  0  0  0  0  0  0  0  0
    8.9892   -0.7926   25.4573 C   0  0  0  0  0  0  0  0  0  0  0  0
   10.5677   -3.4462   20.5323 C   0  0  0  0  0  0  0  0  0  0  0  0
  1  8  1  0
  1 12  4  0
  1 14  4  0
  2  3  4  0
  2 18  4  0
  3 20  4  0
  3 22  4  0
  4 11  4  0
  4 21  4  0
  5  9  4  0
  5 16  4  0
  6 15  4  0
  6 16  4  0
  7 22  4  0
  7 26  4  0
  8 10  4  0
  8 25  4  0
  9 15  4  0
  9 17  1  0
 10 21  4  0
 11 25  4  0
 12 23  4  0
 13 20  4  0
 13 26  4  0
 14 19  4  0
 17 18  4  0
 17 24  4  0
 19 23  4  0
 20 24  4  0
 23 26  1  0
M  END
$$$$

 Created by Python create_sdf_string function

 26 30  0  0  0  0  0  0  0  0999 V2000
   10.0084   -1.8019   23.4945 C   0  0  0  0  0  0  0  0  0  0  0  0
   10.0005   -4.2520   16.5631 C   0  0  0  0  0  0  0  0  0  0  0  0
   10.2759   -4.0036   17.8845 C   0  0  0  0  0  0  0  0  0  0  0  0
    8.5652    1.5478   25.3778 N   0  0  0  0  0  0  0  0  0  0  0  0
    6.8048   -7.5457   17.8752 C   0  0  0  0  0  0  0  0  0  0  0  0
    6.1721   -8.2186   15.9886 N   0  0  0  0  0  0  0  0  0  0  0  0
   11.1764   -2.6600   19.5604 C   0  0  0  0  0  0  0  0  0  0  0  0
    9.5491   -0.6380   24.1912 C   0  0  0  0  0  0  0  0  0  0  0  0
    7.5337   -6.9256   16.9519 C   0  0  0  0  0  0  0  0  0  0  0  0
    9.6782    0.5671   23.5143 C   0  0  0  0  0  0  0  0  0  0  0  0
    8.4532    0.3482   26.0821 C   0  0  0  0  0  0  0  0  0  0  0  0
   10.4239   -1.7677   22.2230 N   0  0  0  0  0  0  0  0  0  0  0  0
    9.9468   -4.5953   20.1709 C   0  0  0  0  0  0  0  0  0  0  0  0
   10.0366   -3.0590   23.9864 N   0  0  0  0  0  0  0  0  0  0  0  0
    7.1191   -7.3636   15.7739 C   0  0  0  0  0  0  0  0  0  0  0  0
    5.9612   -8.3203   17.2732 N   0  0  0  0  0  0  0  0  0  0  0  0
    8.5296   -5.9814   17.1841 C   0  0  0  0  0  0  0  0  0  0  0  0
    9.1527   -5.2118   16.2116 C   0  0  0  0  0  0  0  0  0  0  0  0
   10.3364   -3.8368   22.9255 O   0  0  0  0  0  0  0  0  0  0  0  0
    9.6947   -4.8407   18.8534 C   0  0  0  0  0  0  0  0  0  0  0  0
    9.1596    1.7042   24.1381 C   0  0  0  0  0  0  0  0  0  0  0  0
   11.0456   -2.9774   18.2694 N   0  0  0  0  0  0  0  0  0  0  0  0
   10.4788   -3.0457   21.8593 C   0  0  0  0  0  0  0  0  0  0  0  0
    8.8693   -5.8099   18.4657 N   0  0  0  0  0  0  0  0  0  0  0  0
    8.9892   -0.7926   25.4573 C   0  0  0  0  0  0  0  0  0  0  0  0
   10.5677   -3.4462   20.5323 C   0  0  0  0  0  0  0  0  0  0  0  0
  1  8  1  0
  1 12  4  0
  1 14  4  0
  2  3  4  0
  2 18  4  0
  3 20  4  0
  3 22  4  0
  4 11  4  0
  4 21  4  0
  5  9  4  0
  5 16  4  0
  6 15  4  0
  6 16  4  0
  7 22  4  0
  7 26  4  0
  8 10  4  0
  8 25  4  0
  9 15  4  0
  9 17  1  0
 10 21  4  0
 11 25  4  0
 12 23  4  0
 13 20  4  0
 13 26  4  0
 14 19  4  0
 17 18  4  0
 17 24  4  0
 19 23  4  0
 20 24  4  0
 23 26  1  0
M  END
$$$$

 Created by Python create_sdf_string function

 26 30  0  0  0  0  0  0  0  0999 V2000
   10.0084   -1.8019   23.4945 C   0  0  0  0  0  0  0  0  0  0  0  0
   10.0005   -4.2520   16.5631 C   0  0  0  0  0  0  0  0  0  0  0  0
   10.2759   -4.0036   17.8845 C   0  0  0  0  0  0  0  0  0  0  0  0
    8.5652    1.5478   25.3778 N   0  0  0  0  0  0  0  0  0  0  0  0
    6.8048   -7.5457   17.8752 C   0  0  0  0  0  0  0  0  0  0  0  0
    6.1721   -8.2186   15.9886 N   0  0  0  0  0  0  0  0  0  0  0  0
   11.1764   -2.6600   19.5604 C   0  0  0  0  0  0  0  0  0  0  0  0
    9.5491   -0.6380   24.1912 C   0  0  0  0  0  0  0  0  0  0  0  0
    7.5337   -6.9256   16.9519 C   0  0  0  0  0  0  0  0  0  0  0  0
    9.6782    0.5671   23.5143 C   0  0  0  0  0  0  0  0  0  0  0  0
    8.4532    0.3482   26.0821 C   0  0  0  0  0  0  0  0  0  0  0  0
   10.4239   -1.7677   22.2230 N   0  0  0  0  0  0  0  0  0  0  0  0
    9.9468   -4.5953   20.1709 C   0  0  0  0  0  0  0  0  0  0  0  0
   10.0366   -3.0590   23.9864 N   0  0  0  0  0  0  0  0  0  0  0  0
    7.1191   -7.3636   15.7739 C   0  0  0  0  0  0  0  0  0  0  0  0
    5.9612   -8.3203   17.2732 N   0  0  0  0  0  0  0  0  0  0  0  0
    8.5296   -5.9814   17.1841 C   0  0  0  0  0  0  0  0  0  0  0  0
    9.1527   -5.2118   16.2116 C   0  0  0  0  0  0  0  0  0  0  0  0
   10.3364   -3.8368   22.9255 O   0  0  0  0  0  0  0  0  0  0  0  0
    9.6947   -4.8407   18.8534 C   0  0  0  0  0  0  0  0  0  0  0  0
    9.1596    1.7042   24.1381 C   0  0  0  0  0  0  0  0  0  0  0  0
   11.0456   -2.9774   18.2694 N   0  0  0  0  0  0  0  0  0  0  0  0
   10.4788   -3.0457   21.8593 C   0  0  0  0  0  0  0  0  0  0  0  0
    8.8693   -5.8099   18.4657 N   0  0  0  0  0  0  0  0  0  0  0  0
    8.9892   -0.7926   25.4573 C   0  0  0  0  0  0  0  0  0  0  0  0
   10.5677   -3.4462   20.5323 C   0  0  0  0  0  0  0  0  0  0  0  0
  1  8  1  0
  1 12  4  0
  1 14  4  0
  2  3  4  0
  2 18  4  0
  3 20  4  0
  3 22  4  0
  4 11  4  0
  4 21  4  0
  5  9  4  0
  5 16  4  0
  6 15  4  0
  6 16  4  0
  7 22  4  0
  7 26  4  0
  8 10  4  0
  8 25  4  0
  9 15  4  0
  9 17  1  0
 10 21  4  0
 11 25  4  0
 12 23  4  0
 13 20  4  0
 13 26  4  0
 14 19  4  0
 17 18  4  0
 17 24  4  0
 19 23  4  0
 20 24  4  0
 23 26  1  0
M  END
$$$$

 Created by Python create_sdf_string function

 26 30  0  0  0  0  0  0  0  0999 V2000
   10.0084   -1.8019   23.4945 C   0  0  0  0  0  0  0  0  0  0  0  0
   10.0005   -4.2520   16.5631 C   0  0  0  0  0  0  0  0  0  0  0  0
   10.2759   -4.0036   17.8845 C   0  0  0  0  0  0  0  0  0  0  0  0
    8.5652    1.5478   25.3778 N   0  0  0  0  0  0  0  0  0  0  0  0
    6.8048   -7.5457   17.8752 C   0  0  0  0  0  0  0  0  0  0  0  0
    6.1721   -8.2186   15.9886 N   0  0  0  0  0  0  0  0  0  0  0  0
   11.1764   -2.6600   19.5604 C   0  0  0  0  0  0  0  0  0  0  0  0
    9.5491   -0.6380   24.1912 C   0  0  0  0  0  0  0  0  0  0  0  0
    7.5337   -6.9256   16.9519 C   0  0  0  0  0  0  0  0  0  0  0  0
    9.6782    0.5671   23.5143 C   0  0  0  0  0  0  0  0  0  0  0  0
    8.4532    0.3482   26.0821 C   0  0  0  0  0  0  0  0  0  0  0  0
   10.4239   -1.7677   22.2230 N   0  0  0  0  0  0  0  0  0  0  0  0
    9.9468   -4.5953   20.1709 C   0  0  0  0  0  0  0  0  0  0  0  0
   10.0366   -3.0590   23.9864 N   0  0  0  0  0  0  0  0  0  0  0  0
    7.1191   -7.3636   15.7739 C   0  0  0  0  0  0  0  0  0  0  0  0
    5.9612   -8.3203   17.2732 N   0  0  0  0  0  0  0  0  0  0  0  0
    8.5296   -5.9814   17.1841 C   0  0  0  0  0  0  0  0  0  0  0  0
    9.1527   -5.2118   16.2116 C   0  0  0  0  0  0  0  0  0  0  0  0
   10.3364   -3.8368   22.9255 O   0  0  0  0  0  0  0  0  0  0  0  0
    9.6947   -4.8407   18.8534 C   0  0  0  0  0  0  0  0  0  0  0  0
    9.1596    1.7042   24.1381 C   0  0  0  0  0  0  0  0  0  0  0  0
   11.0456   -2.9774   18.2694 N   0  0  0  0  0  0  0  0  0  0  0  0
   10.4788   -3.0457   21.8593 C   0  0  0  0  0  0  0  0  0  0  0  0
    8.8693   -5.8099   18.4657 N   0  0  0  0  0  0  0  0  0  0  0  0
    8.9892   -0.7926   25.4573 C   0  0  0  0  0  0  0  0  0  0  0  0
   10.5677   -3.4462   20.5323 C   0  0  0  0  0  0  0  0  0  0  0  0
  1  8  1  0
  1 12  4  0
  1 14  4  0
  2  3  4  0
  2 18  4  0
  3 20  4  0
  3 22  4  0
  4 11  4  0
  4 21  4  0
  5  9  4  0
  5 16  4  0
  6 15  4  0
  6 16  4  0
  7 22  4  0
  7 26  4  0
  8 10  4  0
  8 25  4  0
  9 15  4  0
  9 17  1  0
 10 21  4  0
 11 25  4  0
 12 23  4  0
 13 20  4  0
 13 26  4  0
 14 19  4  0
 17 18  4  0
 17 24  4  0
 19 23  4  0
 20 24  4  0
 23 26  1  0
M  END
$$$$

 Created by Python create_sdf_string function

 26 30  0  0  0  0  0  0  0  0999 V2000
   10.0084   -1.8019   23.4945 C   0  0  0  0  0  0  0  0  0  0  0  0
   10.0005   -4.2520   16.5631 C   0  0  0  0  0  0  0  0  0  0  0  0
   10.2759   -4.0036   17.8845 C   0  0  0  0  0  0  0  0  0  0  0  0
    8.5652    1.5478   25.3778 N   0  0  0  0  0  0  0  0  0  0  0  0
    6.8048   -7.5457   17.8752 C   0  0  0  0  0  0  0  0  0  0  0  0
    6.1721   -8.2186   15.9886 N   0  0  0  0  0  0  0  0  0  0  0  0
   11.1764   -2.6600   19.5604 C   0  0  0  0  0  0  0  0  0  0  0  0
    9.5491   -0.6380   24.1912 C   0  0  0  0  0  0  0  0  0  0  0  0
    7.5337   -6.9256   16.9519 C   0  0  0  0  0  0  0  0  0  0  0  0
    9.6782    0.5671   23.5143 C   0  0  0  0  0  0  0  0  0  0  0  0
    8.4532    0.3482   26.0821 C   0  0  0  0  0  0  0  0  0  0  0  0
   10.4239   -1.7677   22.2230 N   0  0  0  0  0  0  0  0  0  0  0  0
    9.9468   -4.5953   20.1709 C   0  0  0  0  0  0  0  0  0  0  0  0
   10.0366   -3.0590   23.9864 N   0  0  0  0  0  0  0  0  0  0  0  0
    7.1191   -7.3636   15.7739 C   0  0  0  0  0  0  0  0  0  0  0  0
    5.9612   -8.3203   17.2732 N   0  0  0  0  0  0  0  0  0  0  0  0
    8.5296   -5.9814   17.1841 C   0  0  0  0  0  0  0  0  0  0  0  0
    9.1527   -5.2118   16.2116 C   0  0  0  0  0  0  0  0  0  0  0  0
   10.3364   -3.8368   22.9255 O   0  0  0  0  0  0  0  0  0  0  0  0
    9.6947   -4.8407   18.8534 C   0  0  0  0  0  0  0  0  0  0  0  0
    9.1596    1.7042   24.1381 C   0  0  0  0  0  0  0  0  0  0  0  0
   11.0456   -2.9774   18.2694 N   0  0  0  0  0  0  0  0  0  0  0  0
   10.4788   -3.0457   21.8593 C   0  0  0  0  0  0  0  0  0  0  0  0
    8.8693   -5.8099   18.4657 N   0  0  0  0  0  0  0  0  0  0  0  0
    8.9892   -0.7926   25.4573 C   0  0  0  0  0  0  0  0  0  0  0  0
   10.5677   -3.4462   20.5323 C   0  0  0  0  0  0  0  0  0  0  0  0
  1  8  1  0
  1 12  4  0
  1 14  4  0
  2  3  4  0
  2 18  4  0
  3 20  4  0
  3 22  4  0
  4 11  4  0
  4 21  4  0
  5  9  4  0
  5 16  4  0
  6 15  4  0
  6 16  4  0
  7 22  4  0
  7 26  4  0
  8 10  4  0
  8 25  4  0
  9 15  4  0
  9 17  1  0
 10 21  4  0
 11 25  4  0
 12 23  4  0
 13 20  4  0
 13 26  4  0
 14 19  4  0
 17 18  4  0
 17 24  4  0
 19 23  4  0
 20 24  4  0
 23 26  1  0
M  END
$$$$

 Created by Python create_sdf_string function

 26 30  0  0  0  0  0  0  0  0999 V2000
   10.0084   -1.8019   23.4945 C   0  0  0  0  0  0  0  0  0  0  0  0
   10.0005   -4.2520   16.5631 C   0  0  0  0  0  0  0  0  0  0  0  0
   10.2759   -4.0036   17.8845 C   0  0  0  0  0  0  0  0  0  0  0  0
    8.5652    1.5478   25.3778 N   0  0  0  0  0  0  0  0  0  0  0  0
    6.8048   -7.5457   17.8752 C   0  0  0  0  0  0  0  0  0  0  0  0
    6.1721   -8.2186   15.9886 N   0  0  0  0  0  0  0  0  0  0  0  0
   11.1764   -2.6600   19.5604 C   0  0  0  0  0  0  0  0  0  0  0  0
    9.5491   -0.6380   24.1912 C   0  0  0  0  0  0  0  0  0  0  0  0
    7.5337   -6.9256   16.9519 C   0  0  0  0  0  0  0  0  0  0  0  0
    9.6782    0.5671   23.5143 C   0  0  0  0  0  0  0  0  0  0  0  0
    8.4532    0.3482   26.0821 C   0  0  0  0  0  0  0  0  0  0  0  0
   10.4239   -1.7677   22.2230 N   0  0  0  0  0  0  0  0  0  0  0  0
    9.9468   -4.5953   20.1709 C   0  0  0  0  0  0  0  0  0  0  0  0
   10.0366   -3.0590   23.9864 N   0  0  0  0  0  0  0  0  0  0  0  0
    7.1191   -7.3636   15.7739 C   0  0  0  0  0  0  0  0  0  0  0  0
    5.9612   -8.3203   17.2732 N   0  0  0  0  0  0  0  0  0  0  0  0
    8.5296   -5.9814   17.1841 C   0  0  0  0  0  0  0  0  0  0  0  0
    9.1527   -5.2118   16.2116 C   0  0  0  0  0  0  0  0  0  0  0  0
   10.3364   -3.8368   22.9255 O   0  0  0  0  0  0  0  0  0  0  0  0
    9.6947   -4.8407   18.8534 C   0  0  0  0  0  0  0  0  0  0  0  0
    9.1596    1.7042   24.1381 C   0  0  0  0  0  0  0  0  0  0  0  0
   11.0456   -2.9774   18.2694 N   0  0  0  0  0  0  0  0  0  0  0  0
   10.4788   -3.0457   21.8593 C   0  0  0  0  0  0  0  0  0  0  0  0
    8.8693   -5.8099   18.4657 N   0  0  0  0  0  0  0  0  0  0  0  0
    8.9892   -0.7926   25.4573 C   0  0  0  0  0  0  0  0  0  0  0  0
   10.5677   -3.4462   20.5323 C   0  0  0  0  0  0  0  0  0  0  0  0
  1  8  1  0
  1 12  4  0
  1 14  4  0
  2  3  4  0
  2 18  4  0
  3 20  4  0
  3 22  4  0
  4 11  4  0
  4 21  4  0
  5  9  4  0
  5 16  4  0
  6 15  4  0
  6 16  4  0
  7 22  4  0
  7 26  4  0
  8 10  4  0
  8 25  4  0
  9 15  4  0
  9 17  1  0
 10 21  4  0
 11 25  4  0
 12 23  4  0
 13 20  4  0
 13 26  4  0
 14 19  4  0
 17 18  4  0
 17 24  4  0
 19 23  4  0
 20 24  4  0
 23 26  1  0
M  END
$$$$

 Created by Python create_sdf_string function

 26 30  0  0  0  0  0  0  0  0999 V2000
   10.0084   -1.8019   23.4945 C   0  0  0  0  0  0  0  0  0  0  0  0
   10.0005   -4.2520   16.5631 C   0  0  0  0  0  0  0  0  0  0  0  0
   10.2759   -4.0036   17.8845 C   0  0  0  0  0  0  0  0  0  0  0  0
    8.5652    1.5478   25.3778 N   0  0  0  0  0  0  0  0  0  0  0  0
    6.8048   -7.5457   17.8752 C   0  0  0  0  0  0  0  0  0  0  0  0
    6.1721   -8.2186   15.9886 N   0  0  0  0  0  0  0  0  0  0  0  0
   11.1764   -2.6600   19.5604 C   0  0  0  0  0  0  0  0  0  0  0  0
    9.5491   -0.6380   24.1912 C   0  0  0  0  0  0  0  0  0  0  0  0
    7.5337   -6.9256   16.9519 C   0  0  0  0  0  0  0  0  0  0  0  0
    9.6782    0.5671   23.5143 C   0  0  0  0  0  0  0  0  0  0  0  0
    8.4532    0.3482   26.0821 C   0  0  0  0  0  0  0  0  0  0  0  0
   10.4239   -1.7677   22.2230 N   0  0  0  0  0  0  0  0  0  0  0  0
    9.9468   -4.5953   20.1709 C   0  0  0  0  0  0  0  0  0  0  0  0
   10.0366   -3.0590   23.9864 N   0  0  0  0  0  0  0  0  0  0  0  0
    7.1191   -7.3636   15.7739 C   0  0  0  0  0  0  0  0  0  0  0  0
    5.9612   -8.3203   17.2732 N   0  0  0  0  0  0  0  0  0  0  0  0
    8.5296   -5.9814   17.1841 C   0  0  0  0  0  0  0  0  0  0  0  0
    9.1527   -5.2118   16.2116 C   0  0  0  0  0  0  0  0  0  0  0  0
   10.3364   -3.8368   22.9255 O   0  0  0  0  0  0  0  0  0  0  0  0
    9.6947   -4.8407   18.8534 C   0  0  0  0  0  0  0  0  0  0  0  0
    9.1596    1.7042   24.1381 C   0  0  0  0  0  0  0  0  0  0  0  0
   11.0456   -2.9774   18.2694 N   0  0  0  0  0  0  0  0  0  0  0  0
   10.4788   -3.0457   21.8593 C   0  0  0  0  0  0  0  0  0  0  0  0
    8.8693   -5.8099   18.4657 N   0  0  0  0  0  0  0  0  0  0  0  0
    8.9892   -0.7926   25.4573 C   0  0  0  0  0  0  0  0  0  0  0  0
   10.5677   -3.4462   20.5323 C   0  0  0  0  0  0  0  0  0  0  0  0
  1  8  1  0
  1 12  4  0
  1 14  4  0
  2  3  4  0
  2 18  4  0
  3 20  4  0
  3 22  4  0
  4 11  4  0
  4 21  4  0
  5  9  4  0
  5 16  4  0
  6 15  4  0
  6 16  4  0
  7 22  4  0
  7 26  4  0
  8 10  4  0
  8 25  4  0
  9 15  4  0
  9 17  1  0
 10 21  4  0
 11 25  4  0
 12 23  4  0
 13 20  4  0
 13 26  4  0
 14 19  4  0
 17 18  4  0
 17 24  4  0
 19 23  4  0
 20 24  4  0
 23 26  1  0
M  END
$$$$

 Created by Python create_sdf_string function

 26 30  0  0  0  0  0  0  0  0999 V2000
   10.0084   -1.8019   23.4945 C   0  0  0  0  0  0  0  0  0  0  0  0
   10.0005   -4.2520   16.5631 C   0  0  0  0  0  0  0  0  0  0  0  0
   10.2759   -4.0036   17.8845 C   0  0  0  0  0  0  0  0  0  0  0  0
    8.5652    1.5478   25.3778 N   0  0  0  0  0  0  0  0  0  0  0  0
    6.8048   -7.5457   17.8752 C   0  0  0  0  0  0  0  0  0  0  0  0
    6.1721   -8.2186   15.9886 N   0  0  0  0  0  0  0  0  0  0  0  0
   11.1764   -2.6600   19.5604 C   0  0  0  0  0  0  0  0  0  0  0  0
    9.5491   -0.6380   24.1912 C   0  0  0  0  0  0  0  0  0  0  0  0
    7.5337   -6.9256   16.9519 C   0  0  0  0  0  0  0  0  0  0  0  0
    9.6782    0.5671   23.5143 C   0  0  0  0  0  0  0  0  0  0  0  0
    8.4532    0.3482   26.0821 C   0  0  0  0  0  0  0  0  0  0  0  0
   10.4239   -1.7677   22.2230 N   0  0  0  0  0  0  0  0  0  0  0  0
    9.9468   -4.5953   20.1709 C   0  0  0  0  0  0  0  0  0  0  0  0
   10.0366   -3.0590   23.9864 N   0  0  0  0  0  0  0  0  0  0  0  0
    7.1191   -7.3636   15.7739 C   0  0  0  0  0  0  0  0  0  0  0  0
    5.9612   -8.3203   17.2732 N   0  0  0  0  0  0  0  0  0  0  0  0
    8.5296   -5.9814   17.1841 C   0  0  0  0  0  0  0  0  0  0  0  0
    9.1527   -5.2118   16.2116 C   0  0  0  0  0  0  0  0  0  0  0  0
   10.3364   -3.8368   22.9255 O   0  0  0  0  0  0  0  0  0  0  0  0
    9.6947   -4.8407   18.8534 C   0  0  0  0  0  0  0  0  0  0  0  0
    9.1596    1.7042   24.1381 C   0  0  0  0  0  0  0  0  0  0  0  0
   11.0456   -2.9774   18.2694 N   0  0  0  0  0  0  0  0  0  0  0  0
   10.4788   -3.0457   21.8593 C   0  0  0  0  0  0  0  0  0  0  0  0
    8.8693   -5.8099   18.4657 N   0  0  0  0  0  0  0  0  0  0  0  0
    8.9892   -0.7926   25.4573 C   0  0  0  0  0  0  0  0  0  0  0  0
   10.5677   -3.4462   20.5323 C   0  0  0  0  0  0  0  0  0  0  0  0
  1  8  1  0
  1 12  4  0
  1 14  4  0
  2  3  4  0
  2 18  4  0
  3 20  4  0
  3 22  4  0
  4 11  4  0
  4 21  4  0
  5  9  4  0
  5 16  4  0
  6 15  4  0
  6 16  4  0
  7 22  4  0
  7 26  4  0
  8 10  4  0
  8 25  4  0
  9 15  4  0
  9 17  1  0
 10 21  4  0
 11 25  4  0
 12 23  4  0
 13 20  4  0
 13 26  4  0
 14 19  4  0
 17 18  4  0
 17 24  4  0
 19 23  4  0
 20 24  4  0
 23 26  1  0
M  END
$$$$

 Created by Python create_sdf_string function

 26 30  0  0  0  0  0  0  0  0999 V2000
   10.0084   -1.8019   23.4945 C   0  0  0  0  0  0  0  0  0  0  0  0
   10.0005   -4.2520   16.5631 C   0  0  0  0  0  0  0  0  0  0  0  0
   10.2759   -4.0036   17.8845 C   0  0  0  0  0  0  0  0  0  0  0  0
    8.5652    1.5478   25.3778 N   0  0  0  0  0  0  0  0  0  0  0  0
    6.8048   -7.5457   17.8752 C   0  0  0  0  0  0  0  0  0  0  0  0
    6.1721   -8.2186   15.9886 N   0  0  0  0  0  0  0  0  0  0  0  0
   11.1764   -2.6600   19.5604 C   0  0  0  0  0  0  0  0  0  0  0  0
    9.5491   -0.6380   24.1912 C   0  0  0  0  0  0  0  0  0  0  0  0
    7.5337   -6.9256   16.9519 C   0  0  0  0  0  0  0  0  0  0  0  0
    9.6782    0.5671   23.5143 C   0  0  0  0  0  0  0  0  0  0  0  0
    8.4532    0.3482   26.0821 C   0  0  0  0  0  0  0  0  0  0  0  0
   10.4239   -1.7677   22.2230 N   0  0  0  0  0  0  0  0  0  0  0  0
    9.9468   -4.5953   20.1709 C   0  0  0  0  0  0  0  0  0  0  0  0
   10.0366   -3.0590   23.9864 N   0  0  0  0  0  0  0  0  0  0  0  0
    7.1191   -7.3636   15.7739 C   0  0  0  0  0  0  0  0  0  0  0  0
    5.9612   -8.3203   17.2732 N   0  0  0  0  0  0  0  0  0  0  0  0
    8.5296   -5.9814   17.1841 C   0  0  0  0  0  0  0  0  0  0  0  0
    9.1527   -5.2118   16.2116 C   0  0  0  0  0  0  0  0  0  0  0  0
   10.3364   -3.8368   22.9255 O   0  0  0  0  0  0  0  0  0  0  0  0
    9.6947   -4.8407   18.8534 C   0  0  0  0  0  0  0  0  0  0  0  0
    9.1596    1.7042   24.1381 C   0  0  0  0  0  0  0  0  0  0  0  0
   11.0456   -2.9774   18.2694 N   0  0  0  0  0  0  0  0  0  0  0  0
   10.4788   -3.0457   21.8593 C   0  0  0  0  0  0  0  0  0  0  0  0
    8.8693   -5.8099   18.4657 N   0  0  0  0  0  0  0  0  0  0  0  0
    8.9892   -0.7926   25.4573 C   0  0  0  0  0  0  0  0  0  0  0  0
   10.5677   -3.4462   20.5323 C   0  0  0  0  0  0  0  0  0  0  0  0
  1  8  1  0
  1 12  4  0
  1 14  4  0
  2  3  4  0
  2 18  4  0
  3 20  4  0
  3 22  4  0
  4 11  4  0
  4 21  4  0
  5  9  4  0
  5 16  4  0
  6 15  4  0
  6 16  4  0
  7 22  4  0
  7 26  4  0
  8 10  4  0
  8 25  4  0
  9 15  4  0
  9 17  1  0
 10 21  4  0
 11 25  4  0
 12 23  4  0
 13 20  4  0
 13 26  4  0
 14 19  4  0
 17 18  4  0
 17 24  4  0
 19 23  4  0
 20 24  4  0
 23 26  1  0
M  END
$$$$

 Created by Python create_sdf_string function

 26 30  0  0  0  0  0  0  0  0999 V2000
   10.0084   -1.8019   23.4945 C   0  0  0  0  0  0  0  0  0  0  0  0
   10.0005   -4.2520   16.5631 C   0  0  0  0  0  0  0  0  0  0  0  0
   10.2759   -4.0036   17.8845 C   0  0  0  0  0  0  0  0  0  0  0  0
    8.5652    1.5478   25.3778 N   0  0  0  0  0  0  0  0  0  0  0  0
    6.8048   -7.5457   17.8752 C   0  0  0  0  0  0  0  0  0  0  0  0
    6.1721   -8.2186   15.9886 N   0  0  0  0  0  0  0  0  0  0  0  0
   11.1764   -2.6600   19.5604 C   0  0  0  0  0  0  0  0  0  0  0  0
    9.5491   -0.6380   24.1912 C   0  0  0  0  0  0  0  0  0  0  0  0
    7.5337   -6.9256   16.9519 C   0  0  0  0  0  0  0  0  0  0  0  0
    9.6782    0.5671   23.5143 C   0  0  0  0  0  0  0  0  0  0  0  0
    8.4532    0.3482   26.0821 C   0  0  0  0  0  0  0  0  0  0  0  0
   10.4239   -1.7677   22.2230 N   0  0  0  0  0  0  0  0  0  0  0  0
    9.9468   -4.5953   20.1709 C   0  0  0  0  0  0  0  0  0  0  0  0
   10.0366   -3.0590   23.9864 N   0  0  0  0  0  0  0  0  0  0  0  0
    7.1191   -7.3636   15.7739 C   0  0  0  0  0  0  0  0  0  0  0  0
    5.9612   -8.3203   17.2732 N   0  0  0  0  0  0  0  0  0  0  0  0
    8.5296   -5.9814   17.1841 C   0  0  0  0  0  0  0  0  0  0  0  0
    9.1527   -5.2118   16.2116 C   0  0  0  0  0  0  0  0  0  0  0  0
   10.3364   -3.8368   22.9255 O   0  0  0  0  0  0  0  0  0  0  0  0
    9.6947   -4.8407   18.8534 C   0  0  0  0  0  0  0  0  0  0  0  0
    9.1596    1.7042   24.1381 C   0  0  0  0  0  0  0  0  0  0  0  0
   11.0456   -2.9774   18.2694 N   0  0  0  0  0  0  0  0  0  0  0  0
   10.4788   -3.0457   21.8593 C   0  0  0  0  0  0  0  0  0  0  0  0
    8.8693   -5.8099   18.4657 N   0  0  0  0  0  0  0  0  0  0  0  0
    8.9892   -0.7926   25.4573 C   0  0  0  0  0  0  0  0  0  0  0  0
   10.5677   -3.4462   20.5323 C   0  0  0  0  0  0  0  0  0  0  0  0
  1  8  1  0
  1 12  4  0
  1 14  4  0
  2  3  4  0
  2 18  4  0
  3 20  4  0
  3 22  4  0
  4 11  4  0
  4 21  4  0
  5  9  4  0
  5 16  4  0
  6 15  4  0
  6 16  4  0
  7 22  4  0
  7 26  4  0
  8 10  4  0
  8 25  4  0
  9 15  4  0
  9 17  1  0
 10 21  4  0
 11 25  4  0
 12 23  4  0
 13 20  4  0
 13 26  4  0
 14 19  4  0
 17 18  4  0
 17 24  4  0
 19 23  4  0
 20 24  4  0
 23 26  1  0
M  END
$$$$

 Created by Python create_sdf_string function

 26 30  0  0  0  0  0  0  0  0999 V2000
   10.0084   -1.8019   23.4945 C   0  0  0  0  0  0  0  0  0  0  0  0
   10.0005   -4.2520   16.5631 C   0  0  0  0  0  0  0  0  0  0  0  0
   10.2759   -4.0036   17.8845 C   0  0  0  0  0  0  0  0  0  0  0  0
    8.5652    1.5478   25.3778 N   0  0  0  0  0  0  0  0  0  0  0  0
    6.8048   -7.5457   17.8752 C   0  0  0  0  0  0  0  0  0  0  0  0
    6.1721   -8.2186   15.9886 N   0  0  0  0  0  0  0  0  0  0  0  0
   11.1764   -2.6600   19.5604 C   0  0  0  0  0  0  0  0  0  0  0  0
    9.5491   -0.6380   24.1912 C   0  0  0  0  0  0  0  0  0  0  0  0
    7.5337   -6.9256   16.9519 C   0  0  0  0  0  0  0  0  0  0  0  0
    9.6782    0.5671   23.5143 C   0  0  0  0  0  0  0  0  0  0  0  0
    8.4532    0.3482   26.0821 C   0  0  0  0  0  0  0  0  0  0  0  0
   10.4239   -1.7677   22.2230 N   0  0  0  0  0  0  0  0  0  0  0  0
    9.9468   -4.5953   20.1709 C   0  0  0  0  0  0  0  0  0  0  0  0
   10.0366   -3.0590   23.9864 N   0  0  0  0  0  0  0  0  0  0  0  0
    7.1191   -7.3636   15.7739 C   0  0  0  0  0  0  0  0  0  0  0  0
    5.9612   -8.3203   17.2732 N   0  0  0  0  0  0  0  0  0  0  0  0
    8.5296   -5.9814   17.1841 C   0  0  0  0  0  0  0  0  0  0  0  0
    9.1527   -5.2118   16.2116 C   0  0  0  0  0  0  0  0  0  0  0  0
   10.3364   -3.8368   22.9255 O   0  0  0  0  0  0  0  0  0  0  0  0
    9.6947   -4.8407   18.8534 C   0  0  0  0  0  0  0  0  0  0  0  0
    9.1596    1.7042   24.1381 C   0  0  0  0  0  0  0  0  0  0  0  0
   11.0456   -2.9774   18.2694 N   0  0  0  0  0  0  0  0  0  0  0  0
   10.4788   -3.0457   21.8593 C   0  0  0  0  0  0  0  0  0  0  0  0
    8.8693   -5.8099   18.4657 N   0  0  0  0  0  0  0  0  0  0  0  0
    8.9892   -0.7926   25.4573 C   0  0  0  0  0  0  0  0  0  0  0  0
   10.5677   -3.4462   20.5323 C   0  0  0  0  0  0  0  0  0  0  0  0
  1  8  1  0
  1 12  4  0
  1 14  4  0
  2  3  4  0
  2 18  4  0
  3 20  4  0
  3 22  4  0
  4 11  4  0
  4 21  4  0
  5  9  4  0
  5 16  4  0
  6 15  4  0
  6 16  4  0
  7 22  4  0
  7 26  4  0
  8 10  4  0
  8 25  4  0
  9 15  4  0
  9 17  1  0
 10 21  4  0
 11 25  4  0
 12 23  4  0
 13 20  4  0
 13 26  4  0
 14 19  4  0
 17 18  4  0
 17 24  4  0
 19 23  4  0
 20 24  4  0
 23 26  1  0
M  END
$$$$

 Created by Python create_sdf_string function

 26 30  0  0  0  0  0  0  0  0999 V2000
   10.0084   -1.8019   23.4945 C   0  0  0  0  0  0  0  0  0  0  0  0
   10.0005   -4.2520   16.5631 C   0  0  0  0  0  0  0  0  0  0  0  0
   10.2759   -4.0036   17.8845 C   0  0  0  0  0  0  0  0  0  0  0  0
    8.5652    1.5478   25.3778 N   0  0  0  0  0  0  0  0  0  0  0  0
    6.8048   -7.5457   17.8752 C   0  0  0  0  0  0  0  0  0  0  0  0
    6.1721   -8.2186   15.9886 N   0  0  0  0  0  0  0  0  0  0  0  0
   11.1764   -2.6600   19.5604 C   0  0  0  0  0  0  0  0  0  0  0  0
    9.5491   -0.6380   24.1912 C   0  0  0  0  0  0  0  0  0  0  0  0
    7.5337   -6.9256   16.9519 C   0  0  0  0  0  0  0  0  0  0  0  0
    9.6782    0.5671   23.5143 C   0  0  0  0  0  0  0  0  0  0  0  0
    8.4532    0.3482   26.0821 C   0  0  0  0  0  0  0  0  0  0  0  0
   10.4239   -1.7677   22.2230 N   0  0  0  0  0  0  0  0  0  0  0  0
    9.9468   -4.5953   20.1709 C   0  0  0  0  0  0  0  0  0  0  0  0
   10.0366   -3.0590   23.9864 N   0  0  0  0  0  0  0  0  0  0  0  0
    7.1191   -7.3636   15.7739 C   0  0  0  0  0  0  0  0  0  0  0  0
    5.9612   -8.3203   17.2732 N   0  0  0  0  0  0  0  0  0  0  0  0
    8.5296   -5.9814   17.1841 C   0  0  0  0  0  0  0  0  0  0  0  0
    9.1527   -5.2118   16.2116 C   0  0  0  0  0  0  0  0  0  0  0  0
   10.3364   -3.8368   22.9255 O   0  0  0  0  0  0  0  0  0  0  0  0
    9.6947   -4.8407   18.8534 C   0  0  0  0  0  0  0  0  0  0  0  0
    9.1596    1.7042   24.1381 C   0  0  0  0  0  0  0  0  0  0  0  0
   11.0456   -2.9774   18.2694 N   0  0  0  0  0  0  0  0  0  0  0  0
   10.4788   -3.0457   21.8593 C   0  0  0  0  0  0  0  0  0  0  0  0
    8.8693   -5.8099   18.4657 N   0  0  0  0  0  0  0  0  0  0  0  0
    8.9892   -0.7926   25.4573 C   0  0  0  0  0  0  0  0  0  0  0  0
   10.5677   -3.4462   20.5323 C   0  0  0  0  0  0  0  0  0  0  0  0
  1  8  1  0
  1 12  4  0
  1 14  4  0
  2  3  4  0
  2 18  4  0
  3 20  4  0
  3 22  4  0
  4 11  4  0
  4 21  4  0
  5  9  4  0
  5 16  4  0
  6 15  4  0
  6 16  4  0
  7 22  4  0
  7 26  4  0
  8 10  4  0
  8 25  4  0
  9 15  4  0
  9 17  1  0
 10 21  4  0
 11 25  4  0
 12 23  4  0
 13 20  4  0
 13 26  4  0
 14 19  4  0
 17 18  4  0
 17 24  4  0
 19 23  4  0
 20 24  4  0
 23 26  1  0
M  END
$$$$

 Created by Python create_sdf_string function

 26 30  0  0  0  0  0  0  0  0999 V2000
   10.0084   -1.8019   23.4945 C   0  0  0  0  0  0  0  0  0  0  0  0
   10.0005   -4.2520   16.5631 C   0  0  0  0  0  0  0  0  0  0  0  0
   10.2759   -4.0036   17.8845 C   0  0  0  0  0  0  0  0  0  0  0  0
    8.5652    1.5478   25.3778 N   0  0  0  0  0  0  0  0  0  0  0  0
    6.8048   -7.5457   17.8752 C   0  0  0  0  0  0  0  0  0  0  0  0
    6.1721   -8.2186   15.9886 N   0  0  0  0  0  0  0  0  0  0  0  0
   11.1764   -2.6600   19.5604 C   0  0  0  0  0  0  0  0  0  0  0  0
    9.5491   -0.6380   24.1912 C   0  0  0  0  0  0  0  0  0  0  0  0
    7.5337   -6.9256   16.9519 C   0  0  0  0  0  0  0  0  0  0  0  0
    9.6782    0.5671   23.5143 C   0  0  0  0  0  0  0  0  0  0  0  0
    8.4532    0.3482   26.0821 C   0  0  0  0  0  0  0  0  0  0  0  0
   10.4239   -1.7677   22.2230 N   0  0  0  0  0  0  0  0  0  0  0  0
    9.9468   -4.5953   20.1709 C   0  0  0  0  0  0  0  0  0  0  0  0
   10.0366   -3.0590   23.9864 N   0  0  0  0  0  0  0  0  0  0  0  0
    7.1191   -7.3636   15.7739 C   0  0  0  0  0  0  0  0  0  0  0  0
    5.9612   -8.3203   17.2732 N   0  0  0  0  0  0  0  0  0  0  0  0
    8.5296   -5.9814   17.1841 C   0  0  0  0  0  0  0  0  0  0  0  0
    9.1527   -5.2118   16.2116 C   0  0  0  0  0  0  0  0  0  0  0  0
   10.3364   -3.8368   22.9255 O   0  0  0  0  0  0  0  0  0  0  0  0
    9.6947   -4.8407   18.8534 C   0  0  0  0  0  0  0  0  0  0  0  0
    9.1596    1.7042   24.1381 C   0  0  0  0  0  0  0  0  0  0  0  0
   11.0456   -2.9774   18.2694 N   0  0  0  0  0  0  0  0  0  0  0  0
   10.4788   -3.0457   21.8593 C   0  0  0  0  0  0  0  0  0  0  0  0
    8.8693   -5.8099   18.4657 N   0  0  0  0  0  0  0  0  0  0  0  0
    8.9892   -0.7926   25.4573 C   0  0  0  0  0  0  0  0  0  0  0  0
   10.5677   -3.4462   20.5323 C   0  0  0  0  0  0  0  0  0  0  0  0
  1  8  1  0
  1 12  4  0
  1 14  4  0
  2  3  4  0
  2 18  4  0
  3 20  4  0
  3 22  4  0
  4 11  4  0
  4 21  4  0
  5  9  4  0
  5 16  4  0
  6 15  4  0
  6 16  4  0
  7 22  4  0
  7 26  4  0
  8 10  4  0
  8 25  4  0
  9 15  4  0
  9 17  1  0
 10 21  4  0
 11 25  4  0
 12 23  4  0
 13 20  4  0
 13 26  4  0
 14 19  4  0
 17 18  4  0
 17 24  4  0
 19 23  4  0
 20 24  4  0
 23 26  1  0
M  END
$$$$

 Created by Python create_sdf_string function

 26 30  0  0  0  0  0  0  0  0999 V2000
   10.0084   -1.8019   23.4945 C   0  0  0  0  0  0  0  0  0  0  0  0
   10.0005   -4.2520   16.5631 C   0  0  0  0  0  0  0  0  0  0  0  0
   10.2759   -4.0036   17.8845 C   0  0  0  0  0  0  0  0  0  0  0  0
    8.5652    1.5478   25.3778 N   0  0  0  0  0  0  0  0  0  0  0  0
    6.8048   -7.5457   17.8752 C   0  0  0  0  0  0  0  0  0  0  0  0
    6.1721   -8.2186   15.9886 N   0  0  0  0  0  0  0  0  0  0  0  0
   11.1764   -2.6600   19.5604 C   0  0  0  0  0  0  0  0  0  0  0  0
    9.5491   -0.6380   24.1912 C   0  0  0  0  0  0  0  0  0  0  0  0
    7.5337   -6.9256   16.9519 C   0  0  0  0  0  0  0  0  0  0  0  0
    9.6782    0.5671   23.5143 C   0  0  0  0  0  0  0  0  0  0  0  0
    8.4532    0.3482   26.0821 C   0  0  0  0  0  0  0  0  0  0  0  0
   10.4239   -1.7677   22.2230 N   0  0  0  0  0  0  0  0  0  0  0  0
    9.9468   -4.5953   20.1709 C   0  0  0  0  0  0  0  0  0  0  0  0
   10.0366   -3.0590   23.9864 N   0  0  0  0  0  0  0  0  0  0  0  0
    7.1191   -7.3636   15.7739 C   0  0  0  0  0  0  0  0  0  0  0  0
    5.9612   -8.3203   17.2732 N   0  0  0  0  0  0  0  0  0  0  0  0
    8.5296   -5.9814   17.1841 C   0  0  0  0  0  0  0  0  0  0  0  0
    9.1527   -5.2118   16.2116 C   0  0  0  0  0  0  0  0  0  0  0  0
   10.3364   -3.8368   22.9255 O   0  0  0  0  0  0  0  0  0  0  0  0
    9.6947   -4.8407   18.8534 C   0  0  0  0  0  0  0  0  0  0  0  0
    9.1596    1.7042   24.1381 C   0  0  0  0  0  0  0  0  0  0  0  0
   11.0456   -2.9774   18.2694 N   0  0  0  0  0  0  0  0  0  0  0  0
   10.4788   -3.0457   21.8593 C   0  0  0  0  0  0  0  0  0  0  0  0
    8.8693   -5.8099   18.4657 N   0  0  0  0  0  0  0  0  0  0  0  0
    8.9892   -0.7926   25.4573 C   0  0  0  0  0  0  0  0  0  0  0  0
   10.5677   -3.4462   20.5323 C   0  0  0  0  0  0  0  0  0  0  0  0
  1  8  1  0
  1 12  4  0
  1 14  4  0
  2  3  4  0
  2 18  4  0
  3 20  4  0
  3 22  4  0
  4 11  4  0
  4 21  4  0
  5  9  4  0
  5 16  4  0
  6 15  4  0
  6 16  4  0
  7 22  4  0
  7 26  4  0
  8 10  4  0
  8 25  4  0
  9 15  4  0
  9 17  1  0
 10 21  4  0
 11 25  4  0
 12 23  4  0
 13 20  4  0
 13 26  4  0
 14 19  4  0
 17 18  4  0
 17 24  4  0
 19 23  4  0
 20 24  4  0
 23 26  1  0
M  END
$$$$

 Created by Python create_sdf_string function

 26 30  0  0  0  0  0  0  0  0999 V2000
   10.0084   -1.8019   23.4945 C   0  0  0  0  0  0  0  0  0  0  0  0
   10.0005   -4.2520   16.5631 C   0  0  0  0  0  0  0  0  0  0  0  0
   10.2759   -4.0036   17.8845 C   0  0  0  0  0  0  0  0  0  0  0  0
    8.5652    1.5478   25.3778 N   0  0  0  0  0  0  0  0  0  0  0  0
    6.8048   -7.5457   17.8752 C   0  0  0  0  0  0  0  0  0  0  0  0
    6.1721   -8.2186   15.9886 N   0  0  0  0  0  0  0  0  0  0  0  0
   11.1764   -2.6600   19.5604 C   0  0  0  0  0  0  0  0  0  0  0  0
    9.5491   -0.6380   24.1912 C   0  0  0  0  0  0  0  0  0  0  0  0
    7.5337   -6.9256   16.9519 C   0  0  0  0  0  0  0  0  0  0  0  0
    9.6782    0.5671   23.5143 C   0  0  0  0  0  0  0  0  0  0  0  0
    8.4532    0.3482   26.0821 C   0  0  0  0  0  0  0  0  0  0  0  0
   10.4239   -1.7677   22.2230 N   0  0  0  0  0  0  0  0  0  0  0  0
    9.9468   -4.5953   20.1709 C   0  0  0  0  0  0  0  0  0  0  0  0
   10.0366   -3.0590   23.9864 N   0  0  0  0  0  0  0  0  0  0  0  0
    7.1191   -7.3636   15.7739 C   0  0  0  0  0  0  0  0  0  0  0  0
    5.9612   -8.3203   17.2732 N   0  0  0  0  0  0  0  0  0  0  0  0
    8.5296   -5.9814   17.1841 C   0  0  0  0  0  0  0  0  0  0  0  0
    9.1527   -5.2118   16.2116 C   0  0  0  0  0  0  0  0  0  0  0  0
   10.3364   -3.8368   22.9255 O   0  0  0  0  0  0  0  0  0  0  0  0
    9.6947   -4.8407   18.8534 C   0  0  0  0  0  0  0  0  0  0  0  0
    9.1596    1.7042   24.1381 C   0  0  0  0  0  0  0  0  0  0  0  0
   11.0456   -2.9774   18.2694 N   0  0  0  0  0  0  0  0  0  0  0  0
   10.4788   -3.0457   21.8593 C   0  0  0  0  0  0  0  0  0  0  0  0
    8.8693   -5.8099   18.4657 N   0  0  0  0  0  0  0  0  0  0  0  0
    8.9892   -0.7926   25.4573 C   0  0  0  0  0  0  0  0  0  0  0  0
   10.5677   -3.4462   20.5323 C   0  0  0  0  0  0  0  0  0  0  0  0
  1  8  1  0
  1 12  4  0
  1 14  4  0
  2  3  4  0
  2 18  4  0
  3 20  4  0
  3 22  4  0
  4 11  4  0
  4 21  4  0
  5  9  4  0
  5 16  4  0
  6 15  4  0
  6 16  4  0
  7 22  4  0
  7 26  4  0
  8 10  4  0
  8 25  4  0
  9 15  4  0
  9 17  1  0
 10 21  4  0
 11 25  4  0
 12 23  4  0
 13 20  4  0
 13 26  4  0
 14 19  4  0
 17 18  4  0
 17 24  4  0
 19 23  4  0
 20 24  4  0
 23 26  1  0
M  END
$$$$

 Created by Python create_sdf_string function

 26 30  0  0  0  0  0  0  0  0999 V2000
   10.0084   -1.8019   23.4945 C   0  0  0  0  0  0  0  0  0  0  0  0
   10.0005   -4.2520   16.5631 C   0  0  0  0  0  0  0  0  0  0  0  0
   10.2759   -4.0036   17.8845 C   0  0  0  0  0  0  0  0  0  0  0  0
    8.5652    1.5478   25.3778 N   0  0  0  0  0  0  0  0  0  0  0  0
    6.8048   -7.5457   17.8752 C   0  0  0  0  0  0  0  0  0  0  0  0
    6.1721   -8.2186   15.9886 N   0  0  0  0  0  0  0  0  0  0  0  0
   11.1764   -2.6600   19.5604 C   0  0  0  0  0  0  0  0  0  0  0  0
    9.5491   -0.6380   24.1912 C   0  0  0  0  0  0  0  0  0  0  0  0
    7.5337   -6.9256   16.9519 C   0  0  0  0  0  0  0  0  0  0  0  0
    9.6782    0.5671   23.5143 C   0  0  0  0  0  0  0  0  0  0  0  0
    8.4532    0.3482   26.0821 C   0  0  0  0  0  0  0  0  0  0  0  0
   10.4239   -1.7677   22.2230 N   0  0  0  0  0  0  0  0  0  0  0  0
    9.9468   -4.5953   20.1709 C   0  0  0  0  0  0  0  0  0  0  0  0
   10.0366   -3.0590   23.9864 N   0  0  0  0  0  0  0  0  0  0  0  0
    7.1191   -7.3636   15.7739 C   0  0  0  0  0  0  0  0  0  0  0  0
    5.9612   -8.3203   17.2732 N   0  0  0  0  0  0  0  0  0  0  0  0
    8.5296   -5.9814   17.1841 C   0  0  0  0  0  0  0  0  0  0  0  0
    9.1527   -5.2118   16.2116 C   0  0  0  0  0  0  0  0  0  0  0  0
   10.3364   -3.8368   22.9255 O   0  0  0  0  0  0  0  0  0  0  0  0
    9.6947   -4.8407   18.8534 C   0  0  0  0  0  0  0  0  0  0  0  0
    9.1596    1.7042   24.1381 C   0  0  0  0  0  0  0  0  0  0  0  0
   11.0456   -2.9774   18.2694 N   0  0  0  0  0  0  0  0  0  0  0  0
   10.4788   -3.0457   21.8593 C   0  0  0  0  0  0  0  0  0  0  0  0
    8.8693   -5.8099   18.4657 N   0  0  0  0  0  0  0  0  0  0  0  0
    8.9892   -0.7926   25.4573 C   0  0  0  0  0  0  0  0  0  0  0  0
   10.5677   -3.4462   20.5323 C   0  0  0  0  0  0  0  0  0  0  0  0
  1  8  1  0
  1 12  4  0
  1 14  4  0
  2  3  4  0
  2 18  4  0
  3 20  4  0
  3 22  4  0
  4 11  4  0
  4 21  4  0
  5  9  4  0
  5 16  4  0
  6 15  4  0
  6 16  4  0
  7 22  4  0
  7 26  4  0
  8 10  4  0
  8 25  4  0
  9 15  4  0
  9 17  1  0
 10 21  4  0
 11 25  4  0
 12 23  4  0
 13 20  4  0
 13 26  4  0
 14 19  4  0
 17 18  4  0
 17 24  4  0
 19 23  4  0
 20 24  4  0
 23 26  1  0
M  END
$$$$

 Created by Python create_sdf_string function

 26 30  0  0  0  0  0  0  0  0999 V2000
   10.0084   -1.8019   23.4945 C   0  0  0  0  0  0  0  0  0  0  0  0
   10.0005   -4.2520   16.5631 C   0  0  0  0  0  0  0  0  0  0  0  0
   10.2759   -4.0036   17.8845 C   0  0  0  0  0  0  0  0  0  0  0  0
    8.5652    1.5478   25.3778 N   0  0  0  0  0  0  0  0  0  0  0  0
    6.8048   -7.5457   17.8752 C   0  0  0  0  0  0  0  0  0  0  0  0
    6.1721   -8.2186   15.9886 N   0  0  0  0  0  0  0  0  0  0  0  0
   11.1764   -2.6600   19.5604 C   0  0  0  0  0  0  0  0  0  0  0  0
    9.5491   -0.6380   24.1912 C   0  0  0  0  0  0  0  0  0  0  0  0
    7.5337   -6.9256   16.9519 C   0  0  0  0  0  0  0  0  0  0  0  0
    9.6782    0.5671   23.5143 C   0  0  0  0  0  0  0  0  0  0  0  0
    8.4532    0.3482   26.0821 C   0  0  0  0  0  0  0  0  0  0  0  0
   10.4239   -1.7677   22.2230 N   0  0  0  0  0  0  0  0  0  0  0  0
    9.9468   -4.5953   20.1709 C   0  0  0  0  0  0  0  0  0  0  0  0
   10.0366   -3.0590   23.9864 N   0  0  0  0  0  0  0  0  0  0  0  0
    7.1191   -7.3636   15.7739 C   0  0  0  0  0  0  0  0  0  0  0  0
    5.9612   -8.3203   17.2732 N   0  0  0  0  0  0  0  0  0  0  0  0
    8.5296   -5.9814   17.1841 C   0  0  0  0  0  0  0  0  0  0  0  0
    9.1527   -5.2118   16.2116 C   0  0  0  0  0  0  0  0  0  0  0  0
   10.3364   -3.8368   22.9255 O   0  0  0  0  0  0  0  0  0  0  0  0
    9.6947   -4.8407   18.8534 C   0  0  0  0  0  0  0  0  0  0  0  0
    9.1596    1.7042   24.1381 C   0  0  0  0  0  0  0  0  0  0  0  0
   11.0456   -2.9774   18.2694 N   0  0  0  0  0  0  0  0  0  0  0  0
   10.4788   -3.0457   21.8593 C   0  0  0  0  0  0  0  0  0  0  0  0
    8.8693   -5.8099   18.4657 N   0  0  0  0  0  0  0  0  0  0  0  0
    8.9892   -0.7926   25.4573 C   0  0  0  0  0  0  0  0  0  0  0  0
   10.5677   -3.4462   20.5323 C   0  0  0  0  0  0  0  0  0  0  0  0
  1  8  1  0
  1 12  4  0
  1 14  4  0
  2  3  4  0
  2 18  4  0
  3 20  4  0
  3 22  4  0
  4 11  4  0
  4 21  4  0
  5  9  4  0
  5 16  4  0
  6 15  4  0
  6 16  4  0
  7 22  4  0
  7 26  4  0
  8 10  4  0
  8 25  4  0
  9 15  4  0
  9 17  1  0
 10 21  4  0
 11 25  4  0
 12 23  4  0
 13 20  4  0
 13 26  4  0
 14 19  4  0
 17 18  4  0
 17 24  4  0
 19 23  4  0
 20 24  4  0
 23 26  1  0
M  END
$$$$

 Created by Python create_sdf_string function

 26 30  0  0  0  0  0  0  0  0999 V2000
   10.0084   -1.8019   23.4945 C   0  0  0  0  0  0  0  0  0  0  0  0
   10.0005   -4.2520   16.5631 C   0  0  0  0  0  0  0  0  0  0  0  0
   10.2759   -4.0036   17.8845 C   0  0  0  0  0  0  0  0  0  0  0  0
    8.5652    1.5478   25.3778 N   0  0  0  0  0  0  0  0  0  0  0  0
    6.8048   -7.5457   17.8752 C   0  0  0  0  0  0  0  0  0  0  0  0
    6.1721   -8.2186   15.9886 N   0  0  0  0  0  0  0  0  0  0  0  0
   11.1764   -2.6600   19.5604 C   0  0  0  0  0  0  0  0  0  0  0  0
    9.5491   -0.6380   24.1912 C   0  0  0  0  0  0  0  0  0  0  0  0
    7.5337   -6.9256   16.9519 C   0  0  0  0  0  0  0  0  0  0  0  0
    9.6782    0.5671   23.5143 C   0  0  0  0  0  0  0  0  0  0  0  0
    8.4532    0.3482   26.0821 C   0  0  0  0  0  0  0  0  0  0  0  0
   10.4239   -1.7677   22.2230 N   0  0  0  0  0  0  0  0  0  0  0  0
    9.9468   -4.5953   20.1709 C   0  0  0  0  0  0  0  0  0  0  0  0
   10.0366   -3.0590   23.9864 N   0  0  0  0  0  0  0  0  0  0  0  0
    7.1191   -7.3636   15.7739 C   0  0  0  0  0  0  0  0  0  0  0  0
    5.9612   -8.3203   17.2732 N   0  0  0  0  0  0  0  0  0  0  0  0
    8.5296   -5.9814   17.1841 C   0  0  0  0  0  0  0  0  0  0  0  0
    9.1527   -5.2118   16.2116 C   0  0  0  0  0  0  0  0  0  0  0  0
   10.3364   -3.8368   22.9255 O   0  0  0  0  0  0  0  0  0  0  0  0
    9.6947   -4.8407   18.8534 C   0  0  0  0  0  0  0  0  0  0  0  0
    9.1596    1.7042   24.1381 C   0  0  0  0  0  0  0  0  0  0  0  0
   11.0456   -2.9774   18.2694 N   0  0  0  0  0  0  0  0  0  0  0  0
   10.4788   -3.0457   21.8593 C   0  0  0  0  0  0  0  0  0  0  0  0
    8.8693   -5.8099   18.4657 N   0  0  0  0  0  0  0  0  0  0  0  0
    8.9892   -0.7926   25.4573 C   0  0  0  0  0  0  0  0  0  0  0  0
   10.5677   -3.4462   20.5323 C   0  0  0  0  0  0  0  0  0  0  0  0
  1  8  1  0
  1 12  4  0
  1 14  4  0
  2  3  4  0
  2 18  4  0
  3 20  4  0
  3 22  4  0
  4 11  4  0
  4 21  4  0
  5  9  4  0
  5 16  4  0
  6 15  4  0
  6 16  4  0
  7 22  4  0
  7 26  4  0
  8 10  4  0
  8 25  4  0
  9 15  4  0
  9 17  1  0
 10 21  4  0
 11 25  4  0
 12 23  4  0
 13 20  4  0
 13 26  4  0
 14 19  4  0
 17 18  4  0
 17 24  4  0
 19 23  4  0
 20 24  4  0
 23 26  1  0
M  END
$$$$

 Created by Python create_sdf_string function

 26 30  0  0  0  0  0  0  0  0999 V2000
   10.0084   -1.8019   23.4945 C   0  0  0  0  0  0  0  0  0  0  0  0
   10.0005   -4.2520   16.5631 C   0  0  0  0  0  0  0  0  0  0  0  0
   10.2759   -4.0036   17.8845 C   0  0  0  0  0  0  0  0  0  0  0  0
    8.5652    1.5478   25.3778 N   0  0  0  0  0  0  0  0  0  0  0  0
    6.8048   -7.5457   17.8752 C   0  0  0  0  0  0  0  0  0  0  0  0
    6.1721   -8.2186   15.9886 N   0  0  0  0  0  0  0  0  0  0  0  0
   11.1764   -2.6600   19.5604 C   0  0  0  0  0  0  0  0  0  0  0  0
    9.5491   -0.6380   24.1912 C   0  0  0  0  0  0  0  0  0  0  0  0
    7.5337   -6.9256   16.9519 C   0  0  0  0  0  0  0  0  0  0  0  0
    9.6782    0.5671   23.5143 C   0  0  0  0  0  0  0  0  0  0  0  0
    8.4532    0.3482   26.0821 C   0  0  0  0  0  0  0  0  0  0  0  0
   10.4239   -1.7677   22.2230 N   0  0  0  0  0  0  0  0  0  0  0  0
    9.9468   -4.5953   20.1709 C   0  0  0  0  0  0  0  0  0  0  0  0
   10.0366   -3.0590   23.9864 N   0  0  0  0  0  0  0  0  0  0  0  0
    7.1191   -7.3636   15.7739 C   0  0  0  0  0  0  0  0  0  0  0  0
    5.9612   -8.3203   17.2732 N   0  0  0  0  0  0  0  0  0  0  0  0
    8.5296   -5.9814   17.1841 C   0  0  0  0  0  0  0  0  0  0  0  0
    9.1527   -5.2118   16.2116 C   0  0  0  0  0  0  0  0  0  0  0  0
   10.3364   -3.8368   22.9255 O   0  0  0  0  0  0  0  0  0  0  0  0
    9.6947   -4.8407   18.8534 C   0  0  0  0  0  0  0  0  0  0  0  0
    9.1596    1.7042   24.1381 C   0  0  0  0  0  0  0  0  0  0  0  0
   11.0456   -2.9774   18.2694 N   0  0  0  0  0  0  0  0  0  0  0  0
   10.4788   -3.0457   21.8593 C   0  0  0  0  0  0  0  0  0  0  0  0
    8.8693   -5.8099   18.4657 N   0  0  0  0  0  0  0  0  0  0  0  0
    8.9892   -0.7926   25.4573 C   0  0  0  0  0  0  0  0  0  0  0  0
   10.5677   -3.4462   20.5323 C   0  0  0  0  0  0  0  0  0  0  0  0
  1  8  1  0
  1 12  4  0
  1 14  4  0
  2  3  4  0
  2 18  4  0
  3 20  4  0
  3 22  4  0
  4 11  4  0
  4 21  4  0
  5  9  4  0
  5 16  4  0
  6 15  4  0
  6 16  4  0
  7 22  4  0
  7 26  4  0
  8 10  4  0
  8 25  4  0
  9 15  4  0
  9 17  1  0
 10 21  4  0
 11 25  4  0
 12 23  4  0
 13 20  4  0
 13 26  4  0
 14 19  4  0
 17 18  4  0
 17 24  4  0
 19 23  4  0
 20 24  4  0
 23 26  1  0
M  END
$$$$

 Created by Python create_sdf_string function

 26 30  0  0  0  0  0  0  0  0999 V2000
   10.0084   -1.8019   23.4945 C   0  0  0  0  0  0  0  0  0  0  0  0
   10.0005   -4.2520   16.5631 C   0  0  0  0  0  0  0  0  0  0  0  0
   10.2759   -4.0036   17.8845 C   0  0  0  0  0  0  0  0  0  0  0  0
    8.5652    1.5478   25.3778 N   0  0  0  0  0  0  0  0  0  0  0  0
    6.8048   -7.5457   17.8752 C   0  0  0  0  0  0  0  0  0  0  0  0
    6.1721   -8.2186   15.9886 N   0  0  0  0  0  0  0  0  0  0  0  0
   11.1764   -2.6600   19.5604 C   0  0  0  0  0  0  0  0  0  0  0  0
    9.5491   -0.6380   24.1912 C   0  0  0  0  0  0  0  0  0  0  0  0
    7.5337   -6.9256   16.9519 C   0  0  0  0  0  0  0  0  0  0  0  0
    9.6782    0.5671   23.5143 C   0  0  0  0  0  0  0  0  0  0  0  0
    8.4532    0.3482   26.0821 C   0  0  0  0  0  0  0  0  0  0  0  0
   10.4239   -1.7677   22.2230 N   0  0  0  0  0  0  0  0  0  0  0  0
    9.9468   -4.5953   20.1709 C   0  0  0  0  0  0  0  0  0  0  0  0
   10.0366   -3.0590   23.9864 N   0  0  0  0  0  0  0  0  0  0  0  0
    7.1191   -7.3636   15.7739 C   0  0  0  0  0  0  0  0  0  0  0  0
    5.9612   -8.3203   17.2732 N   0  0  0  0  0  0  0  0  0  0  0  0
    8.5296   -5.9814   17.1841 C   0  0  0  0  0  0  0  0  0  0  0  0
    9.1527   -5.2118   16.2116 C   0  0  0  0  0  0  0  0  0  0  0  0
   10.3364   -3.8368   22.9255 O   0  0  0  0  0  0  0  0  0  0  0  0
    9.6947   -4.8407   18.8534 C   0  0  0  0  0  0  0  0  0  0  0  0
    9.1596    1.7042   24.1381 C   0  0  0  0  0  0  0  0  0  0  0  0
   11.0456   -2.9774   18.2694 N   0  0  0  0  0  0  0  0  0  0  0  0
   10.4788   -3.0457   21.8593 C   0  0  0  0  0  0  0  0  0  0  0  0
    8.8693   -5.8099   18.4657 N   0  0  0  0  0  0  0  0  0  0  0  0
    8.9892   -0.7926   25.4573 C   0  0  0  0  0  0  0  0  0  0  0  0
   10.5677   -3.4462   20.5323 C   0  0  0  0  0  0  0  0  0  0  0  0
  1  8  1  0
  1 12  4  0
  1 14  4  0
  2  3  4  0
  2 18  4  0
  3 20  4  0
  3 22  4  0
  4 11  4  0
  4 21  4  0
  5  9  4  0
  5 16  4  0
  6 15  4  0
  6 16  4  0
  7 22  4  0
  7 26  4  0
  8 10  4  0
  8 25  4  0
  9 15  4  0
  9 17  1  0
 10 21  4  0
 11 25  4  0
 12 23  4  0
 13 20  4  0
 13 26  4  0
 14 19  4  0
 17 18  4  0
 17 24  4  0
 19 23  4  0
 20 24  4  0
 23 26  1  0
M  END
$$$$

 Created by Python create_sdf_string function

 26 30  0  0  0  0  0  0  0  0999 V2000
   10.0084   -1.8019   23.4945 C   0  0  0  0  0  0  0  0  0  0  0  0
   10.0005   -4.2520   16.5631 C   0  0  0  0  0  0  0  0  0  0  0  0
   10.2759   -4.0036   17.8845 C   0  0  0  0  0  0  0  0  0  0  0  0
    8.5652    1.5478   25.3778 N   0  0  0  0  0  0  0  0  0  0  0  0
    6.8048   -7.5457   17.8752 C   0  0  0  0  0  0  0  0  0  0  0  0
    6.1721   -8.2186   15.9886 N   0  0  0  0  0  0  0  0  0  0  0  0
   11.1764   -2.6600   19.5604 C   0  0  0  0  0  0  0  0  0  0  0  0
    9.5491   -0.6380   24.1912 C   0  0  0  0  0  0  0  0  0  0  0  0
    7.5337   -6.9256   16.9519 C   0  0  0  0  0  0  0  0  0  0  0  0
    9.6782    0.5671   23.5143 C   0  0  0  0  0  0  0  0  0  0  0  0
    8.4532    0.3482   26.0821 C   0  0  0  0  0  0  0  0  0  0  0  0
   10.4239   -1.7677   22.2230 N   0  0  0  0  0  0  0  0  0  0  0  0
    9.9468   -4.5953   20.1709 C   0  0  0  0  0  0  0  0  0  0  0  0
   10.0366   -3.0590   23.9864 N   0  0  0  0  0  0  0  0  0  0  0  0
    7.1191   -7.3636   15.7739 C   0  0  0  0  0  0  0  0  0  0  0  0
    5.9612   -8.3203   17.2732 N   0  0  0  0  0  0  0  0  0  0  0  0
    8.5296   -5.9814   17.1841 C   0  0  0  0  0  0  0  0  0  0  0  0
    9.1527   -5.2118   16.2116 C   0  0  0  0  0  0  0  0  0  0  0  0
   10.3364   -3.8368   22.9255 O   0  0  0  0  0  0  0  0  0  0  0  0
    9.6947   -4.8407   18.8534 C   0  0  0  0  0  0  0  0  0  0  0  0
    9.1596    1.7042   24.1381 C   0  0  0  0  0  0  0  0  0  0  0  0
   11.0456   -2.9774   18.2694 N   0  0  0  0  0  0  0  0  0  0  0  0
   10.4788   -3.0457   21.8593 C   0  0  0  0  0  0  0  0  0  0  0  0
    8.8693   -5.8099   18.4657 N   0  0  0  0  0  0  0  0  0  0  0  0
    8.9892   -0.7926   25.4573 C   0  0  0  0  0  0  0  0  0  0  0  0
   10.5677   -3.4462   20.5323 C   0  0  0  0  0  0  0  0  0  0  0  0
  1  8  1  0
  1 12  4  0
  1 14  4  0
  2  3  4  0
  2 18  4  0
  3 20  4  0
  3 22  4  0
  4 11  4  0
  4 21  4  0
  5  9  4  0
  5 16  4  0
  6 15  4  0
  6 16  4  0
  7 22  4  0
  7 26  4  0
  8 10  4  0
  8 25  4  0
  9 15  4  0
  9 17  1  0
 10 21  4  0
 11 25  4  0
 12 23  4  0
 13 20  4  0
 13 26  4  0
 14 19  4  0
 17 18  4  0
 17 24  4  0
 19 23  4  0
 20 24  4  0
 23 26  1  0
M  END
$$$$

 Created by Python create_sdf_string function

 26 30  0  0  0  0  0  0  0  0999 V2000
   10.0084   -1.8019   23.4945 C   0  0  0  0  0  0  0  0  0  0  0  0
   10.0005   -4.2520   16.5631 C   0  0  0  0  0  0  0  0  0  0  0  0
   10.2759   -4.0036   17.8845 C   0  0  0  0  0  0  0  0  0  0  0  0
    8.5652    1.5478   25.3778 N   0  0  0  0  0  0  0  0  0  0  0  0
    6.8048   -7.5457   17.8752 C   0  0  0  0  0  0  0  0  0  0  0  0
    6.1721   -8.2186   15.9886 N   0  0  0  0  0  0  0  0  0  0  0  0
   11.1764   -2.6600   19.5604 C   0  0  0  0  0  0  0  0  0  0  0  0
    9.5491   -0.6380   24.1912 C   0  0  0  0  0  0  0  0  0  0  0  0
    7.5337   -6.9256   16.9519 C   0  0  0  0  0  0  0  0  0  0  0  0
    9.6782    0.5671   23.5143 C   0  0  0  0  0  0  0  0  0  0  0  0
    8.4532    0.3482   26.0821 C   0  0  0  0  0  0  0  0  0  0  0  0
   10.4239   -1.7677   22.2230 N   0  0  0  0  0  0  0  0  0  0  0  0
    9.9468   -4.5953   20.1709 C   0  0  0  0  0  0  0  0  0  0  0  0
   10.0366   -3.0590   23.9864 N   0  0  0  0  0  0  0  0  0  0  0  0
    7.1191   -7.3636   15.7739 C   0  0  0  0  0  0  0  0  0  0  0  0
    5.9612   -8.3203   17.2732 N   0  0  0  0  0  0  0  0  0  0  0  0
    8.5296   -5.9814   17.1841 C   0  0  0  0  0  0  0  0  0  0  0  0
    9.1527   -5.2118   16.2116 C   0  0  0  0  0  0  0  0  0  0  0  0
   10.3364   -3.8368   22.9255 O   0  0  0  0  0  0  0  0  0  0  0  0
    9.6947   -4.8407   18.8534 C   0  0  0  0  0  0  0  0  0  0  0  0
    9.1596    1.7042   24.1381 C   0  0  0  0  0  0  0  0  0  0  0  0
   11.0456   -2.9774   18.2694 N   0  0  0  0  0  0  0  0  0  0  0  0
   10.4788   -3.0457   21.8593 C   0  0  0  0  0  0  0  0  0  0  0  0
    8.8693   -5.8099   18.4657 N   0  0  0  0  0  0  0  0  0  0  0  0
    8.9892   -0.7926   25.4573 C   0  0  0  0  0  0  0  0  0  0  0  0
   10.5677   -3.4462   20.5323 C   0  0  0  0  0  0  0  0  0  0  0  0
  1  8  1  0
  1 12  4  0
  1 14  4  0
  2  3  4  0
  2 18  4  0
  3 20  4  0
  3 22  4  0
  4 11  4  0
  4 21  4  0
  5  9  4  0
  5 16  4  0
  6 15  4  0
  6 16  4  0
  7 22  4  0
  7 26  4  0
  8 10  4  0
  8 25  4  0
  9 15  4  0
  9 17  1  0
 10 21  4  0
 11 25  4  0
 12 23  4  0
 13 20  4  0
 13 26  4  0
 14 19  4  0
 17 18  4  0
 17 24  4  0
 19 23  4  0
 20 24  4  0
 23 26  1  0
M  END
$$$$

 Created by Python create_sdf_string function

 26 30  0  0  0  0  0  0  0  0999 V2000
   10.0084   -1.8019   23.4945 C   0  0  0  0  0  0  0  0  0  0  0  0
   10.0005   -4.2520   16.5631 C   0  0  0  0  0  0  0  0  0  0  0  0
   10.2759   -4.0036   17.8845 C   0  0  0  0  0  0  0  0  0  0  0  0
    8.5652    1.5478   25.3778 N   0  0  0  0  0  0  0  0  0  0  0  0
    6.8048   -7.5457   17.8752 C   0  0  0  0  0  0  0  0  0  0  0  0
    6.1721   -8.2186   15.9886 N   0  0  0  0  0  0  0  0  0  0  0  0
   11.1764   -2.6600   19.5604 C   0  0  0  0  0  0  0  0  0  0  0  0
    9.5491   -0.6380   24.1912 C   0  0  0  0  0  0  0  0  0  0  0  0
    7.5337   -6.9256   16.9519 C   0  0  0  0  0  0  0  0  0  0  0  0
    9.6782    0.5671   23.5143 C   0  0  0  0  0  0  0  0  0  0  0  0
    8.4532    0.3482   26.0821 C   0  0  0  0  0  0  0  0  0  0  0  0
   10.4239   -1.7677   22.2230 N   0  0  0  0  0  0  0  0  0  0  0  0
    9.9468   -4.5953   20.1709 C   0  0  0  0  0  0  0  0  0  0  0  0
   10.0366   -3.0590   23.9864 N   0  0  0  0  0  0  0  0  0  0  0  0
    7.1191   -7.3636   15.7739 C   0  0  0  0  0  0  0  0  0  0  0  0
    5.9612   -8.3203   17.2732 N   0  0  0  0  0  0  0  0  0  0  0  0
    8.5296   -5.9814   17.1841 C   0  0  0  0  0  0  0  0  0  0  0  0
    9.1527   -5.2118   16.2116 C   0  0  0  0  0  0  0  0  0  0  0  0
   10.3364   -3.8368   22.9255 O   0  0  0  0  0  0  0  0  0  0  0  0
    9.6947   -4.8407   18.8534 C   0  0  0  0  0  0  0  0  0  0  0  0
    9.1596    1.7042   24.1381 C   0  0  0  0  0  0  0  0  0  0  0  0
   11.0456   -2.9774   18.2694 N   0  0  0  0  0  0  0  0  0  0  0  0
   10.4788   -3.0457   21.8593 C   0  0  0  0  0  0  0  0  0  0  0  0
    8.8693   -5.8099   18.4657 N   0  0  0  0  0  0  0  0  0  0  0  0
    8.9892   -0.7926   25.4573 C   0  0  0  0  0  0  0  0  0  0  0  0
   10.5677   -3.4462   20.5323 C   0  0  0  0  0  0  0  0  0  0  0  0
  1  8  1  0
  1 12  4  0
  1 14  4  0
  2  3  4  0
  2 18  4  0
  3 20  4  0
  3 22  4  0
  4 11  4  0
  4 21  4  0
  5  9  4  0
  5 16  4  0
  6 15  4  0
  6 16  4  0
  7 22  4  0
  7 26  4  0
  8 10  4  0
  8 25  4  0
  9 15  4  0
  9 17  1  0
 10 21  4  0
 11 25  4  0
 12 23  4  0
 13 20  4  0
 13 26  4  0
 14 19  4  0
 17 18  4  0
 17 24  4  0
 19 23  4  0
 20 24  4  0
 23 26  1  0
M  END
$$$$

 Created by Python create_sdf_string function

 26 30  0  0  0  0  0  0  0  0999 V2000
   10.0084   -1.8019   23.4945 C   0  0  0  0  0  0  0  0  0  0  0  0
   10.0005   -4.2520   16.5631 C   0  0  0  0  0  0  0  0  0  0  0  0
   10.2759   -4.0036   17.8845 C   0  0  0  0  0  0  0  0  0  0  0  0
    8.5652    1.5478   25.3778 N   0  0  0  0  0  0  0  0  0  0  0  0
    6.8048   -7.5457   17.8752 C   0  0  0  0  0  0  0  0  0  0  0  0
    6.1721   -8.2186   15.9886 N   0  0  0  0  0  0  0  0  0  0  0  0
   11.1764   -2.6600   19.5604 C   0  0  0  0  0  0  0  0  0  0  0  0
    9.5491   -0.6380   24.1912 C   0  0  0  0  0  0  0  0  0  0  0  0
    7.5337   -6.9256   16.9519 C   0  0  0  0  0  0  0  0  0  0  0  0
    9.6782    0.5671   23.5143 C   0  0  0  0  0  0  0  0  0  0  0  0
    8.4532    0.3482   26.0821 C   0  0  0  0  0  0  0  0  0  0  0  0
   10.4239   -1.7677   22.2230 N   0  0  0  0  0  0  0  0  0  0  0  0
    9.9468   -4.5953   20.1709 C   0  0  0  0  0  0  0  0  0  0  0  0
   10.0366   -3.0590   23.9864 N   0  0  0  0  0  0  0  0  0  0  0  0
    7.1191   -7.3636   15.7739 C   0  0  0  0  0  0  0  0  0  0  0  0
    5.9612   -8.3203   17.2732 N   0  0  0  0  0  0  0  0  0  0  0  0
    8.5296   -5.9814   17.1841 C   0  0  0  0  0  0  0  0  0  0  0  0
    9.1527   -5.2118   16.2116 C   0  0  0  0  0  0  0  0  0  0  0  0
   10.3364   -3.8368   22.9255 O   0  0  0  0  0  0  0  0  0  0  0  0
    9.6947   -4.8407   18.8534 C   0  0  0  0  0  0  0  0  0  0  0  0
    9.1596    1.7042   24.1381 C   0  0  0  0  0  0  0  0  0  0  0  0
   11.0456   -2.9774   18.2694 N   0  0  0  0  0  0  0  0  0  0  0  0
   10.4788   -3.0457   21.8593 C   0  0  0  0  0  0  0  0  0  0  0  0
    8.8693   -5.8099   18.4657 N   0  0  0  0  0  0  0  0  0  0  0  0
    8.9892   -0.7926   25.4573 C   0  0  0  0  0  0  0  0  0  0  0  0
   10.5677   -3.4462   20.5323 C   0  0  0  0  0  0  0  0  0  0  0  0
  1  8  1  0
  1 12  4  0
  1 14  4  0
  2  3  4  0
  2 18  4  0
  3 20  4  0
  3 22  4  0
  4 11  4  0
  4 21  4  0
  5  9  4  0
  5 16  4  0
  6 15  4  0
  6 16  4  0
  7 22  4  0
  7 26  4  0
  8 10  4  0
  8 25  4  0
  9 15  4  0
  9 17  1  0
 10 21  4  0
 11 25  4  0
 12 23  4  0
 13 20  4  0
 13 26  4  0
 14 19  4  0
 17 18  4  0
 17 24  4  0
 19 23  4  0
 20 24  4  0
 23 26  1  0
M  END
$$$$

 Created by Python create_sdf_string function

 26 30  0  0  0  0  0  0  0  0999 V2000
   10.0084   -1.8019   23.4945 C   0  0  0  0  0  0  0  0  0  0  0  0
   10.0005   -4.2520   16.5631 C   0  0  0  0  0  0  0  0  0  0  0  0
   10.2759   -4.0036   17.8845 C   0  0  0  0  0  0  0  0  0  0  0  0
    8.5652    1.5478   25.3778 N   0  0  0  0  0  0  0  0  0  0  0  0
    6.8048   -7.5457   17.8752 C   0  0  0  0  0  0  0  0  0  0  0  0
    6.1721   -8.2186   15.9886 N   0  0  0  0  0  0  0  0  0  0  0  0
   11.1764   -2.6600   19.5604 C   0  0  0  0  0  0  0  0  0  0  0  0
    9.5491   -0.6380   24.1912 C   0  0  0  0  0  0  0  0  0  0  0  0
    7.5337   -6.9256   16.9519 C   0  0  0  0  0  0  0  0  0  0  0  0
    9.6782    0.5671   23.5143 C   0  0  0  0  0  0  0  0  0  0  0  0
    8.4532    0.3482   26.0821 C   0  0  0  0  0  0  0  0  0  0  0  0
   10.4239   -1.7677   22.2230 N   0  0  0  0  0  0  0  0  0  0  0  0
    9.9468   -4.5953   20.1709 C   0  0  0  0  0  0  0  0  0  0  0  0
   10.0366   -3.0590   23.9864 N   0  0  0  0  0  0  0  0  0  0  0  0
    7.1191   -7.3636   15.7739 C   0  0  0  0  0  0  0  0  0  0  0  0
    5.9612   -8.3203   17.2732 N   0  0  0  0  0  0  0  0  0  0  0  0
    8.5296   -5.9814   17.1841 C   0  0  0  0  0  0  0  0  0  0  0  0
    9.1527   -5.2118   16.2116 C   0  0  0  0  0  0  0  0  0  0  0  0
   10.3364   -3.8368   22.9255 O   0  0  0  0  0  0  0  0  0  0  0  0
    9.6947   -4.8407   18.8534 C   0  0  0  0  0  0  0  0  0  0  0  0
    9.1596    1.7042   24.1381 C   0  0  0  0  0  0  0  0  0  0  0  0
   11.0456   -2.9774   18.2694 N   0  0  0  0  0  0  0  0  0  0  0  0
   10.4788   -3.0457   21.8593 C   0  0  0  0  0  0  0  0  0  0  0  0
    8.8693   -5.8099   18.4657 N   0  0  0  0  0  0  0  0  0  0  0  0
    8.9892   -0.7926   25.4573 C   0  0  0  0  0  0  0  0  0  0  0  0
   10.5677   -3.4462   20.5323 C   0  0  0  0  0  0  0  0  0  0  0  0
  1  8  1  0
  1 12  4  0
  1 14  4  0
  2  3  4  0
  2 18  4  0
  3 20  4  0
  3 22  4  0
  4 11  4  0
  4 21  4  0
  5  9  4  0
  5 16  4  0
  6 15  4  0
  6 16  4  0
  7 22  4  0
  7 26  4  0
  8 10  4  0
  8 25  4  0
  9 15  4  0
  9 17  1  0
 10 21  4  0
 11 25  4  0
 12 23  4  0
 13 20  4  0
 13 26  4  0
 14 19  4  0
 17 18  4  0
 17 24  4  0
 19 23  4  0
 20 24  4  0
 23 26  1  0
M  END
$$$$

 Created by Python create_sdf_string function

 26 30  0  0  0  0  0  0  0  0999 V2000
   10.0084   -1.8019   23.4945 C   0  0  0  0  0  0  0  0  0  0  0  0
   10.0005   -4.2520   16.5631 C   0  0  0  0  0  0  0  0  0  0  0  0
   10.2759   -4.0036   17.8845 C   0  0  0  0  0  0  0  0  0  0  0  0
    8.5652    1.5478   25.3778 N   0  0  0  0  0  0  0  0  0  0  0  0
    6.8048   -7.5457   17.8752 C   0  0  0  0  0  0  0  0  0  0  0  0
    6.1721   -8.2186   15.9886 N   0  0  0  0  0  0  0  0  0  0  0  0
   11.1764   -2.6600   19.5604 C   0  0  0  0  0  0  0  0  0  0  0  0
    9.5491   -0.6380   24.1912 C   0  0  0  0  0  0  0  0  0  0  0  0
    7.5337   -6.9256   16.9519 C   0  0  0  0  0  0  0  0  0  0  0  0
    9.6782    0.5671   23.5143 C   0  0  0  0  0  0  0  0  0  0  0  0
    8.4532    0.3482   26.0821 C   0  0  0  0  0  0  0  0  0  0  0  0
   10.4239   -1.7677   22.2230 N   0  0  0  0  0  0  0  0  0  0  0  0
    9.9468   -4.5953   20.1709 C   0  0  0  0  0  0  0  0  0  0  0  0
   10.0366   -3.0590   23.9864 N   0  0  0  0  0  0  0  0  0  0  0  0
    7.1191   -7.3636   15.7739 C   0  0  0  0  0  0  0  0  0  0  0  0
    5.9612   -8.3203   17.2732 N   0  0  0  0  0  0  0  0  0  0  0  0
    8.5296   -5.9814   17.1841 C   0  0  0  0  0  0  0  0  0  0  0  0
    9.1527   -5.2118   16.2116 C   0  0  0  0  0  0  0  0  0  0  0  0
   10.3364   -3.8368   22.9255 O   0  0  0  0  0  0  0  0  0  0  0  0
    9.6947   -4.8407   18.8534 C   0  0  0  0  0  0  0  0  0  0  0  0
    9.1596    1.7042   24.1381 C   0  0  0  0  0  0  0  0  0  0  0  0
   11.0456   -2.9774   18.2694 N   0  0  0  0  0  0  0  0  0  0  0  0
   10.4788   -3.0457   21.8593 C   0  0  0  0  0  0  0  0  0  0  0  0
    8.8693   -5.8099   18.4657 N   0  0  0  0  0  0  0  0  0  0  0  0
    8.9892   -0.7926   25.4573 C   0  0  0  0  0  0  0  0  0  0  0  0
   10.5677   -3.4462   20.5323 C   0  0  0  0  0  0  0  0  0  0  0  0
  1  8  1  0
  1 12  4  0
  1 14  4  0
  2  3  4  0
  2 18  4  0
  3 20  4  0
  3 22  4  0
  4 11  4  0
  4 21  4  0
  5  9  4  0
  5 16  4  0
  6 15  4  0
  6 16  4  0
  7 22  4  0
  7 26  4  0
  8 10  4  0
  8 25  4  0
  9 15  4  0
  9 17  1  0
 10 21  4  0
 11 25  4  0
 12 23  4  0
 13 20  4  0
 13 26  4  0
 14 19  4  0
 17 18  4  0
 17 24  4  0
 19 23  4  0
 20 24  4  0
 23 26  1  0
M  END
$$$$

 Created by Python create_sdf_string function

 26 30  0  0  0  0  0  0  0  0999 V2000
   10.0084   -1.8019   23.4945 C   0  0  0  0  0  0  0  0  0  0  0  0
   10.0005   -4.2520   16.5631 C   0  0  0  0  0  0  0  0  0  0  0  0
   10.2759   -4.0036   17.8845 C   0  0  0  0  0  0  0  0  0  0  0  0
    8.5652    1.5478   25.3778 N   0  0  0  0  0  0  0  0  0  0  0  0
    6.8048   -7.5457   17.8752 C   0  0  0  0  0  0  0  0  0  0  0  0
    6.1721   -8.2186   15.9886 N   0  0  0  0  0  0  0  0  0  0  0  0
   11.1764   -2.6600   19.5604 C   0  0  0  0  0  0  0  0  0  0  0  0
    9.5491   -0.6380   24.1912 C   0  0  0  0  0  0  0  0  0  0  0  0
    7.5337   -6.9256   16.9519 C   0  0  0  0  0  0  0  0  0  0  0  0
    9.6782    0.5671   23.5143 C   0  0  0  0  0  0  0  0  0  0  0  0
    8.4532    0.3482   26.0821 C   0  0  0  0  0  0  0  0  0  0  0  0
   10.4239   -1.7677   22.2230 N   0  0  0  0  0  0  0  0  0  0  0  0
    9.9468   -4.5953   20.1709 C   0  0  0  0  0  0  0  0  0  0  0  0
   10.0366   -3.0590   23.9864 N   0  0  0  0  0  0  0  0  0  0  0  0
    7.1191   -7.3636   15.7739 C   0  0  0  0  0  0  0  0  0  0  0  0
    5.9612   -8.3203   17.2732 N   0  0  0  0  0  0  0  0  0  0  0  0
    8.5296   -5.9814   17.1841 C   0  0  0  0  0  0  0  0  0  0  0  0
    9.1527   -5.2118   16.2116 C   0  0  0  0  0  0  0  0  0  0  0  0
   10.3364   -3.8368   22.9255 O   0  0  0  0  0  0  0  0  0  0  0  0
    9.6947   -4.8407   18.8534 C   0  0  0  0  0  0  0  0  0  0  0  0
    9.1596    1.7042   24.1381 C   0  0  0  0  0  0  0  0  0  0  0  0
   11.0456   -2.9774   18.2694 N   0  0  0  0  0  0  0  0  0  0  0  0
   10.4788   -3.0457   21.8593 C   0  0  0  0  0  0  0  0  0  0  0  0
    8.8693   -5.8099   18.4657 N   0  0  0  0  0  0  0  0  0  0  0  0
    8.9892   -0.7926   25.4573 C   0  0  0  0  0  0  0  0  0  0  0  0
   10.5677   -3.4462   20.5323 C   0  0  0  0  0  0  0  0  0  0  0  0
  1  8  1  0
  1 12  4  0
  1 14  4  0
  2  3  4  0
  2 18  4  0
  3 20  4  0
  3 22  4  0
  4 11  4  0
  4 21  4  0
  5  9  4  0
  5 16  4  0
  6 15  4  0
  6 16  4  0
  7 22  4  0
  7 26  4  0
  8 10  4  0
  8 25  4  0
  9 15  4  0
  9 17  1  0
 10 21  4  0
 11 25  4  0
 12 23  4  0
 13 20  4  0
 13 26  4  0
 14 19  4  0
 17 18  4  0
 17 24  4  0
 19 23  4  0
 20 24  4  0
 23 26  1  0
M  END
$$$$

 Created by Python create_sdf_string function

 26 30  0  0  0  0  0  0  0  0999 V2000
   10.0084   -1.8019   23.4945 C   0  0  0  0  0  0  0  0  0  0  0  0
   10.0005   -4.2520   16.5631 C   0  0  0  0  0  0  0  0  0  0  0  0
   10.2759   -4.0036   17.8845 C   0  0  0  0  0  0  0  0  0  0  0  0
    8.5652    1.5478   25.3778 N   0  0  0  0  0  0  0  0  0  0  0  0
    6.8048   -7.5457   17.8752 C   0  0  0  0  0  0  0  0  0  0  0  0
    6.1721   -8.2186   15.9886 N   0  0  0  0  0  0  0  0  0  0  0  0
   11.1764   -2.6600   19.5604 C   0  0  0  0  0  0  0  0  0  0  0  0
    9.5491   -0.6380   24.1912 C   0  0  0  0  0  0  0  0  0  0  0  0
    7.5337   -6.9256   16.9519 C   0  0  0  0  0  0  0  0  0  0  0  0
    9.6782    0.5671   23.5143 C   0  0  0  0  0  0  0  0  0  0  0  0
    8.4532    0.3482   26.0821 C   0  0  0  0  0  0  0  0  0  0  0  0
   10.4239   -1.7677   22.2230 N   0  0  0  0  0  0  0  0  0  0  0  0
    9.9468   -4.5953   20.1709 C   0  0  0  0  0  0  0  0  0  0  0  0
   10.0366   -3.0590   23.9864 N   0  0  0  0  0  0  0  0  0  0  0  0
    7.1191   -7.3636   15.7739 C   0  0  0  0  0  0  0  0  0  0  0  0
    5.9612   -8.3203   17.2732 N   0  0  0  0  0  0  0  0  0  0  0  0
    8.5296   -5.9814   17.1841 C   0  0  0  0  0  0  0  0  0  0  0  0
    9.1527   -5.2118   16.2116 C   0  0  0  0  0  0  0  0  0  0  0  0
   10.3364   -3.8368   22.9255 O   0  0  0  0  0  0  0  0  0  0  0  0
    9.6947   -4.8407   18.8534 C   0  0  0  0  0  0  0  0  0  0  0  0
    9.1596    1.7042   24.1381 C   0  0  0  0  0  0  0  0  0  0  0  0
   11.0456   -2.9774   18.2694 N   0  0  0  0  0  0  0  0  0  0  0  0
   10.4788   -3.0457   21.8593 C   0  0  0  0  0  0  0  0  0  0  0  0
    8.8693   -5.8099   18.4657 N   0  0  0  0  0  0  0  0  0  0  0  0
    8.9892   -0.7926   25.4573 C   0  0  0  0  0  0  0  0  0  0  0  0
   10.5677   -3.4462   20.5323 C   0  0  0  0  0  0  0  0  0  0  0  0
  1  8  1  0
  1 12  4  0
  1 14  4  0
  2  3  4  0
  2 18  4  0
  3 20  4  0
  3 22  4  0
  4 11  4  0
  4 21  4  0
  5  9  4  0
  5 16  4  0
  6 15  4  0
  6 16  4  0
  7 22  4  0
  7 26  4  0
  8 10  4  0
  8 25  4  0
  9 15  4  0
  9 17  1  0
 10 21  4  0
 11 25  4  0
 12 23  4  0
 13 20  4  0
 13 26  4  0
 14 19  4  0
 17 18  4  0
 17 24  4  0
 19 23  4  0
 20 24  4  0
 23 26  1  0
M  END
$$$$

 Created by Python create_sdf_string function

 26 30  0  0  0  0  0  0  0  0999 V2000
   10.0084   -1.8019   23.4945 C   0  0  0  0  0  0  0  0  0  0  0  0
   10.0005   -4.2520   16.5631 C   0  0  0  0  0  0  0  0  0  0  0  0
   10.2759   -4.0036   17.8845 C   0  0  0  0  0  0  0  0  0  0  0  0
    8.5652    1.5478   25.3778 N   0  0  0  0  0  0  0  0  0  0  0  0
    6.8048   -7.5457   17.8752 C   0  0  0  0  0  0  0  0  0  0  0  0
    6.1721   -8.2186   15.9886 N   0  0  0  0  0  0  0  0  0  0  0  0
   11.1764   -2.6600   19.5604 C   0  0  0  0  0  0  0  0  0  0  0  0
    9.5491   -0.6380   24.1912 C   0  0  0  0  0  0  0  0  0  0  0  0
    7.5337   -6.9256   16.9519 C   0  0  0  0  0  0  0  0  0  0  0  0
    9.6782    0.5671   23.5143 C   0  0  0  0  0  0  0  0  0  0  0  0
    8.4532    0.3482   26.0821 C   0  0  0  0  0  0  0  0  0  0  0  0
   10.4239   -1.7677   22.2230 N   0  0  0  0  0  0  0  0  0  0  0  0
    9.9468   -4.5953   20.1709 C   0  0  0  0  0  0  0  0  0  0  0  0
   10.0366   -3.0590   23.9864 N   0  0  0  0  0  0  0  0  0  0  0  0
    7.1191   -7.3636   15.7739 C   0  0  0  0  0  0  0  0  0  0  0  0
    5.9612   -8.3203   17.2732 N   0  0  0  0  0  0  0  0  0  0  0  0
    8.5296   -5.9814   17.1841 C   0  0  0  0  0  0  0  0  0  0  0  0
    9.1527   -5.2118   16.2116 C   0  0  0  0  0  0  0  0  0  0  0  0
   10.3364   -3.8368   22.9255 O   0  0  0  0  0  0  0  0  0  0  0  0
    9.6947   -4.8407   18.8534 C   0  0  0  0  0  0  0  0  0  0  0  0
    9.1596    1.7042   24.1381 C   0  0  0  0  0  0  0  0  0  0  0  0
   11.0456   -2.9774   18.2694 N   0  0  0  0  0  0  0  0  0  0  0  0
   10.4788   -3.0457   21.8593 C   0  0  0  0  0  0  0  0  0  0  0  0
    8.8693   -5.8099   18.4657 N   0  0  0  0  0  0  0  0  0  0  0  0
    8.9892   -0.7926   25.4573 C   0  0  0  0  0  0  0  0  0  0  0  0
   10.5677   -3.4462   20.5323 C   0  0  0  0  0  0  0  0  0  0  0  0
  1  8  1  0
  1 12  4  0
  1 14  4  0
  2  3  4  0
  2 18  4  0
  3 20  4  0
  3 22  4  0
  4 11  4  0
  4 21  4  0
  5  9  4  0
  5 16  4  0
  6 15  4  0
  6 16  4  0
  7 22  4  0
  7 26  4  0
  8 10  4  0
  8 25  4  0
  9 15  4  0
  9 17  1  0
 10 21  4  0
 11 25  4  0
 12 23  4  0
 13 20  4  0
 13 26  4  0
 14 19  4  0
 17 18  4  0
 17 24  4  0
 19 23  4  0
 20 24  4  0
 23 26  1  0
M  END
$$$$

 Created by Python create_sdf_string function

 26 30  0  0  0  0  0  0  0  0999 V2000
   10.0084   -1.8019   23.4945 C   0  0  0  0  0  0  0  0  0  0  0  0
   10.0005   -4.2520   16.5631 C   0  0  0  0  0  0  0  0  0  0  0  0
   10.2759   -4.0036   17.8845 C   0  0  0  0  0  0  0  0  0  0  0  0
    8.5652    1.5478   25.3778 N   0  0  0  0  0  0  0  0  0  0  0  0
    6.8048   -7.5457   17.8752 C   0  0  0  0  0  0  0  0  0  0  0  0
    6.1721   -8.2186   15.9886 N   0  0  0  0  0  0  0  0  0  0  0  0
   11.1764   -2.6600   19.5604 C   0  0  0  0  0  0  0  0  0  0  0  0
    9.5491   -0.6380   24.1912 C   0  0  0  0  0  0  0  0  0  0  0  0
    7.5337   -6.9256   16.9519 C   0  0  0  0  0  0  0  0  0  0  0  0
    9.6782    0.5671   23.5143 C   0  0  0  0  0  0  0  0  0  0  0  0
    8.4532    0.3482   26.0821 C   0  0  0  0  0  0  0  0  0  0  0  0
   10.4239   -1.7677   22.2230 N   0  0  0  0  0  0  0  0  0  0  0  0
    9.9468   -4.5953   20.1709 C   0  0  0  0  0  0  0  0  0  0  0  0
   10.0366   -3.0590   23.9864 N   0  0  0  0  0  0  0  0  0  0  0  0
    7.1191   -7.3636   15.7739 C   0  0  0  0  0  0  0  0  0  0  0  0
    5.9612   -8.3203   17.2732 N   0  0  0  0  0  0  0  0  0  0  0  0
    8.5296   -5.9814   17.1841 C   0  0  0  0  0  0  0  0  0  0  0  0
    9.1527   -5.2118   16.2116 C   0  0  0  0  0  0  0  0  0  0  0  0
   10.3364   -3.8368   22.9255 O   0  0  0  0  0  0  0  0  0  0  0  0
    9.6947   -4.8407   18.8534 C   0  0  0  0  0  0  0  0  0  0  0  0
    9.1596    1.7042   24.1381 C   0  0  0  0  0  0  0  0  0  0  0  0
   11.0456   -2.9774   18.2694 N   0  0  0  0  0  0  0  0  0  0  0  0
   10.4788   -3.0457   21.8593 C   0  0  0  0  0  0  0  0  0  0  0  0
    8.8693   -5.8099   18.4657 N   0  0  0  0  0  0  0  0  0  0  0  0
    8.9892   -0.7926   25.4573 C   0  0  0  0  0  0  0  0  0  0  0  0
   10.5677   -3.4462   20.5323 C   0  0  0  0  0  0  0  0  0  0  0  0
  1  8  1  0
  1 12  4  0
  1 14  4  0
  2  3  4  0
  2 18  4  0
  3 20  4  0
  3 22  4  0
  4 11  4  0
  4 21  4  0
  5  9  4  0
  5 16  4  0
  6 15  4  0
  6 16  4  0
  7 22  4  0
  7 26  4  0
  8 10  4  0
  8 25  4  0
  9 15  4  0
  9 17  1  0
 10 21  4  0
 11 25  4  0
 12 23  4  0
 13 20  4  0
 13 26  4  0
 14 19  4  0
 17 18  4  0
 17 24  4  0
 19 23  4  0
 20 24  4  0
 23 26  1  0
M  END
$$$$

 Created by Python create_sdf_string function

 26 30  0  0  0  0  0  0  0  0999 V2000
   10.0084   -1.8019   23.4945 C   0  0  0  0  0  0  0  0  0  0  0  0
   10.0005   -4.2520   16.5631 C   0  0  0  0  0  0  0  0  0  0  0  0
   10.2759   -4.0036   17.8845 C   0  0  0  0  0  0  0  0  0  0  0  0
    8.5652    1.5478   25.3778 N   0  0  0  0  0  0  0  0  0  0  0  0
    6.8048   -7.5457   17.8752 C   0  0  0  0  0  0  0  0  0  0  0  0
    6.1721   -8.2186   15.9886 N   0  0  0  0  0  0  0  0  0  0  0  0
   11.1764   -2.6600   19.5604 C   0  0  0  0  0  0  0  0  0  0  0  0
    9.5491   -0.6380   24.1912 C   0  0  0  0  0  0  0  0  0  0  0  0
    7.5337   -6.9256   16.9519 C   0  0  0  0  0  0  0  0  0  0  0  0
    9.6782    0.5671   23.5143 C   0  0  0  0  0  0  0  0  0  0  0  0
    8.4532    0.3482   26.0821 C   0  0  0  0  0  0  0  0  0  0  0  0
   10.4239   -1.7677   22.2230 N   0  0  0  0  0  0  0  0  0  0  0  0
    9.9468   -4.5953   20.1709 C   0  0  0  0  0  0  0  0  0  0  0  0
   10.0366   -3.0590   23.9864 N   0  0  0  0  0  0  0  0  0  0  0  0
    7.1191   -7.3636   15.7739 C   0  0  0  0  0  0  0  0  0  0  0  0
    5.9612   -8.3203   17.2732 N   0  0  0  0  0  0  0  0  0  0  0  0
    8.5296   -5.9814   17.1841 C   0  0  0  0  0  0  0  0  0  0  0  0
    9.1527   -5.2118   16.2116 C   0  0  0  0  0  0  0  0  0  0  0  0
   10.3364   -3.8368   22.9255 O   0  0  0  0  0  0  0  0  0  0  0  0
    9.6947   -4.8407   18.8534 C   0  0  0  0  0  0  0  0  0  0  0  0
    9.1596    1.7042   24.1381 C   0  0  0  0  0  0  0  0  0  0  0  0
   11.0456   -2.9774   18.2694 N   0  0  0  0  0  0  0  0  0  0  0  0
   10.4788   -3.0457   21.8593 C   0  0  0  0  0  0  0  0  0  0  0  0
    8.8693   -5.8099   18.4657 N   0  0  0  0  0  0  0  0  0  0  0  0
    8.9892   -0.7926   25.4573 C   0  0  0  0  0  0  0  0  0  0  0  0
   10.5677   -3.4462   20.5323 C   0  0  0  0  0  0  0  0  0  0  0  0
  1  8  1  0
  1 12  4  0
  1 14  4  0
  2  3  4  0
  2 18  4  0
  3 20  4  0
  3 22  4  0
  4 11  4  0
  4 21  4  0
  5  9  4  0
  5 16  4  0
  6 15  4  0
  6 16  4  0
  7 22  4  0
  7 26  4  0
  8 10  4  0
  8 25  4  0
  9 15  4  0
  9 17  1  0
 10 21  4  0
 11 25  4  0
 12 23  4  0
 13 20  4  0
 13 26  4  0
 14 19  4  0
 17 18  4  0
 17 24  4  0
 19 23  4  0
 20 24  4  0
 23 26  1  0
M  END
$$$$

 Created by Python create_sdf_string function

 26 30  0  0  0  0  0  0  0  0999 V2000
   10.0084   -1.8019   23.4945 C   0  0  0  0  0  0  0  0  0  0  0  0
   10.0005   -4.2520   16.5631 C   0  0  0  0  0  0  0  0  0  0  0  0
   10.2759   -4.0036   17.8845 C   0  0  0  0  0  0  0  0  0  0  0  0
    8.5652    1.5478   25.3778 N   0  0  0  0  0  0  0  0  0  0  0  0
    6.8048   -7.5457   17.8752 C   0  0  0  0  0  0  0  0  0  0  0  0
    6.1721   -8.2186   15.9886 N   0  0  0  0  0  0  0  0  0  0  0  0
   11.1764   -2.6600   19.5604 C   0  0  0  0  0  0  0  0  0  0  0  0
    9.5491   -0.6380   24.1912 C   0  0  0  0  0  0  0  0  0  0  0  0
    7.5337   -6.9256   16.9519 C   0  0  0  0  0  0  0  0  0  0  0  0
    9.6782    0.5671   23.5143 C   0  0  0  0  0  0  0  0  0  0  0  0
    8.4532    0.3482   26.0821 C   0  0  0  0  0  0  0  0  0  0  0  0
   10.4239   -1.7677   22.2230 N   0  0  0  0  0  0  0  0  0  0  0  0
    9.9468   -4.5953   20.1709 C   0  0  0  0  0  0  0  0  0  0  0  0
   10.0366   -3.0590   23.9864 N   0  0  0  0  0  0  0  0  0  0  0  0
    7.1191   -7.3636   15.7739 C   0  0  0  0  0  0  0  0  0  0  0  0
    5.9612   -8.3203   17.2732 N   0  0  0  0  0  0  0  0  0  0  0  0
    8.5296   -5.9814   17.1841 C   0  0  0  0  0  0  0  0  0  0  0  0
    9.1527   -5.2118   16.2116 C   0  0  0  0  0  0  0  0  0  0  0  0
   10.3364   -3.8368   22.9255 O   0  0  0  0  0  0  0  0  0  0  0  0
    9.6947   -4.8407   18.8534 C   0  0  0  0  0  0  0  0  0  0  0  0
    9.1596    1.7042   24.1381 C   0  0  0  0  0  0  0  0  0  0  0  0
   11.0456   -2.9774   18.2694 N   0  0  0  0  0  0  0  0  0  0  0  0
   10.4788   -3.0457   21.8593 C   0  0  0  0  0  0  0  0  0  0  0  0
    8.8693   -5.8099   18.4657 N   0  0  0  0  0  0  0  0  0  0  0  0
    8.9892   -0.7926   25.4573 C   0  0  0  0  0  0  0  0  0  0  0  0
   10.5677   -3.4462   20.5323 C   0  0  0  0  0  0  0  0  0  0  0  0
  1  8  1  0
  1 12  4  0
  1 14  4  0
  2  3  4  0
  2 18  4  0
  3 20  4  0
  3 22  4  0
  4 11  4  0
  4 21  4  0
  5  9  4  0
  5 16  4  0
  6 15  4  0
  6 16  4  0
  7 22  4  0
  7 26  4  0
  8 10  4  0
  8 25  4  0
  9 15  4  0
  9 17  1  0
 10 21  4  0
 11 25  4  0
 12 23  4  0
 13 20  4  0
 13 26  4  0
 14 19  4  0
 17 18  4  0
 17 24  4  0
 19 23  4  0
 20 24  4  0
 23 26  1  0
M  END
$$$$

 Created by Python create_sdf_string function

 26 30  0  0  0  0  0  0  0  0999 V2000
   10.0084   -1.8019   23.4945 C   0  0  0  0  0  0  0  0  0  0  0  0
   10.0005   -4.2520   16.5631 C   0  0  0  0  0  0  0  0  0  0  0  0
   10.2759   -4.0036   17.8845 C   0  0  0  0  0  0  0  0  0  0  0  0
    8.5652    1.5478   25.3778 N   0  0  0  0  0  0  0  0  0  0  0  0
    6.8048   -7.5457   17.8752 C   0  0  0  0  0  0  0  0  0  0  0  0
    6.1721   -8.2186   15.9886 N   0  0  0  0  0  0  0  0  0  0  0  0
   11.1764   -2.6600   19.5604 C   0  0  0  0  0  0  0  0  0  0  0  0
    9.5491   -0.6380   24.1912 C   0  0  0  0  0  0  0  0  0  0  0  0
    7.5337   -6.9256   16.9519 C   0  0  0  0  0  0  0  0  0  0  0  0
    9.6782    0.5671   23.5143 C   0  0  0  0  0  0  0  0  0  0  0  0
    8.4532    0.3482   26.0821 C   0  0  0  0  0  0  0  0  0  0  0  0
   10.4239   -1.7677   22.2230 N   0  0  0  0  0  0  0  0  0  0  0  0
    9.9468   -4.5953   20.1709 C   0  0  0  0  0  0  0  0  0  0  0  0
   10.0366   -3.0590   23.9864 N   0  0  0  0  0  0  0  0  0  0  0  0
    7.1191   -7.3636   15.7739 C   0  0  0  0  0  0  0  0  0  0  0  0
    5.9612   -8.3203   17.2732 N   0  0  0  0  0  0  0  0  0  0  0  0
    8.5296   -5.9814   17.1841 C   0  0  0  0  0  0  0  0  0  0  0  0
    9.1527   -5.2118   16.2116 C   0  0  0  0  0  0  0  0  0  0  0  0
   10.3364   -3.8368   22.9255 O   0  0  0  0  0  0  0  0  0  0  0  0
    9.6947   -4.8407   18.8534 C   0  0  0  0  0  0  0  0  0  0  0  0
    9.1596    1.7042   24.1381 C   0  0  0  0  0  0  0  0  0  0  0  0
   11.0456   -2.9774   18.2694 N   0  0  0  0  0  0  0  0  0  0  0  0
   10.4788   -3.0457   21.8593 C   0  0  0  0  0  0  0  0  0  0  0  0
    8.8693   -5.8099   18.4657 N   0  0  0  0  0  0  0  0  0  0  0  0
    8.9892   -0.7926   25.4573 C   0  0  0  0  0  0  0  0  0  0  0  0
   10.5677   -3.4462   20.5323 C   0  0  0  0  0  0  0  0  0  0  0  0
  1  8  1  0
  1 12  4  0
  1 14  4  0
  2  3  4  0
  2 18  4  0
  3 20  4  0
  3 22  4  0
  4 11  4  0
  4 21  4  0
  5  9  4  0
  5 16  4  0
  6 15  4  0
  6 16  4  0
  7 22  4  0
  7 26  4  0
  8 10  4  0
  8 25  4  0
  9 15  4  0
  9 17  1  0
 10 21  4  0
 11 25  4  0
 12 23  4  0
 13 20  4  0
 13 26  4  0
 14 19  4  0
 17 18  4  0
 17 24  4  0
 19 23  4  0
 20 24  4  0
 23 26  1  0
M  END
$$$$

 Created by Python create_sdf_string function

 26 30  0  0  0  0  0  0  0  0999 V2000
   10.0084   -1.8019   23.4945 C   0  0  0  0  0  0  0  0  0  0  0  0
   10.0005   -4.2520   16.5631 C   0  0  0  0  0  0  0  0  0  0  0  0
   10.2759   -4.0036   17.8845 C   0  0  0  0  0  0  0  0  0  0  0  0
    8.5652    1.5478   25.3778 N   0  0  0  0  0  0  0  0  0  0  0  0
    6.8048   -7.5457   17.8752 C   0  0  0  0  0  0  0  0  0  0  0  0
    6.1721   -8.2186   15.9886 N   0  0  0  0  0  0  0  0  0  0  0  0
   11.1764   -2.6600   19.5604 C   0  0  0  0  0  0  0  0  0  0  0  0
    9.5491   -0.6380   24.1912 C   0  0  0  0  0  0  0  0  0  0  0  0
    7.5337   -6.9256   16.9519 C   0  0  0  0  0  0  0  0  0  0  0  0
    9.6782    0.5671   23.5143 C   0  0  0  0  0  0  0  0  0  0  0  0
    8.4532    0.3482   26.0821 C   0  0  0  0  0  0  0  0  0  0  0  0
   10.4239   -1.7677   22.2230 N   0  0  0  0  0  0  0  0  0  0  0  0
    9.9468   -4.5953   20.1709 C   0  0  0  0  0  0  0  0  0  0  0  0
   10.0366   -3.0590   23.9864 N   0  0  0  0  0  0  0  0  0  0  0  0
    7.1191   -7.3636   15.7739 C   0  0  0  0  0  0  0  0  0  0  0  0
    5.9612   -8.3203   17.2732 N   0  0  0  0  0  0  0  0  0  0  0  0
    8.5296   -5.9814   17.1841 C   0  0  0  0  0  0  0  0  0  0  0  0
    9.1527   -5.2118   16.2116 C   0  0  0  0  0  0  0  0  0  0  0  0
   10.3364   -3.8368   22.9255 O   0  0  0  0  0  0  0  0  0  0  0  0
    9.6947   -4.8407   18.8534 C   0  0  0  0  0  0  0  0  0  0  0  0
    9.1596    1.7042   24.1381 C   0  0  0  0  0  0  0  0  0  0  0  0
   11.0456   -2.9774   18.2694 N   0  0  0  0  0  0  0  0  0  0  0  0
   10.4788   -3.0457   21.8593 C   0  0  0  0  0  0  0  0  0  0  0  0
    8.8693   -5.8099   18.4657 N   0  0  0  0  0  0  0  0  0  0  0  0
    8.9892   -0.7926   25.4573 C   0  0  0  0  0  0  0  0  0  0  0  0
   10.5677   -3.4462   20.5323 C   0  0  0  0  0  0  0  0  0  0  0  0
  1  8  1  0
  1 12  4  0
  1 14  4  0
  2  3  4  0
  2 18  4  0
  3 20  4  0
  3 22  4  0
  4 11  4  0
  4 21  4  0
  5  9  4  0
  5 16  4  0
  6 15  4  0
  6 16  4  0
  7 22  4  0
  7 26  4  0
  8 10  4  0
  8 25  4  0
  9 15  4  0
  9 17  1  0
 10 21  4  0
 11 25  4  0
 12 23  4  0
 13 20  4  0
 13 26  4  0
 14 19  4  0
 17 18  4  0
 17 24  4  0
 19 23  4  0
 20 24  4  0
 23 26  1  0
M  END
$$$$

 Created by Python create_sdf_string function

 26 30  0  0  0  0  0  0  0  0999 V2000
   10.0084   -1.8019   23.4945 C   0  0  0  0  0  0  0  0  0  0  0  0
   10.0005   -4.2520   16.5631 C   0  0  0  0  0  0  0  0  0  0  0  0
   10.2759   -4.0036   17.8845 C   0  0  0  0  0  0  0  0  0  0  0  0
    8.5652    1.5478   25.3778 N   0  0  0  0  0  0  0  0  0  0  0  0
    6.8048   -7.5457   17.8752 C   0  0  0  0  0  0  0  0  0  0  0  0
    6.1721   -8.2186   15.9886 N   0  0  0  0  0  0  0  0  0  0  0  0
   11.1764   -2.6600   19.5604 C   0  0  0  0  0  0  0  0  0  0  0  0
    9.5491   -0.6380   24.1912 C   0  0  0  0  0  0  0  0  0  0  0  0
    7.5337   -6.9256   16.9519 C   0  0  0  0  0  0  0  0  0  0  0  0
    9.6782    0.5671   23.5143 C   0  0  0  0  0  0  0  0  0  0  0  0
    8.4532    0.3482   26.0821 C   0  0  0  0  0  0  0  0  0  0  0  0
   10.4239   -1.7677   22.2230 N   0  0  0  0  0  0  0  0  0  0  0  0
    9.9468   -4.5953   20.1709 C   0  0  0  0  0  0  0  0  0  0  0  0
   10.0366   -3.0590   23.9864 N   0  0  0  0  0  0  0  0  0  0  0  0
    7.1191   -7.3636   15.7739 C   0  0  0  0  0  0  0  0  0  0  0  0
    5.9612   -8.3203   17.2732 N   0  0  0  0  0  0  0  0  0  0  0  0
    8.5296   -5.9814   17.1841 C   0  0  0  0  0  0  0  0  0  0  0  0
    9.1527   -5.2118   16.2116 C   0  0  0  0  0  0  0  0  0  0  0  0
   10.3364   -3.8368   22.9255 O   0  0  0  0  0  0  0  0  0  0  0  0
    9.6947   -4.8407   18.8534 C   0  0  0  0  0  0  0  0  0  0  0  0
    9.1596    1.7042   24.1381 C   0  0  0  0  0  0  0  0  0  0  0  0
   11.0456   -2.9774   18.2694 N   0  0  0  0  0  0  0  0  0  0  0  0
   10.4788   -3.0457   21.8593 C   0  0  0  0  0  0  0  0  0  0  0  0
    8.8693   -5.8099   18.4657 N   0  0  0  0  0  0  0  0  0  0  0  0
    8.9892   -0.7926   25.4573 C   0  0  0  0  0  0  0  0  0  0  0  0
   10.5677   -3.4462   20.5323 C   0  0  0  0  0  0  0  0  0  0  0  0
  1  8  1  0
  1 12  4  0
  1 14  4  0
  2  3  4  0
  2 18  4  0
  3 20  4  0
  3 22  4  0
  4 11  4  0
  4 21  4  0
  5  9  4  0
  5 16  4  0
  6 15  4  0
  6 16  4  0
  7 22  4  0
  7 26  4  0
  8 10  4  0
  8 25  4  0
  9 15  4  0
  9 17  1  0
 10 21  4  0
 11 25  4  0
 12 23  4  0
 13 20  4  0
 13 26  4  0
 14 19  4  0
 17 18  4  0
 17 24  4  0
 19 23  4  0
 20 24  4  0
 23 26  1  0
M  END
$$$$

 Created by Python create_sdf_string function

 26 30  0  0  0  0  0  0  0  0999 V2000
   10.0084   -1.8019   23.4945 C   0  0  0  0  0  0  0  0  0  0  0  0
   10.0005   -4.2520   16.5631 C   0  0  0  0  0  0  0  0  0  0  0  0
   10.2759   -4.0036   17.8845 C   0  0  0  0  0  0  0  0  0  0  0  0
    8.5652    1.5478   25.3778 N   0  0  0  0  0  0  0  0  0  0  0  0
    6.8048   -7.5457   17.8752 C   0  0  0  0  0  0  0  0  0  0  0  0
    6.1721   -8.2186   15.9886 N   0  0  0  0  0  0  0  0  0  0  0  0
   11.1764   -2.6600   19.5604 C   0  0  0  0  0  0  0  0  0  0  0  0
    9.5491   -0.6380   24.1912 C   0  0  0  0  0  0  0  0  0  0  0  0
    7.5337   -6.9256   16.9519 C   0  0  0  0  0  0  0  0  0  0  0  0
    9.6782    0.5671   23.5143 C   0  0  0  0  0  0  0  0  0  0  0  0
    8.4532    0.3482   26.0821 C   0  0  0  0  0  0  0  0  0  0  0  0
   10.4239   -1.7677   22.2230 N   0  0  0  0  0  0  0  0  0  0  0  0
    9.9468   -4.5953   20.1709 C   0  0  0  0  0  0  0  0  0  0  0  0
   10.0366   -3.0590   23.9864 N   0  0  0  0  0  0  0  0  0  0  0  0
    7.1191   -7.3636   15.7739 C   0  0  0  0  0  0  0  0  0  0  0  0
    5.9612   -8.3203   17.2732 N   0  0  0  0  0  0  0  0  0  0  0  0
    8.5296   -5.9814   17.1841 C   0  0  0  0  0  0  0  0  0  0  0  0
    9.1527   -5.2118   16.2116 C   0  0  0  0  0  0  0  0  0  0  0  0
   10.3364   -3.8368   22.9255 O   0  0  0  0  0  0  0  0  0  0  0  0
    9.6947   -4.8407   18.8534 C   0  0  0  0  0  0  0  0  0  0  0  0
    9.1596    1.7042   24.1381 C   0  0  0  0  0  0  0  0  0  0  0  0
   11.0456   -2.9774   18.2694 N   0  0  0  0  0  0  0  0  0  0  0  0
   10.4788   -3.0457   21.8593 C   0  0  0  0  0  0  0  0  0  0  0  0
    8.8693   -5.8099   18.4657 N   0  0  0  0  0  0  0  0  0  0  0  0
    8.9892   -0.7926   25.4573 C   0  0  0  0  0  0  0  0  0  0  0  0
   10.5677   -3.4462   20.5323 C   0  0  0  0  0  0  0  0  0  0  0  0
  1  8  1  0
  1 12  4  0
  1 14  4  0
  2  3  4  0
  2 18  4  0
  3 20  4  0
  3 22  4  0
  4 11  4  0
  4 21  4  0
  5  9  4  0
  5 16  4  0
  6 15  4  0
  6 16  4  0
  7 22  4  0
  7 26  4  0
  8 10  4  0
  8 25  4  0
  9 15  4  0
  9 17  1  0
 10 21  4  0
 11 25  4  0
 12 23  4  0
 13 20  4  0
 13 26  4  0
 14 19  4  0
 17 18  4  0
 17 24  4  0
 19 23  4  0
 20 24  4  0
 23 26  1  0
M  END
$$$$

 Created by Python create_sdf_string function

 26 30  0  0  0  0  0  0  0  0999 V2000
   10.0084   -1.8019   23.4945 C   0  0  0  0  0  0  0  0  0  0  0  0
   10.0005   -4.2520   16.5631 C   0  0  0  0  0  0  0  0  0  0  0  0
   10.2759   -4.0036   17.8845 C   0  0  0  0  0  0  0  0  0  0  0  0
    8.5652    1.5478   25.3778 N   0  0  0  0  0  0  0  0  0  0  0  0
    6.8048   -7.5457   17.8752 C   0  0  0  0  0  0  0  0  0  0  0  0
    6.1721   -8.2186   15.9886 N   0  0  0  0  0  0  0  0  0  0  0  0
   11.1764   -2.6600   19.5604 C   0  0  0  0  0  0  0  0  0  0  0  0
    9.5491   -0.6380   24.1912 C   0  0  0  0  0  0  0  0  0  0  0  0
    7.5337   -6.9256   16.9519 C   0  0  0  0  0  0  0  0  0  0  0  0
    9.6782    0.5671   23.5143 C   0  0  0  0  0  0  0  0  0  0  0  0
    8.4532    0.3482   26.0821 C   0  0  0  0  0  0  0  0  0  0  0  0
   10.4239   -1.7677   22.2230 N   0  0  0  0  0  0  0  0  0  0  0  0
    9.9468   -4.5953   20.1709 C   0  0  0  0  0  0  0  0  0  0  0  0
   10.0366   -3.0590   23.9864 N   0  0  0  0  0  0  0  0  0  0  0  0
    7.1191   -7.3636   15.7739 C   0  0  0  0  0  0  0  0  0  0  0  0
    5.9612   -8.3203   17.2732 N   0  0  0  0  0  0  0  0  0  0  0  0
    8.5296   -5.9814   17.1841 C   0  0  0  0  0  0  0  0  0  0  0  0
    9.1527   -5.2118   16.2116 C   0  0  0  0  0  0  0  0  0  0  0  0
   10.3364   -3.8368   22.9255 O   0  0  0  0  0  0  0  0  0  0  0  0
    9.6947   -4.8407   18.8534 C   0  0  0  0  0  0  0  0  0  0  0  0
    9.1596    1.7042   24.1381 C   0  0  0  0  0  0  0  0  0  0  0  0
   11.0456   -2.9774   18.2694 N   0  0  0  0  0  0  0  0  0  0  0  0
   10.4788   -3.0457   21.8593 C   0  0  0  0  0  0  0  0  0  0  0  0
    8.8693   -5.8099   18.4657 N   0  0  0  0  0  0  0  0  0  0  0  0
    8.9892   -0.7926   25.4573 C   0  0  0  0  0  0  0  0  0  0  0  0
   10.5677   -3.4462   20.5323 C   0  0  0  0  0  0  0  0  0  0  0  0
  1  8  1  0
  1 12  4  0
  1 14  4  0
  2  3  4  0
  2 18  4  0
  3 20  4  0
  3 22  4  0
  4 11  4  0
  4 21  4  0
  5  9  4  0
  5 16  4  0
  6 15  4  0
  6 16  4  0
  7 22  4  0
  7 26  4  0
  8 10  4  0
  8 25  4  0
  9 15  4  0
  9 17  1  0
 10 21  4  0
 11 25  4  0
 12 23  4  0
 13 20  4  0
 13 26  4  0
 14 19  4  0
 17 18  4  0
 17 24  4  0
 19 23  4  0
 20 24  4  0
 23 26  1  0
M  END
$$$$

 Created by Python create_sdf_string function

 26 30  0  0  0  0  0  0  0  0999 V2000
   10.0084   -1.8019   23.4945 C   0  0  0  0  0  0  0  0  0  0  0  0
   10.0005   -4.2520   16.5631 C   0  0  0  0  0  0  0  0  0  0  0  0
   10.2759   -4.0036   17.8845 C   0  0  0  0  0  0  0  0  0  0  0  0
    8.5652    1.5478   25.3778 N   0  0  0  0  0  0  0  0  0  0  0  0
    6.8048   -7.5457   17.8752 C   0  0  0  0  0  0  0  0  0  0  0  0
    6.1721   -8.2186   15.9886 N   0  0  0  0  0  0  0  0  0  0  0  0
   11.1764   -2.6600   19.5604 C   0  0  0  0  0  0  0  0  0  0  0  0
    9.5491   -0.6380   24.1912 C   0  0  0  0  0  0  0  0  0  0  0  0
    7.5337   -6.9256   16.9519 C   0  0  0  0  0  0  0  0  0  0  0  0
    9.6782    0.5671   23.5143 C   0  0  0  0  0  0  0  0  0  0  0  0
    8.4532    0.3482   26.0821 C   0  0  0  0  0  0  0  0  0  0  0  0
   10.4239   -1.7677   22.2230 N   0  0  0  0  0  0  0  0  0  0  0  0
    9.9468   -4.5953   20.1709 C   0  0  0  0  0  0  0  0  0  0  0  0
   10.0366   -3.0590   23.9864 N   0  0  0  0  0  0  0  0  0  0  0  0
    7.1191   -7.3636   15.7739 C   0  0  0  0  0  0  0  0  0  0  0  0
    5.9612   -8.3203   17.2732 N   0  0  0  0  0  0  0  0  0  0  0  0
    8.5296   -5.9814   17.1841 C   0  0  0  0  0  0  0  0  0  0  0  0
    9.1527   -5.2118   16.2116 C   0  0  0  0  0  0  0  0  0  0  0  0
   10.3364   -3.8368   22.9255 O   0  0  0  0  0  0  0  0  0  0  0  0
    9.6947   -4.8407   18.8534 C   0  0  0  0  0  0  0  0  0  0  0  0
    9.1596    1.7042   24.1381 C   0  0  0  0  0  0  0  0  0  0  0  0
   11.0456   -2.9774   18.2694 N   0  0  0  0  0  0  0  0  0  0  0  0
   10.4788   -3.0457   21.8593 C   0  0  0  0  0  0  0  0  0  0  0  0
    8.8693   -5.8099   18.4657 N   0  0  0  0  0  0  0  0  0  0  0  0
    8.9892   -0.7926   25.4573 C   0  0  0  0  0  0  0  0  0  0  0  0
   10.5677   -3.4462   20.5323 C   0  0  0  0  0  0  0  0  0  0  0  0
  1  8  1  0
  1 12  4  0
  1 14  4  0
  2  3  4  0
  2 18  4  0
  3 20  4  0
  3 22  4  0
  4 11  4  0
  4 21  4  0
  5  9  4  0
  5 16  4  0
  6 15  4  0
  6 16  4  0
  7 22  4  0
  7 26  4  0
  8 10  4  0
  8 25  4  0
  9 15  4  0
  9 17  1  0
 10 21  4  0
 11 25  4  0
 12 23  4  0
 13 20  4  0
 13 26  4  0
 14 19  4  0
 17 18  4  0
 17 24  4  0
 19 23  4  0
 20 24  4  0
 23 26  1  0
M  END
$$$$

 Created by Python create_sdf_string function

 26 30  0  0  0  0  0  0  0  0999 V2000
   10.0084   -1.8019   23.4945 C   0  0  0  0  0  0  0  0  0  0  0  0
   10.0005   -4.2520   16.5631 C   0  0  0  0  0  0  0  0  0  0  0  0
   10.2759   -4.0036   17.8845 C   0  0  0  0  0  0  0  0  0  0  0  0
    8.5652    1.5478   25.3778 N   0  0  0  0  0  0  0  0  0  0  0  0
    6.8048   -7.5457   17.8752 C   0  0  0  0  0  0  0  0  0  0  0  0
    6.1721   -8.2186   15.9886 N   0  0  0  0  0  0  0  0  0  0  0  0
   11.1764   -2.6600   19.5604 C   0  0  0  0  0  0  0  0  0  0  0  0
    9.5491   -0.6380   24.1912 C   0  0  0  0  0  0  0  0  0  0  0  0
    7.5337   -6.9256   16.9519 C   0  0  0  0  0  0  0  0  0  0  0  0
    9.6782    0.5671   23.5143 C   0  0  0  0  0  0  0  0  0  0  0  0
    8.4532    0.3482   26.0821 C   0  0  0  0  0  0  0  0  0  0  0  0
   10.4239   -1.7677   22.2230 N   0  0  0  0  0  0  0  0  0  0  0  0
    9.9468   -4.5953   20.1709 C   0  0  0  0  0  0  0  0  0  0  0  0
   10.0366   -3.0590   23.9864 N   0  0  0  0  0  0  0  0  0  0  0  0
    7.1191   -7.3636   15.7739 C   0  0  0  0  0  0  0  0  0  0  0  0
    5.9612   -8.3203   17.2732 N   0  0  0  0  0  0  0  0  0  0  0  0
    8.5296   -5.9814   17.1841 C   0  0  0  0  0  0  0  0  0  0  0  0
    9.1527   -5.2118   16.2116 C   0  0  0  0  0  0  0  0  0  0  0  0
   10.3364   -3.8368   22.9255 O   0  0  0  0  0  0  0  0  0  0  0  0
    9.6947   -4.8407   18.8534 C   0  0  0  0  0  0  0  0  0  0  0  0
    9.1596    1.7042   24.1381 C   0  0  0  0  0  0  0  0  0  0  0  0
   11.0456   -2.9774   18.2694 N   0  0  0  0  0  0  0  0  0  0  0  0
   10.4788   -3.0457   21.8593 C   0  0  0  0  0  0  0  0  0  0  0  0
    8.8693   -5.8099   18.4657 N   0  0  0  0  0  0  0  0  0  0  0  0
    8.9892   -0.7926   25.4573 C   0  0  0  0  0  0  0  0  0  0  0  0
   10.5677   -3.4462   20.5323 C   0  0  0  0  0  0  0  0  0  0  0  0
  1  8  1  0
  1 12  4  0
  1 14  4  0
  2  3  4  0
  2 18  4  0
  3 20  4  0
  3 22  4  0
  4 11  4  0
  4 21  4  0
  5  9  4  0
  5 16  4  0
  6 15  4  0
  6 16  4  0
  7 22  4  0
  7 26  4  0
  8 10  4  0
  8 25  4  0
  9 15  4  0
  9 17  1  0
 10 21  4  0
 11 25  4  0
 12 23  4  0
 13 20  4  0
 13 26  4  0
 14 19  4  0
 17 18  4  0
 17 24  4  0
 19 23  4  0
 20 24  4  0
 23 26  1  0
M  END
$$$$

 Created by Python create_sdf_string function

 26 30  0  0  0  0  0  0  0  0999 V2000
   10.0084   -1.8019   23.4945 C   0  0  0  0  0  0  0  0  0  0  0  0
   10.0005   -4.2520   16.5631 C   0  0  0  0  0  0  0  0  0  0  0  0
   10.2759   -4.0036   17.8845 C   0  0  0  0  0  0  0  0  0  0  0  0
    8.5652    1.5478   25.3778 N   0  0  0  0  0  0  0  0  0  0  0  0
    6.8048   -7.5457   17.8752 C   0  0  0  0  0  0  0  0  0  0  0  0
    6.1721   -8.2186   15.9886 N   0  0  0  0  0  0  0  0  0  0  0  0
   11.1764   -2.6600   19.5604 C   0  0  0  0  0  0  0  0  0  0  0  0
    9.5491   -0.6380   24.1912 C   0  0  0  0  0  0  0  0  0  0  0  0
    7.5337   -6.9256   16.9519 C   0  0  0  0  0  0  0  0  0  0  0  0
    9.6782    0.5671   23.5143 C   0  0  0  0  0  0  0  0  0  0  0  0
    8.4532    0.3482   26.0821 C   0  0  0  0  0  0  0  0  0  0  0  0
   10.4239   -1.7677   22.2230 N   0  0  0  0  0  0  0  0  0  0  0  0
    9.9468   -4.5953   20.1709 C   0  0  0  0  0  0  0  0  0  0  0  0
   10.0366   -3.0590   23.9864 N   0  0  0  0  0  0  0  0  0  0  0  0
    7.1191   -7.3636   15.7739 C   0  0  0  0  0  0  0  0  0  0  0  0
    5.9612   -8.3203   17.2732 N   0  0  0  0  0  0  0  0  0  0  0  0
    8.5296   -5.9814   17.1841 C   0  0  0  0  0  0  0  0  0  0  0  0
    9.1527   -5.2118   16.2116 C   0  0  0  0  0  0  0  0  0  0  0  0
   10.3364   -3.8368   22.9255 O   0  0  0  0  0  0  0  0  0  0  0  0
    9.6947   -4.8407   18.8534 C   0  0  0  0  0  0  0  0  0  0  0  0
    9.1596    1.7042   24.1381 C   0  0  0  0  0  0  0  0  0  0  0  0
   11.0456   -2.9774   18.2694 N   0  0  0  0  0  0  0  0  0  0  0  0
   10.4788   -3.0457   21.8593 C   0  0  0  0  0  0  0  0  0  0  0  0
    8.8693   -5.8099   18.4657 N   0  0  0  0  0  0  0  0  0  0  0  0
    8.9892   -0.7926   25.4573 C   0  0  0  0  0  0  0  0  0  0  0  0
   10.5677   -3.4462   20.5323 C   0  0  0  0  0  0  0  0  0  0  0  0
  1  8  1  0
  1 12  4  0
  1 14  4  0
  2  3  4  0
  2 18  4  0
  3 20  4  0
  3 22  4  0
  4 11  4  0
  4 21  4  0
  5  9  4  0
  5 16  4  0
  6 15  4  0
  6 16  4  0
  7 22  4  0
  7 26  4  0
  8 10  4  0
  8 25  4  0
  9 15  4  0
  9 17  1  0
 10 21  4  0
 11 25  4  0
 12 23  4  0
 13 20  4  0
 13 26  4  0
 14 19  4  0
 17 18  4  0
 17 24  4  0
 19 23  4  0
 20 24  4  0
 23 26  1  0
M  END
$$$$

 Created by Python create_sdf_string function

 26 30  0  0  0  0  0  0  0  0999 V2000
   10.0084   -1.8019   23.4945 C   0  0  0  0  0  0  0  0  0  0  0  0
   10.0005   -4.2520   16.5631 C   0  0  0  0  0  0  0  0  0  0  0  0
   10.2759   -4.0036   17.8845 C   0  0  0  0  0  0  0  0  0  0  0  0
    8.5652    1.5478   25.3778 N   0  0  0  0  0  0  0  0  0  0  0  0
    6.8048   -7.5457   17.8752 C   0  0  0  0  0  0  0  0  0  0  0  0
    6.1721   -8.2186   15.9886 N   0  0  0  0  0  0  0  0  0  0  0  0
   11.1764   -2.6600   19.5604 C   0  0  0  0  0  0  0  0  0  0  0  0
    9.5491   -0.6380   24.1912 C   0  0  0  0  0  0  0  0  0  0  0  0
    7.5337   -6.9256   16.9519 C   0  0  0  0  0  0  0  0  0  0  0  0
    9.6782    0.5671   23.5143 C   0  0  0  0  0  0  0  0  0  0  0  0
    8.4532    0.3482   26.0821 C   0  0  0  0  0  0  0  0  0  0  0  0
   10.4239   -1.7677   22.2230 N   0  0  0  0  0  0  0  0  0  0  0  0
    9.9468   -4.5953   20.1709 C   0  0  0  0  0  0  0  0  0  0  0  0
   10.0366   -3.0590   23.9864 N   0  0  0  0  0  0  0  0  0  0  0  0
    7.1191   -7.3636   15.7739 C   0  0  0  0  0  0  0  0  0  0  0  0
    5.9612   -8.3203   17.2732 N   0  0  0  0  0  0  0  0  0  0  0  0
    8.5296   -5.9814   17.1841 C   0  0  0  0  0  0  0  0  0  0  0  0
    9.1527   -5.2118   16.2116 C   0  0  0  0  0  0  0  0  0  0  0  0
   10.3364   -3.8368   22.9255 O   0  0  0  0  0  0  0  0  0  0  0  0
    9.6947   -4.8407   18.8534 C   0  0  0  0  0  0  0  0  0  0  0  0
    9.1596    1.7042   24.1381 C   0  0  0  0  0  0  0  0  0  0  0  0
   11.0456   -2.9774   18.2694 N   0  0  0  0  0  0  0  0  0  0  0  0
   10.4788   -3.0457   21.8593 C   0  0  0  0  0  0  0  0  0  0  0  0
    8.8693   -5.8099   18.4657 N   0  0  0  0  0  0  0  0  0  0  0  0
    8.9892   -0.7926   25.4573 C   0  0  0  0  0  0  0  0  0  0  0  0
   10.5677   -3.4462   20.5323 C   0  0  0  0  0  0  0  0  0  0  0  0
  1  8  1  0
  1 12  4  0
  1 14  4  0
  2  3  4  0
  2 18  4  0
  3 20  4  0
  3 22  4  0
  4 11  4  0
  4 21  4  0
  5  9  4  0
  5 16  4  0
  6 15  4  0
  6 16  4  0
  7 22  4  0
  7 26  4  0
  8 10  4  0
  8 25  4  0
  9 15  4  0
  9 17  1  0
 10 21  4  0
 11 25  4  0
 12 23  4  0
 13 20  4  0
 13 26  4  0
 14 19  4  0
 17 18  4  0
 17 24  4  0
 19 23  4  0
 20 24  4  0
 23 26  1  0
M  END
$$$$

 Created by Python create_sdf_string function

 26 30  0  0  0  0  0  0  0  0999 V2000
   10.0084   -1.8019   23.4945 C   0  0  0  0  0  0  0  0  0  0  0  0
   10.0005   -4.2520   16.5631 C   0  0  0  0  0  0  0  0  0  0  0  0
   10.2759   -4.0036   17.8845 C   0  0  0  0  0  0  0  0  0  0  0  0
    8.5652    1.5478   25.3778 N   0  0  0  0  0  0  0  0  0  0  0  0
    6.8048   -7.5457   17.8752 C   0  0  0  0  0  0  0  0  0  0  0  0
    6.1721   -8.2186   15.9886 N   0  0  0  0  0  0  0  0  0  0  0  0
   11.1764   -2.6600   19.5604 C   0  0  0  0  0  0  0  0  0  0  0  0
    9.5491   -0.6380   24.1912 C   0  0  0  0  0  0  0  0  0  0  0  0
    7.5337   -6.9256   16.9519 C   0  0  0  0  0  0  0  0  0  0  0  0
    9.6782    0.5671   23.5143 C   0  0  0  0  0  0  0  0  0  0  0  0
    8.4532    0.3482   26.0821 C   0  0  0  0  0  0  0  0  0  0  0  0
   10.4239   -1.7677   22.2230 N   0  0  0  0  0  0  0  0  0  0  0  0
    9.9468   -4.5953   20.1709 C   0  0  0  0  0  0  0  0  0  0  0  0
   10.0366   -3.0590   23.9864 N   0  0  0  0  0  0  0  0  0  0  0  0
    7.1191   -7.3636   15.7739 C   0  0  0  0  0  0  0  0  0  0  0  0
    5.9612   -8.3203   17.2732 N   0  0  0  0  0  0  0  0  0  0  0  0
    8.5296   -5.9814   17.1841 C   0  0  0  0  0  0  0  0  0  0  0  0
    9.1527   -5.2118   16.2116 C   0  0  0  0  0  0  0  0  0  0  0  0
   10.3364   -3.8368   22.9255 O   0  0  0  0  0  0  0  0  0  0  0  0
    9.6947   -4.8407   18.8534 C   0  0  0  0  0  0  0  0  0  0  0  0
    9.1596    1.7042   24.1381 C   0  0  0  0  0  0  0  0  0  0  0  0
   11.0456   -2.9774   18.2694 N   0  0  0  0  0  0  0  0  0  0  0  0
   10.4788   -3.0457   21.8593 C   0  0  0  0  0  0  0  0  0  0  0  0
    8.8693   -5.8099   18.4657 N   0  0  0  0  0  0  0  0  0  0  0  0
    8.9892   -0.7926   25.4573 C   0  0  0  0  0  0  0  0  0  0  0  0
   10.5677   -3.4462   20.5323 C   0  0  0  0  0  0  0  0  0  0  0  0
  1  8  1  0
  1 12  4  0
  1 14  4  0
  2  3  4  0
  2 18  4  0
  3 20  4  0
  3 22  4  0
  4 11  4  0
  4 21  4  0
  5  9  4  0
  5 16  4  0
  6 15  4  0
  6 16  4  0
  7 22  4  0
  7 26  4  0
  8 10  4  0
  8 25  4  0
  9 15  4  0
  9 17  1  0
 10 21  4  0
 11 25  4  0
 12 23  4  0
 13 20  4  0
 13 26  4  0
 14 19  4  0
 17 18  4  0
 17 24  4  0
 19 23  4  0
 20 24  4  0
 23 26  1  0
M  END
$$$$

 Created by Python create_sdf_string function

 26 30  0  0  0  0  0  0  0  0999 V2000
   10.0084   -1.8019   23.4945 C   0  0  0  0  0  0  0  0  0  0  0  0
   10.0005   -4.2520   16.5631 C   0  0  0  0  0  0  0  0  0  0  0  0
   10.2759   -4.0036   17.8845 C   0  0  0  0  0  0  0  0  0  0  0  0
    8.5652    1.5478   25.3778 N   0  0  0  0  0  0  0  0  0  0  0  0
    6.8048   -7.5457   17.8752 C   0  0  0  0  0  0  0  0  0  0  0  0
    6.1721   -8.2186   15.9886 N   0  0  0  0  0  0  0  0  0  0  0  0
   11.1764   -2.6600   19.5604 C   0  0  0  0  0  0  0  0  0  0  0  0
    9.5491   -0.6380   24.1912 C   0  0  0  0  0  0  0  0  0  0  0  0
    7.5337   -6.9256   16.9519 C   0  0  0  0  0  0  0  0  0  0  0  0
    9.6782    0.5671   23.5143 C   0  0  0  0  0  0  0  0  0  0  0  0
    8.4532    0.3482   26.0821 C   0  0  0  0  0  0  0  0  0  0  0  0
   10.4239   -1.7677   22.2230 N   0  0  0  0  0  0  0  0  0  0  0  0
    9.9468   -4.5953   20.1709 C   0  0  0  0  0  0  0  0  0  0  0  0
   10.0366   -3.0590   23.9864 N   0  0  0  0  0  0  0  0  0  0  0  0
    7.1191   -7.3636   15.7739 C   0  0  0  0  0  0  0  0  0  0  0  0
    5.9612   -8.3203   17.2732 N   0  0  0  0  0  0  0  0  0  0  0  0
    8.5296   -5.9814   17.1841 C   0  0  0  0  0  0  0  0  0  0  0  0
    9.1527   -5.2118   16.2116 C   0  0  0  0  0  0  0  0  0  0  0  0
   10.3364   -3.8368   22.9255 O   0  0  0  0  0  0  0  0  0  0  0  0
    9.6947   -4.8407   18.8534 C   0  0  0  0  0  0  0  0  0  0  0  0
    9.1596    1.7042   24.1381 C   0  0  0  0  0  0  0  0  0  0  0  0
   11.0456   -2.9774   18.2694 N   0  0  0  0  0  0  0  0  0  0  0  0
   10.4788   -3.0457   21.8593 C   0  0  0  0  0  0  0  0  0  0  0  0
    8.8693   -5.8099   18.4657 N   0  0  0  0  0  0  0  0  0  0  0  0
    8.9892   -0.7926   25.4573 C   0  0  0  0  0  0  0  0  0  0  0  0
   10.5677   -3.4462   20.5323 C   0  0  0  0  0  0  0  0  0  0  0  0
  1  8  1  0
  1 12  4  0
  1 14  4  0
  2  3  4  0
  2 18  4  0
  3 20  4  0
  3 22  4  0
  4 11  4  0
  4 21  4  0
  5  9  4  0
  5 16  4  0
  6 15  4  0
  6 16  4  0
  7 22  4  0
  7 26  4  0
  8 10  4  0
  8 25  4  0
  9 15  4  0
  9 17  1  0
 10 21  4  0
 11 25  4  0
 12 23  4  0
 13 20  4  0
 13 26  4  0
 14 19  4  0
 17 18  4  0
 17 24  4  0
 19 23  4  0
 20 24  4  0
 23 26  1  0
M  END
$$$$

 Created by Python create_sdf_string function

 26 30  0  0  0  0  0  0  0  0999 V2000
   10.0084   -1.8019   23.4945 C   0  0  0  0  0  0  0  0  0  0  0  0
   10.0005   -4.2520   16.5631 C   0  0  0  0  0  0  0  0  0  0  0  0
   10.2759   -4.0036   17.8845 C   0  0  0  0  0  0  0  0  0  0  0  0
    8.5652    1.5478   25.3778 N   0  0  0  0  0  0  0  0  0  0  0  0
    6.8048   -7.5457   17.8752 C   0  0  0  0  0  0  0  0  0  0  0  0
    6.1721   -8.2186   15.9886 N   0  0  0  0  0  0  0  0  0  0  0  0
   11.1764   -2.6600   19.5604 C   0  0  0  0  0  0  0  0  0  0  0  0
    9.5491   -0.6380   24.1912 C   0  0  0  0  0  0  0  0  0  0  0  0
    7.5337   -6.9256   16.9519 C   0  0  0  0  0  0  0  0  0  0  0  0
    9.6782    0.5671   23.5143 C   0  0  0  0  0  0  0  0  0  0  0  0
    8.4532    0.3482   26.0821 C   0  0  0  0  0  0  0  0  0  0  0  0
   10.4239   -1.7677   22.2230 N   0  0  0  0  0  0  0  0  0  0  0  0
    9.9468   -4.5953   20.1709 C   0  0  0  0  0  0  0  0  0  0  0  0
   10.0366   -3.0590   23.9864 N   0  0  0  0  0  0  0  0  0  0  0  0
    7.1191   -7.3636   15.7739 C   0  0  0  0  0  0  0  0  0  0  0  0
    5.9612   -8.3203   17.2732 N   0  0  0  0  0  0  0  0  0  0  0  0
    8.5296   -5.9814   17.1841 C   0  0  0  0  0  0  0  0  0  0  0  0
    9.1527   -5.2118   16.2116 C   0  0  0  0  0  0  0  0  0  0  0  0
   10.3364   -3.8368   22.9255 O   0  0  0  0  0  0  0  0  0  0  0  0
    9.6947   -4.8407   18.8534 C   0  0  0  0  0  0  0  0  0  0  0  0
    9.1596    1.7042   24.1381 C   0  0  0  0  0  0  0  0  0  0  0  0
   11.0456   -2.9774   18.2694 N   0  0  0  0  0  0  0  0  0  0  0  0
   10.4788   -3.0457   21.8593 C   0  0  0  0  0  0  0  0  0  0  0  0
    8.8693   -5.8099   18.4657 N   0  0  0  0  0  0  0  0  0  0  0  0
    8.9892   -0.7926   25.4573 C   0  0  0  0  0  0  0  0  0  0  0  0
   10.5677   -3.4462   20.5323 C   0  0  0  0  0  0  0  0  0  0  0  0
  1  8  1  0
  1 12  4  0
  1 14  4  0
  2  3  4  0
  2 18  4  0
  3 20  4  0
  3 22  4  0
  4 11  4  0
  4 21  4  0
  5  9  4  0
  5 16  4  0
  6 15  4  0
  6 16  4  0
  7 22  4  0
  7 26  4  0
  8 10  4  0
  8 25  4  0
  9 15  4  0
  9 17  1  0
 10 21  4  0
 11 25  4  0
 12 23  4  0
 13 20  4  0
 13 26  4  0
 14 19  4  0
 17 18  4  0
 17 24  4  0
 19 23  4  0
 20 24  4  0
 23 26  1  0
M  END
$$$$

 Created by Python create_sdf_string function

 26 30  0  0  0  0  0  0  0  0999 V2000
   10.0084   -1.8019   23.4945 C   0  0  0  0  0  0  0  0  0  0  0  0
   10.0005   -4.2520   16.5631 C   0  0  0  0  0  0  0  0  0  0  0  0
   10.2759   -4.0036   17.8845 C   0  0  0  0  0  0  0  0  0  0  0  0
    8.5652    1.5478   25.3778 N   0  0  0  0  0  0  0  0  0  0  0  0
    6.8048   -7.5457   17.8752 C   0  0  0  0  0  0  0  0  0  0  0  0
    6.1721   -8.2186   15.9886 N   0  0  0  0  0  0  0  0  0  0  0  0
   11.1764   -2.6600   19.5604 C   0  0  0  0  0  0  0  0  0  0  0  0
    9.5491   -0.6380   24.1912 C   0  0  0  0  0  0  0  0  0  0  0  0
    7.5337   -6.9256   16.9519 C   0  0  0  0  0  0  0  0  0  0  0  0
    9.6782    0.5671   23.5143 C   0  0  0  0  0  0  0  0  0  0  0  0
    8.4532    0.3482   26.0821 C   0  0  0  0  0  0  0  0  0  0  0  0
   10.4239   -1.7677   22.2230 N   0  0  0  0  0  0  0  0  0  0  0  0
    9.9468   -4.5953   20.1709 C   0  0  0  0  0  0  0  0  0  0  0  0
   10.0366   -3.0590   23.9864 N   0  0  0  0  0  0  0  0  0  0  0  0
    7.1191   -7.3636   15.7739 C   0  0  0  0  0  0  0  0  0  0  0  0
    5.9612   -8.3203   17.2732 N   0  0  0  0  0  0  0  0  0  0  0  0
    8.5296   -5.9814   17.1841 C   0  0  0  0  0  0  0  0  0  0  0  0
    9.1527   -5.2118   16.2116 C   0  0  0  0  0  0  0  0  0  0  0  0
   10.3364   -3.8368   22.9255 O   0  0  0  0  0  0  0  0  0  0  0  0
    9.6947   -4.8407   18.8534 C   0  0  0  0  0  0  0  0  0  0  0  0
    9.1596    1.7042   24.1381 C   0  0  0  0  0  0  0  0  0  0  0  0
   11.0456   -2.9774   18.2694 N   0  0  0  0  0  0  0  0  0  0  0  0
   10.4788   -3.0457   21.8593 C   0  0  0  0  0  0  0  0  0  0  0  0
    8.8693   -5.8099   18.4657 N   0  0  0  0  0  0  0  0  0  0  0  0
    8.9892   -0.7926   25.4573 C   0  0  0  0  0  0  0  0  0  0  0  0
   10.5677   -3.4462   20.5323 C   0  0  0  0  0  0  0  0  0  0  0  0
  1  8  1  0
  1 12  4  0
  1 14  4  0
  2  3  4  0
  2 18  4  0
  3 20  4  0
  3 22  4  0
  4 11  4  0
  4 21  4  0
  5  9  4  0
  5 16  4  0
  6 15  4  0
  6 16  4  0
  7 22  4  0
  7 26  4  0
  8 10  4  0
  8 25  4  0
  9 15  4  0
  9 17  1  0
 10 21  4  0
 11 25  4  0
 12 23  4  0
 13 20  4  0
 13 26  4  0
 14 19  4  0
 17 18  4  0
 17 24  4  0
 19 23  4  0
 20 24  4  0
 23 26  1  0
M  END
$$$$

 Created by Python create_sdf_string function

 26 30  0  0  0  0  0  0  0  0999 V2000
   10.0084   -1.8019   23.4945 C   0  0  0  0  0  0  0  0  0  0  0  0
   10.0005   -4.2520   16.5631 C   0  0  0  0  0  0  0  0  0  0  0  0
   10.2759   -4.0036   17.8845 C   0  0  0  0  0  0  0  0  0  0  0  0
    8.5652    1.5478   25.3778 N   0  0  0  0  0  0  0  0  0  0  0  0
    6.8048   -7.5457   17.8752 C   0  0  0  0  0  0  0  0  0  0  0  0
    6.1721   -8.2186   15.9886 N   0  0  0  0  0  0  0  0  0  0  0  0
   11.1764   -2.6600   19.5604 C   0  0  0  0  0  0  0  0  0  0  0  0
    9.5491   -0.6380   24.1912 C   0  0  0  0  0  0  0  0  0  0  0  0
    7.5337   -6.9256   16.9519 C   0  0  0  0  0  0  0  0  0  0  0  0
    9.6782    0.5671   23.5143 C   0  0  0  0  0  0  0  0  0  0  0  0
    8.4532    0.3482   26.0821 C   0  0  0  0  0  0  0  0  0  0  0  0
   10.4239   -1.7677   22.2230 N   0  0  0  0  0  0  0  0  0  0  0  0
    9.9468   -4.5953   20.1709 C   0  0  0  0  0  0  0  0  0  0  0  0
   10.0366   -3.0590   23.9864 N   0  0  0  0  0  0  0  0  0  0  0  0
    7.1191   -7.3636   15.7739 C   0  0  0  0  0  0  0  0  0  0  0  0
    5.9612   -8.3203   17.2732 N   0  0  0  0  0  0  0  0  0  0  0  0
    8.5296   -5.9814   17.1841 C   0  0  0  0  0  0  0  0  0  0  0  0
    9.1527   -5.2118   16.2116 C   0  0  0  0  0  0  0  0  0  0  0  0
   10.3364   -3.8368   22.9255 O   0  0  0  0  0  0  0  0  0  0  0  0
    9.6947   -4.8407   18.8534 C   0  0  0  0  0  0  0  0  0  0  0  0
    9.1596    1.7042   24.1381 C   0  0  0  0  0  0  0  0  0  0  0  0
   11.0456   -2.9774   18.2694 N   0  0  0  0  0  0  0  0  0  0  0  0
   10.4788   -3.0457   21.8593 C   0  0  0  0  0  0  0  0  0  0  0  0
    8.8693   -5.8099   18.4657 N   0  0  0  0  0  0  0  0  0  0  0  0
    8.9892   -0.7926   25.4573 C   0  0  0  0  0  0  0  0  0  0  0  0
   10.5677   -3.4462   20.5323 C   0  0  0  0  0  0  0  0  0  0  0  0
  1  8  1  0
  1 12  4  0
  1 14  4  0
  2  3  4  0
  2 18  4  0
  3 20  4  0
  3 22  4  0
  4 11  4  0
  4 21  4  0
  5  9  4  0
  5 16  4  0
  6 15  4  0
  6 16  4  0
  7 22  4  0
  7 26  4  0
  8 10  4  0
  8 25  4  0
  9 15  4  0
  9 17  1  0
 10 21  4  0
 11 25  4  0
 12 23  4  0
 13 20  4  0
 13 26  4  0
 14 19  4  0
 17 18  4  0
 17 24  4  0
 19 23  4  0
 20 24  4  0
 23 26  1  0
M  END
$$$$

 Created by Python create_sdf_string function

 26 30  0  0  0  0  0  0  0  0999 V2000
   10.0084   -1.8019   23.4945 C   0  0  0  0  0  0  0  0  0  0  0  0
   10.0005   -4.2520   16.5631 C   0  0  0  0  0  0  0  0  0  0  0  0
   10.2759   -4.0036   17.8845 C   0  0  0  0  0  0  0  0  0  0  0  0
    8.5652    1.5478   25.3778 N   0  0  0  0  0  0  0  0  0  0  0  0
    6.8048   -7.5457   17.8752 C   0  0  0  0  0  0  0  0  0  0  0  0
    6.1721   -8.2186   15.9886 N   0  0  0  0  0  0  0  0  0  0  0  0
   11.1764   -2.6600   19.5604 C   0  0  0  0  0  0  0  0  0  0  0  0
    9.5491   -0.6380   24.1912 C   0  0  0  0  0  0  0  0  0  0  0  0
    7.5337   -6.9256   16.9519 C   0  0  0  0  0  0  0  0  0  0  0  0
    9.6782    0.5671   23.5143 C   0  0  0  0  0  0  0  0  0  0  0  0
    8.4532    0.3482   26.0821 C   0  0  0  0  0  0  0  0  0  0  0  0
   10.4239   -1.7677   22.2230 N   0  0  0  0  0  0  0  0  0  0  0  0
    9.9468   -4.5953   20.1709 C   0  0  0  0  0  0  0  0  0  0  0  0
   10.0366   -3.0590   23.9864 N   0  0  0  0  0  0  0  0  0  0  0  0
    7.1191   -7.3636   15.7739 C   0  0  0  0  0  0  0  0  0  0  0  0
    5.9612   -8.3203   17.2732 N   0  0  0  0  0  0  0  0  0  0  0  0
    8.5296   -5.9814   17.1841 C   0  0  0  0  0  0  0  0  0  0  0  0
    9.1527   -5.2118   16.2116 C   0  0  0  0  0  0  0  0  0  0  0  0
   10.3364   -3.8368   22.9255 O   0  0  0  0  0  0  0  0  0  0  0  0
    9.6947   -4.8407   18.8534 C   0  0  0  0  0  0  0  0  0  0  0  0
    9.1596    1.7042   24.1381 C   0  0  0  0  0  0  0  0  0  0  0  0
   11.0456   -2.9774   18.2694 N   0  0  0  0  0  0  0  0  0  0  0  0
   10.4788   -3.0457   21.8593 C   0  0  0  0  0  0  0  0  0  0  0  0
    8.8693   -5.8099   18.4657 N   0  0  0  0  0  0  0  0  0  0  0  0
    8.9892   -0.7926   25.4573 C   0  0  0  0  0  0  0  0  0  0  0  0
   10.5677   -3.4462   20.5323 C   0  0  0  0  0  0  0  0  0  0  0  0
  1  8  1  0
  1 12  4  0
  1 14  4  0
  2  3  4  0
  2 18  4  0
  3 20  4  0
  3 22  4  0
  4 11  4  0
  4 21  4  0
  5  9  4  0
  5 16  4  0
  6 15  4  0
  6 16  4  0
  7 22  4  0
  7 26  4  0
  8 10  4  0
  8 25  4  0
  9 15  4  0
  9 17  1  0
 10 21  4  0
 11 25  4  0
 12 23  4  0
 13 20  4  0
 13 26  4  0
 14 19  4  0
 17 18  4  0
 17 24  4  0
 19 23  4  0
 20 24  4  0
 23 26  1  0
M  END
$$$$

 Created by Python create_sdf_string function

 26 30  0  0  0  0  0  0  0  0999 V2000
   10.0084   -1.8019   23.4945 C   0  0  0  0  0  0  0  0  0  0  0  0
   10.0005   -4.2520   16.5631 C   0  0  0  0  0  0  0  0  0  0  0  0
   10.2759   -4.0036   17.8845 C   0  0  0  0  0  0  0  0  0  0  0  0
    8.5652    1.5478   25.3778 N   0  0  0  0  0  0  0  0  0  0  0  0
    6.8048   -7.5457   17.8752 C   0  0  0  0  0  0  0  0  0  0  0  0
    6.1721   -8.2186   15.9886 N   0  0  0  0  0  0  0  0  0  0  0  0
   11.1764   -2.6600   19.5604 C   0  0  0  0  0  0  0  0  0  0  0  0
    9.5491   -0.6380   24.1912 C   0  0  0  0  0  0  0  0  0  0  0  0
    7.5337   -6.9256   16.9519 C   0  0  0  0  0  0  0  0  0  0  0  0
    9.6782    0.5671   23.5143 C   0  0  0  0  0  0  0  0  0  0  0  0
    8.4532    0.3482   26.0821 C   0  0  0  0  0  0  0  0  0  0  0  0
   10.4239   -1.7677   22.2230 N   0  0  0  0  0  0  0  0  0  0  0  0
    9.9468   -4.5953   20.1709 C   0  0  0  0  0  0  0  0  0  0  0  0
   10.0366   -3.0590   23.9864 N   0  0  0  0  0  0  0  0  0  0  0  0
    7.1191   -7.3636   15.7739 C   0  0  0  0  0  0  0  0  0  0  0  0
    5.9612   -8.3203   17.2732 N   0  0  0  0  0  0  0  0  0  0  0  0
    8.5296   -5.9814   17.1841 C   0  0  0  0  0  0  0  0  0  0  0  0
    9.1527   -5.2118   16.2116 C   0  0  0  0  0  0  0  0  0  0  0  0
   10.3364   -3.8368   22.9255 O   0  0  0  0  0  0  0  0  0  0  0  0
    9.6947   -4.8407   18.8534 C   0  0  0  0  0  0  0  0  0  0  0  0
    9.1596    1.7042   24.1381 C   0  0  0  0  0  0  0  0  0  0  0  0
   11.0456   -2.9774   18.2694 N   0  0  0  0  0  0  0  0  0  0  0  0
   10.4788   -3.0457   21.8593 C   0  0  0  0  0  0  0  0  0  0  0  0
    8.8693   -5.8099   18.4657 N   0  0  0  0  0  0  0  0  0  0  0  0
    8.9892   -0.7926   25.4573 C   0  0  0  0  0  0  0  0  0  0  0  0
   10.5677   -3.4462   20.5323 C   0  0  0  0  0  0  0  0  0  0  0  0
  1  8  1  0
  1 12  4  0
  1 14  4  0
  2  3  4  0
  2 18  4  0
  3 20  4  0
  3 22  4  0
  4 11  4  0
  4 21  4  0
  5  9  4  0
  5 16  4  0
  6 15  4  0
  6 16  4  0
  7 22  4  0
  7 26  4  0
  8 10  4  0
  8 25  4  0
  9 15  4  0
  9 17  1  0
 10 21  4  0
 11 25  4  0
 12 23  4  0
 13 20  4  0
 13 26  4  0
 14 19  4  0
 17 18  4  0
 17 24  4  0
 19 23  4  0
 20 24  4  0
 23 26  1  0
M  END
$$$$

 Created by Python create_sdf_string function

 26 30  0  0  0  0  0  0  0  0999 V2000
   10.0084   -1.8019   23.4945 C   0  0  0  0  0  0  0  0  0  0  0  0
   10.0005   -4.2520   16.5631 C   0  0  0  0  0  0  0  0  0  0  0  0
   10.2759   -4.0036   17.8845 C   0  0  0  0  0  0  0  0  0  0  0  0
    8.5652    1.5478   25.3778 N   0  0  0  0  0  0  0  0  0  0  0  0
    6.8048   -7.5457   17.8752 C   0  0  0  0  0  0  0  0  0  0  0  0
    6.1721   -8.2186   15.9886 N   0  0  0  0  0  0  0  0  0  0  0  0
   11.1764   -2.6600   19.5604 C   0  0  0  0  0  0  0  0  0  0  0  0
    9.5491   -0.6380   24.1912 C   0  0  0  0  0  0  0  0  0  0  0  0
    7.5337   -6.9256   16.9519 C   0  0  0  0  0  0  0  0  0  0  0  0
    9.6782    0.5671   23.5143 C   0  0  0  0  0  0  0  0  0  0  0  0
    8.4532    0.3482   26.0821 C   0  0  0  0  0  0  0  0  0  0  0  0
   10.4239   -1.7677   22.2230 N   0  0  0  0  0  0  0  0  0  0  0  0
    9.9468   -4.5953   20.1709 C   0  0  0  0  0  0  0  0  0  0  0  0
   10.0366   -3.0590   23.9864 N   0  0  0  0  0  0  0  0  0  0  0  0
    7.1191   -7.3636   15.7739 C   0  0  0  0  0  0  0  0  0  0  0  0
    5.9612   -8.3203   17.2732 N   0  0  0  0  0  0  0  0  0  0  0  0
    8.5296   -5.9814   17.1841 C   0  0  0  0  0  0  0  0  0  0  0  0
    9.1527   -5.2118   16.2116 C   0  0  0  0  0  0  0  0  0  0  0  0
   10.3364   -3.8368   22.9255 O   0  0  0  0  0  0  0  0  0  0  0  0
    9.6947   -4.8407   18.8534 C   0  0  0  0  0  0  0  0  0  0  0  0
    9.1596    1.7042   24.1381 C   0  0  0  0  0  0  0  0  0  0  0  0
   11.0456   -2.9774   18.2694 N   0  0  0  0  0  0  0  0  0  0  0  0
   10.4788   -3.0457   21.8593 C   0  0  0  0  0  0  0  0  0  0  0  0
    8.8693   -5.8099   18.4657 N   0  0  0  0  0  0  0  0  0  0  0  0
    8.9892   -0.7926   25.4573 C   0  0  0  0  0  0  0  0  0  0  0  0
   10.5677   -3.4462   20.5323 C   0  0  0  0  0  0  0  0  0  0  0  0
  1  8  1  0
  1 12  4  0
  1 14  4  0
  2  3  4  0
  2 18  4  0
  3 20  4  0
  3 22  4  0
  4 11  4  0
  4 21  4  0
  5  9  4  0
  5 16  4  0
  6 15  4  0
  6 16  4  0
  7 22  4  0
  7 26  4  0
  8 10  4  0
  8 25  4  0
  9 15  4  0
  9 17  1  0
 10 21  4  0
 11 25  4  0
 12 23  4  0
 13 20  4  0
 13 26  4  0
 14 19  4  0
 17 18  4  0
 17 24  4  0
 19 23  4  0
 20 24  4  0
 23 26  1  0
M  END
$$$$

 Created by Python create_sdf_string function

 26 30  0  0  0  0  0  0  0  0999 V2000
   10.0084   -1.8019   23.4945 C   0  0  0  0  0  0  0  0  0  0  0  0
   10.0005   -4.2520   16.5631 C   0  0  0  0  0  0  0  0  0  0  0  0
   10.2759   -4.0036   17.8845 C   0  0  0  0  0  0  0  0  0  0  0  0
    8.5652    1.5478   25.3778 N   0  0  0  0  0  0  0  0  0  0  0  0
    6.8048   -7.5457   17.8752 C   0  0  0  0  0  0  0  0  0  0  0  0
    6.1721   -8.2186   15.9886 N   0  0  0  0  0  0  0  0  0  0  0  0
   11.1764   -2.6600   19.5604 C   0  0  0  0  0  0  0  0  0  0  0  0
    9.5491   -0.6380   24.1912 C   0  0  0  0  0  0  0  0  0  0  0  0
    7.5337   -6.9256   16.9519 C   0  0  0  0  0  0  0  0  0  0  0  0
    9.6782    0.5671   23.5143 C   0  0  0  0  0  0  0  0  0  0  0  0
    8.4532    0.3482   26.0821 C   0  0  0  0  0  0  0  0  0  0  0  0
   10.4239   -1.7677   22.2230 N   0  0  0  0  0  0  0  0  0  0  0  0
    9.9468   -4.5953   20.1709 C   0  0  0  0  0  0  0  0  0  0  0  0
   10.0366   -3.0590   23.9864 N   0  0  0  0  0  0  0  0  0  0  0  0
    7.1191   -7.3636   15.7739 C   0  0  0  0  0  0  0  0  0  0  0  0
    5.9612   -8.3203   17.2732 N   0  0  0  0  0  0  0  0  0  0  0  0
    8.5296   -5.9814   17.1841 C   0  0  0  0  0  0  0  0  0  0  0  0
    9.1527   -5.2118   16.2116 C   0  0  0  0  0  0  0  0  0  0  0  0
   10.3364   -3.8368   22.9255 O   0  0  0  0  0  0  0  0  0  0  0  0
    9.6947   -4.8407   18.8534 C   0  0  0  0  0  0  0  0  0  0  0  0
    9.1596    1.7042   24.1381 C   0  0  0  0  0  0  0  0  0  0  0  0
   11.0456   -2.9774   18.2694 N   0  0  0  0  0  0  0  0  0  0  0  0
   10.4788   -3.0457   21.8593 C   0  0  0  0  0  0  0  0  0  0  0  0
    8.8693   -5.8099   18.4657 N   0  0  0  0  0  0  0  0  0  0  0  0
    8.9892   -0.7926   25.4573 C   0  0  0  0  0  0  0  0  0  0  0  0
   10.5677   -3.4462   20.5323 C   0  0  0  0  0  0  0  0  0  0  0  0
  1  8  1  0
  1 12  4  0
  1 14  4  0
  2  3  4  0
  2 18  4  0
  3 20  4  0
  3 22  4  0
  4 11  4  0
  4 21  4  0
  5  9  4  0
  5 16  4  0
  6 15  4  0
  6 16  4  0
  7 22  4  0
  7 26  4  0
  8 10  4  0
  8 25  4  0
  9 15  4  0
  9 17  1  0
 10 21  4  0
 11 25  4  0
 12 23  4  0
 13 20  4  0
 13 26  4  0
 14 19  4  0
 17 18  4  0
 17 24  4  0
 19 23  4  0
 20 24  4  0
 23 26  1  0
M  END
$$$$

 Created by Python create_sdf_string function

 26 30  0  0  0  0  0  0  0  0999 V2000
   10.0084   -1.8019   23.4945 C   0  0  0  0  0  0  0  0  0  0  0  0
   10.0005   -4.2520   16.5631 C   0  0  0  0  0  0  0  0  0  0  0  0
   10.2759   -4.0036   17.8845 C   0  0  0  0  0  0  0  0  0  0  0  0
    8.5652    1.5478   25.3778 N   0  0  0  0  0  0  0  0  0  0  0  0
    6.8048   -7.5457   17.8752 C   0  0  0  0  0  0  0  0  0  0  0  0
    6.1721   -8.2186   15.9886 N   0  0  0  0  0  0  0  0  0  0  0  0
   11.1764   -2.6600   19.5604 C   0  0  0  0  0  0  0  0  0  0  0  0
    9.5491   -0.6380   24.1912 C   0  0  0  0  0  0  0  0  0  0  0  0
    7.5337   -6.9256   16.9519 C   0  0  0  0  0  0  0  0  0  0  0  0
    9.6782    0.5671   23.5143 C   0  0  0  0  0  0  0  0  0  0  0  0
    8.4532    0.3482   26.0821 C   0  0  0  0  0  0  0  0  0  0  0  0
   10.4239   -1.7677   22.2230 N   0  0  0  0  0  0  0  0  0  0  0  0
    9.9468   -4.5953   20.1709 C   0  0  0  0  0  0  0  0  0  0  0  0
   10.0366   -3.0590   23.9864 N   0  0  0  0  0  0  0  0  0  0  0  0
    7.1191   -7.3636   15.7739 C   0  0  0  0  0  0  0  0  0  0  0  0
    5.9612   -8.3203   17.2732 N   0  0  0  0  0  0  0  0  0  0  0  0
    8.5296   -5.9814   17.1841 C   0  0  0  0  0  0  0  0  0  0  0  0
    9.1527   -5.2118   16.2116 C   0  0  0  0  0  0  0  0  0  0  0  0
   10.3364   -3.8368   22.9255 O   0  0  0  0  0  0  0  0  0  0  0  0
    9.6947   -4.8407   18.8534 C   0  0  0  0  0  0  0  0  0  0  0  0
    9.1596    1.7042   24.1381 C   0  0  0  0  0  0  0  0  0  0  0  0
   11.0456   -2.9774   18.2694 N   0  0  0  0  0  0  0  0  0  0  0  0
   10.4788   -3.0457   21.8593 C   0  0  0  0  0  0  0  0  0  0  0  0
    8.8693   -5.8099   18.4657 N   0  0  0  0  0  0  0  0  0  0  0  0
    8.9892   -0.7926   25.4573 C   0  0  0  0  0  0  0  0  0  0  0  0
   10.5677   -3.4462   20.5323 C   0  0  0  0  0  0  0  0  0  0  0  0
  1  8  1  0
  1 12  4  0
  1 14  4  0
  2  3  4  0
  2 18  4  0
  3 20  4  0
  3 22  4  0
  4 11  4  0
  4 21  4  0
  5  9  4  0
  5 16  4  0
  6 15  4  0
  6 16  4  0
  7 22  4  0
  7 26  4  0
  8 10  4  0
  8 25  4  0
  9 15  4  0
  9 17  1  0
 10 21  4  0
 11 25  4  0
 12 23  4  0
 13 20  4  0
 13 26  4  0
 14 19  4  0
 17 18  4  0
 17 24  4  0
 19 23  4  0
 20 24  4  0
 23 26  1  0
M  END
$$$$

 Created by Python create_sdf_string function

 26 30  0  0  0  0  0  0  0  0999 V2000
   10.0084   -1.8019   23.4945 C   0  0  0  0  0  0  0  0  0  0  0  0
   10.0005   -4.2520   16.5631 C   0  0  0  0  0  0  0  0  0  0  0  0
   10.2759   -4.0036   17.8845 C   0  0  0  0  0  0  0  0  0  0  0  0
    8.5652    1.5478   25.3778 N   0  0  0  0  0  0  0  0  0  0  0  0
    6.8048   -7.5457   17.8752 C   0  0  0  0  0  0  0  0  0  0  0  0
    6.1721   -8.2186   15.9886 N   0  0  0  0  0  0  0  0  0  0  0  0
   11.1764   -2.6600   19.5604 C   0  0  0  0  0  0  0  0  0  0  0  0
    9.5491   -0.6380   24.1912 C   0  0  0  0  0  0  0  0  0  0  0  0
    7.5337   -6.9256   16.9519 C   0  0  0  0  0  0  0  0  0  0  0  0
    9.6782    0.5671   23.5143 C   0  0  0  0  0  0  0  0  0  0  0  0
    8.4532    0.3482   26.0821 C   0  0  0  0  0  0  0  0  0  0  0  0
   10.4239   -1.7677   22.2230 N   0  0  0  0  0  0  0  0  0  0  0  0
    9.9468   -4.5953   20.1709 C   0  0  0  0  0  0  0  0  0  0  0  0
   10.0366   -3.0590   23.9864 N   0  0  0  0  0  0  0  0  0  0  0  0
    7.1191   -7.3636   15.7739 C   0  0  0  0  0  0  0  0  0  0  0  0
    5.9612   -8.3203   17.2732 N   0  0  0  0  0  0  0  0  0  0  0  0
    8.5296   -5.9814   17.1841 C   0  0  0  0  0  0  0  0  0  0  0  0
    9.1527   -5.2118   16.2116 C   0  0  0  0  0  0  0  0  0  0  0  0
   10.3364   -3.8368   22.9255 O   0  0  0  0  0  0  0  0  0  0  0  0
    9.6947   -4.8407   18.8534 C   0  0  0  0  0  0  0  0  0  0  0  0
    9.1596    1.7042   24.1381 C   0  0  0  0  0  0  0  0  0  0  0  0
   11.0456   -2.9774   18.2694 N   0  0  0  0  0  0  0  0  0  0  0  0
   10.4788   -3.0457   21.8593 C   0  0  0  0  0  0  0  0  0  0  0  0
    8.8693   -5.8099   18.4657 N   0  0  0  0  0  0  0  0  0  0  0  0
    8.9892   -0.7926   25.4573 C   0  0  0  0  0  0  0  0  0  0  0  0
   10.5677   -3.4462   20.5323 C   0  0  0  0  0  0  0  0  0  0  0  0
  1  8  1  0
  1 12  4  0
  1 14  4  0
  2  3  4  0
  2 18  4  0
  3 20  4  0
  3 22  4  0
  4 11  4  0
  4 21  4  0
  5  9  4  0
  5 16  4  0
  6 15  4  0
  6 16  4  0
  7 22  4  0
  7 26  4  0
  8 10  4  0
  8 25  4  0
  9 15  4  0
  9 17  1  0
 10 21  4  0
 11 25  4  0
 12 23  4  0
 13 20  4  0
 13 26  4  0
 14 19  4  0
 17 18  4  0
 17 24  4  0
 19 23  4  0
 20 24  4  0
 23 26  1  0
M  END
$$$$

 Created by Python create_sdf_string function

 26 30  0  0  0  0  0  0  0  0999 V2000
   10.0084   -1.8019   23.4945 C   0  0  0  0  0  0  0  0  0  0  0  0
   10.0005   -4.2520   16.5631 C   0  0  0  0  0  0  0  0  0  0  0  0
   10.2759   -4.0036   17.8845 C   0  0  0  0  0  0  0  0  0  0  0  0
    8.5652    1.5478   25.3778 N   0  0  0  0  0  0  0  0  0  0  0  0
    6.8048   -7.5457   17.8752 C   0  0  0  0  0  0  0  0  0  0  0  0
    6.1721   -8.2186   15.9886 N   0  0  0  0  0  0  0  0  0  0  0  0
   11.1764   -2.6600   19.5604 C   0  0  0  0  0  0  0  0  0  0  0  0
    9.5491   -0.6380   24.1912 C   0  0  0  0  0  0  0  0  0  0  0  0
    7.5337   -6.9256   16.9519 C   0  0  0  0  0  0  0  0  0  0  0  0
    9.6782    0.5671   23.5143 C   0  0  0  0  0  0  0  0  0  0  0  0
    8.4532    0.3482   26.0821 C   0  0  0  0  0  0  0  0  0  0  0  0
   10.4239   -1.7677   22.2230 N   0  0  0  0  0  0  0  0  0  0  0  0
    9.9468   -4.5953   20.1709 C   0  0  0  0  0  0  0  0  0  0  0  0
   10.0366   -3.0590   23.9864 N   0  0  0  0  0  0  0  0  0  0  0  0
    7.1191   -7.3636   15.7739 C   0  0  0  0  0  0  0  0  0  0  0  0
    5.9612   -8.3203   17.2732 N   0  0  0  0  0  0  0  0  0  0  0  0
    8.5296   -5.9814   17.1841 C   0  0  0  0  0  0  0  0  0  0  0  0
    9.1527   -5.2118   16.2116 C   0  0  0  0  0  0  0  0  0  0  0  0
   10.3364   -3.8368   22.9255 O   0  0  0  0  0  0  0  0  0  0  0  0
    9.6947   -4.8407   18.8534 C   0  0  0  0  0  0  0  0  0  0  0  0
    9.1596    1.7042   24.1381 C   0  0  0  0  0  0  0  0  0  0  0  0
   11.0456   -2.9774   18.2694 N   0  0  0  0  0  0  0  0  0  0  0  0
   10.4788   -3.0457   21.8593 C   0  0  0  0  0  0  0  0  0  0  0  0
    8.8693   -5.8099   18.4657 N   0  0  0  0  0  0  0  0  0  0  0  0
    8.9892   -0.7926   25.4573 C   0  0  0  0  0  0  0  0  0  0  0  0
   10.5677   -3.4462   20.5323 C   0  0  0  0  0  0  0  0  0  0  0  0
  1  8  1  0
  1 12  4  0
  1 14  4  0
  2  3  4  0
  2 18  4  0
  3 20  4  0
  3 22  4  0
  4 11  4  0
  4 21  4  0
  5  9  4  0
  5 16  4  0
  6 15  4  0
  6 16  4  0
  7 22  4  0
  7 26  4  0
  8 10  4  0
  8 25  4  0
  9 15  4  0
  9 17  1  0
 10 21  4  0
 11 25  4  0
 12 23  4  0
 13 20  4  0
 13 26  4  0
 14 19  4  0
 17 18  4  0
 17 24  4  0
 19 23  4  0
 20 24  4  0
 23 26  1  0
M  END
$$$$

 Created by Python create_sdf_string function

 26 30  0  0  0  0  0  0  0  0999 V2000
   10.0084   -1.8019   23.4945 C   0  0  0  0  0  0  0  0  0  0  0  0
   10.0005   -4.2520   16.5631 C   0  0  0  0  0  0  0  0  0  0  0  0
   10.2759   -4.0036   17.8845 C   0  0  0  0  0  0  0  0  0  0  0  0
    8.5652    1.5478   25.3778 N   0  0  0  0  0  0  0  0  0  0  0  0
    6.8048   -7.5457   17.8752 C   0  0  0  0  0  0  0  0  0  0  0  0
    6.1721   -8.2186   15.9886 N   0  0  0  0  0  0  0  0  0  0  0  0
   11.1764   -2.6600   19.5604 C   0  0  0  0  0  0  0  0  0  0  0  0
    9.5491   -0.6380   24.1912 C   0  0  0  0  0  0  0  0  0  0  0  0
    7.5337   -6.9256   16.9519 C   0  0  0  0  0  0  0  0  0  0  0  0
    9.6782    0.5671   23.5143 C   0  0  0  0  0  0  0  0  0  0  0  0
    8.4532    0.3482   26.0821 C   0  0  0  0  0  0  0  0  0  0  0  0
   10.4239   -1.7677   22.2230 N   0  0  0  0  0  0  0  0  0  0  0  0
    9.9468   -4.5953   20.1709 C   0  0  0  0  0  0  0  0  0  0  0  0
   10.0366   -3.0590   23.9864 N   0  0  0  0  0  0  0  0  0  0  0  0
    7.1191   -7.3636   15.7739 C   0  0  0  0  0  0  0  0  0  0  0  0
    5.9612   -8.3203   17.2732 N   0  0  0  0  0  0  0  0  0  0  0  0
    8.5296   -5.9814   17.1841 C   0  0  0  0  0  0  0  0  0  0  0  0
    9.1527   -5.2118   16.2116 C   0  0  0  0  0  0  0  0  0  0  0  0
   10.3364   -3.8368   22.9255 O   0  0  0  0  0  0  0  0  0  0  0  0
    9.6947   -4.8407   18.8534 C   0  0  0  0  0  0  0  0  0  0  0  0
    9.1596    1.7042   24.1381 C   0  0  0  0  0  0  0  0  0  0  0  0
   11.0456   -2.9774   18.2694 N   0  0  0  0  0  0  0  0  0  0  0  0
   10.4788   -3.0457   21.8593 C   0  0  0  0  0  0  0  0  0  0  0  0
    8.8693   -5.8099   18.4657 N   0  0  0  0  0  0  0  0  0  0  0  0
    8.9892   -0.7926   25.4573 C   0  0  0  0  0  0  0  0  0  0  0  0
   10.5677   -3.4462   20.5323 C   0  0  0  0  0  0  0  0  0  0  0  0
  1  8  1  0
  1 12  4  0
  1 14  4  0
  2  3  4  0
  2 18  4  0
  3 20  4  0
  3 22  4  0
  4 11  4  0
  4 21  4  0
  5  9  4  0
  5 16  4  0
  6 15  4  0
  6 16  4  0
  7 22  4  0
  7 26  4  0
  8 10  4  0
  8 25  4  0
  9 15  4  0
  9 17  1  0
 10 21  4  0
 11 25  4  0
 12 23  4  0
 13 20  4  0
 13 26  4  0
 14 19  4  0
 17 18  4  0
 17 24  4  0
 19 23  4  0
 20 24  4  0
 23 26  1  0
M  END
$$$$

 Created by Python create_sdf_string function

 26 30  0  0  0  0  0  0  0  0999 V2000
   10.0084   -1.8019   23.4945 C   0  0  0  0  0  0  0  0  0  0  0  0
   10.0005   -4.2520   16.5631 C   0  0  0  0  0  0  0  0  0  0  0  0
   10.2759   -4.0036   17.8845 C   0  0  0  0  0  0  0  0  0  0  0  0
    8.5652    1.5478   25.3778 N   0  0  0  0  0  0  0  0  0  0  0  0
    6.8048   -7.5457   17.8752 C   0  0  0  0  0  0  0  0  0  0  0  0
    6.1721   -8.2186   15.9886 N   0  0  0  0  0  0  0  0  0  0  0  0
   11.1764   -2.6600   19.5604 C   0  0  0  0  0  0  0  0  0  0  0  0
    9.5491   -0.6380   24.1912 C   0  0  0  0  0  0  0  0  0  0  0  0
    7.5337   -6.9256   16.9519 C   0  0  0  0  0  0  0  0  0  0  0  0
    9.6782    0.5671   23.5143 C   0  0  0  0  0  0  0  0  0  0  0  0
    8.4532    0.3482   26.0821 C   0  0  0  0  0  0  0  0  0  0  0  0
   10.4239   -1.7677   22.2230 N   0  0  0  0  0  0  0  0  0  0  0  0
    9.9468   -4.5953   20.1709 C   0  0  0  0  0  0  0  0  0  0  0  0
   10.0366   -3.0590   23.9864 N   0  0  0  0  0  0  0  0  0  0  0  0
    7.1191   -7.3636   15.7739 C   0  0  0  0  0  0  0  0  0  0  0  0
    5.9612   -8.3203   17.2732 N   0  0  0  0  0  0  0  0  0  0  0  0
    8.5296   -5.9814   17.1841 C   0  0  0  0  0  0  0  0  0  0  0  0
    9.1527   -5.2118   16.2116 C   0  0  0  0  0  0  0  0  0  0  0  0
   10.3364   -3.8368   22.9255 O   0  0  0  0  0  0  0  0  0  0  0  0
    9.6947   -4.8407   18.8534 C   0  0  0  0  0  0  0  0  0  0  0  0
    9.1596    1.7042   24.1381 C   0  0  0  0  0  0  0  0  0  0  0  0
   11.0456   -2.9774   18.2694 N   0  0  0  0  0  0  0  0  0  0  0  0
   10.4788   -3.0457   21.8593 C   0  0  0  0  0  0  0  0  0  0  0  0
    8.8693   -5.8099   18.4657 N   0  0  0  0  0  0  0  0  0  0  0  0
    8.9892   -0.7926   25.4573 C   0  0  0  0  0  0  0  0  0  0  0  0
   10.5677   -3.4462   20.5323 C   0  0  0  0  0  0  0  0  0  0  0  0
  1  8  1  0
  1 12  4  0
  1 14  4  0
  2  3  4  0
  2 18  4  0
  3 20  4  0
  3 22  4  0
  4 11  4  0
  4 21  4  0
  5  9  4  0
  5 16  4  0
  6 15  4  0
  6 16  4  0
  7 22  4  0
  7 26  4  0
  8 10  4  0
  8 25  4  0
  9 15  4  0
  9 17  1  0
 10 21  4  0
 11 25  4  0
 12 23  4  0
 13 20  4  0
 13 26  4  0
 14 19  4  0
 17 18  4  0
 17 24  4  0
 19 23  4  0
 20 24  4  0
 23 26  1  0
M  END
$$$$

 Created by Python create_sdf_string function

 26 30  0  0  0  0  0  0  0  0999 V2000
   10.0084   -1.8019   23.4945 C   0  0  0  0  0  0  0  0  0  0  0  0
   10.0005   -4.2520   16.5631 C   0  0  0  0  0  0  0  0  0  0  0  0
   10.2759   -4.0036   17.8845 C   0  0  0  0  0  0  0  0  0  0  0  0
    8.5652    1.5478   25.3778 N   0  0  0  0  0  0  0  0  0  0  0  0
    6.8048   -7.5457   17.8752 C   0  0  0  0  0  0  0  0  0  0  0  0
    6.1721   -8.2186   15.9886 N   0  0  0  0  0  0  0  0  0  0  0  0
   11.1764   -2.6600   19.5604 C   0  0  0  0  0  0  0  0  0  0  0  0
    9.5491   -0.6380   24.1912 C   0  0  0  0  0  0  0  0  0  0  0  0
    7.5337   -6.9256   16.9519 C   0  0  0  0  0  0  0  0  0  0  0  0
    9.6782    0.5671   23.5143 C   0  0  0  0  0  0  0  0  0  0  0  0
    8.4532    0.3482   26.0821 C   0  0  0  0  0  0  0  0  0  0  0  0
   10.4239   -1.7677   22.2230 N   0  0  0  0  0  0  0  0  0  0  0  0
    9.9468   -4.5953   20.1709 C   0  0  0  0  0  0  0  0  0  0  0  0
   10.0366   -3.0590   23.9864 N   0  0  0  0  0  0  0  0  0  0  0  0
    7.1191   -7.3636   15.7739 C   0  0  0  0  0  0  0  0  0  0  0  0
    5.9612   -8.3203   17.2732 N   0  0  0  0  0  0  0  0  0  0  0  0
    8.5296   -5.9814   17.1841 C   0  0  0  0  0  0  0  0  0  0  0  0
    9.1527   -5.2118   16.2116 C   0  0  0  0  0  0  0  0  0  0  0  0
   10.3364   -3.8368   22.9255 O   0  0  0  0  0  0  0  0  0  0  0  0
    9.6947   -4.8407   18.8534 C   0  0  0  0  0  0  0  0  0  0  0  0
    9.1596    1.7042   24.1381 C   0  0  0  0  0  0  0  0  0  0  0  0
   11.0456   -2.9774   18.2694 N   0  0  0  0  0  0  0  0  0  0  0  0
   10.4788   -3.0457   21.8593 C   0  0  0  0  0  0  0  0  0  0  0  0
    8.8693   -5.8099   18.4657 N   0  0  0  0  0  0  0  0  0  0  0  0
    8.9892   -0.7926   25.4573 C   0  0  0  0  0  0  0  0  0  0  0  0
   10.5677   -3.4462   20.5323 C   0  0  0  0  0  0  0  0  0  0  0  0
  1  8  1  0
  1 12  4  0
  1 14  4  0
  2  3  4  0
  2 18  4  0
  3 20  4  0
  3 22  4  0
  4 11  4  0
  4 21  4  0
  5  9  4  0
  5 16  4  0
  6 15  4  0
  6 16  4  0
  7 22  4  0
  7 26  4  0
  8 10  4  0
  8 25  4  0
  9 15  4  0
  9 17  1  0
 10 21  4  0
 11 25  4  0
 12 23  4  0
 13 20  4  0
 13 26  4  0
 14 19  4  0
 17 18  4  0
 17 24  4  0
 19 23  4  0
 20 24  4  0
 23 26  1  0
M  END
$$$$

 Created by Python create_sdf_string function

 26 30  0  0  0  0  0  0  0  0999 V2000
   10.0084   -1.8019   23.4945 C   0  0  0  0  0  0  0  0  0  0  0  0
   10.0005   -4.2520   16.5631 C   0  0  0  0  0  0  0  0  0  0  0  0
   10.2759   -4.0036   17.8845 C   0  0  0  0  0  0  0  0  0  0  0  0
    8.5652    1.5478   25.3778 N   0  0  0  0  0  0  0  0  0  0  0  0
    6.8048   -7.5457   17.8752 C   0  0  0  0  0  0  0  0  0  0  0  0
    6.1721   -8.2186   15.9886 N   0  0  0  0  0  0  0  0  0  0  0  0
   11.1764   -2.6600   19.5604 C   0  0  0  0  0  0  0  0  0  0  0  0
    9.5491   -0.6380   24.1912 C   0  0  0  0  0  0  0  0  0  0  0  0
    7.5337   -6.9256   16.9519 C   0  0  0  0  0  0  0  0  0  0  0  0
    9.6782    0.5671   23.5143 C   0  0  0  0  0  0  0  0  0  0  0  0
    8.4532    0.3482   26.0821 C   0  0  0  0  0  0  0  0  0  0  0  0
   10.4239   -1.7677   22.2230 N   0  0  0  0  0  0  0  0  0  0  0  0
    9.9468   -4.5953   20.1709 C   0  0  0  0  0  0  0  0  0  0  0  0
   10.0366   -3.0590   23.9864 N   0  0  0  0  0  0  0  0  0  0  0  0
    7.1191   -7.3636   15.7739 C   0  0  0  0  0  0  0  0  0  0  0  0
    5.9612   -8.3203   17.2732 N   0  0  0  0  0  0  0  0  0  0  0  0
    8.5296   -5.9814   17.1841 C   0  0  0  0  0  0  0  0  0  0  0  0
    9.1527   -5.2118   16.2116 C   0  0  0  0  0  0  0  0  0  0  0  0
   10.3364   -3.8368   22.9255 O   0  0  0  0  0  0  0  0  0  0  0  0
    9.6947   -4.8407   18.8534 C   0  0  0  0  0  0  0  0  0  0  0  0
    9.1596    1.7042   24.1381 C   0  0  0  0  0  0  0  0  0  0  0  0
   11.0456   -2.9774   18.2694 N   0  0  0  0  0  0  0  0  0  0  0  0
   10.4788   -3.0457   21.8593 C   0  0  0  0  0  0  0  0  0  0  0  0
    8.8693   -5.8099   18.4657 N   0  0  0  0  0  0  0  0  0  0  0  0
    8.9892   -0.7926   25.4573 C   0  0  0  0  0  0  0  0  0  0  0  0
   10.5677   -3.4462   20.5323 C   0  0  0  0  0  0  0  0  0  0  0  0
  1  8  1  0
  1 12  4  0
  1 14  4  0
  2  3  4  0
  2 18  4  0
  3 20  4  0
  3 22  4  0
  4 11  4  0
  4 21  4  0
  5  9  4  0
  5 16  4  0
  6 15  4  0
  6 16  4  0
  7 22  4  0
  7 26  4  0
  8 10  4  0
  8 25  4  0
  9 15  4  0
  9 17  1  0
 10 21  4  0
 11 25  4  0
 12 23  4  0
 13 20  4  0
 13 26  4  0
 14 19  4  0
 17 18  4  0
 17 24  4  0
 19 23  4  0
 20 24  4  0
 23 26  1  0
M  END
$$$$

 Created by Python create_sdf_string function

 26 30  0  0  0  0  0  0  0  0999 V2000
   10.0084   -1.8019   23.4945 C   0  0  0  0  0  0  0  0  0  0  0  0
   10.0005   -4.2520   16.5631 C   0  0  0  0  0  0  0  0  0  0  0  0
   10.2759   -4.0036   17.8845 C   0  0  0  0  0  0  0  0  0  0  0  0
    8.5652    1.5478   25.3778 N   0  0  0  0  0  0  0  0  0  0  0  0
    6.8048   -7.5457   17.8752 C   0  0  0  0  0  0  0  0  0  0  0  0
    6.1721   -8.2186   15.9886 N   0  0  0  0  0  0  0  0  0  0  0  0
   11.1764   -2.6600   19.5604 C   0  0  0  0  0  0  0  0  0  0  0  0
    9.5491   -0.6380   24.1912 C   0  0  0  0  0  0  0  0  0  0  0  0
    7.5337   -6.9256   16.9519 C   0  0  0  0  0  0  0  0  0  0  0  0
    9.6782    0.5671   23.5143 C   0  0  0  0  0  0  0  0  0  0  0  0
    8.4532    0.3482   26.0821 C   0  0  0  0  0  0  0  0  0  0  0  0
   10.4239   -1.7677   22.2230 N   0  0  0  0  0  0  0  0  0  0  0  0
    9.9468   -4.5953   20.1709 C   0  0  0  0  0  0  0  0  0  0  0  0
   10.0366   -3.0590   23.9864 N   0  0  0  0  0  0  0  0  0  0  0  0
    7.1191   -7.3636   15.7739 C   0  0  0  0  0  0  0  0  0  0  0  0
    5.9612   -8.3203   17.2732 N   0  0  0  0  0  0  0  0  0  0  0  0
    8.5296   -5.9814   17.1841 C   0  0  0  0  0  0  0  0  0  0  0  0
    9.1527   -5.2118   16.2116 C   0  0  0  0  0  0  0  0  0  0  0  0
   10.3364   -3.8368   22.9255 O   0  0  0  0  0  0  0  0  0  0  0  0
    9.6947   -4.8407   18.8534 C   0  0  0  0  0  0  0  0  0  0  0  0
    9.1596    1.7042   24.1381 C   0  0  0  0  0  0  0  0  0  0  0  0
   11.0456   -2.9774   18.2694 N   0  0  0  0  0  0  0  0  0  0  0  0
   10.4788   -3.0457   21.8593 C   0  0  0  0  0  0  0  0  0  0  0  0
    8.8693   -5.8099   18.4657 N   0  0  0  0  0  0  0  0  0  0  0  0
    8.9892   -0.7926   25.4573 C   0  0  0  0  0  0  0  0  0  0  0  0
   10.5677   -3.4462   20.5323 C   0  0  0  0  0  0  0  0  0  0  0  0
  1  8  1  0
  1 12  4  0
  1 14  4  0
  2  3  4  0
  2 18  4  0
  3 20  4  0
  3 22  4  0
  4 11  4  0
  4 21  4  0
  5  9  4  0
  5 16  4  0
  6 15  4  0
  6 16  4  0
  7 22  4  0
  7 26  4  0
  8 10  4  0
  8 25  4  0
  9 15  4  0
  9 17  1  0
 10 21  4  0
 11 25  4  0
 12 23  4  0
 13 20  4  0
 13 26  4  0
 14 19  4  0
 17 18  4  0
 17 24  4  0
 19 23  4  0
 20 24  4  0
 23 26  1  0
M  END
$$$$

 Created by Python create_sdf_string function

 26 30  0  0  0  0  0  0  0  0999 V2000
   10.0084   -1.8019   23.4945 C   0  0  0  0  0  0  0  0  0  0  0  0
   10.0005   -4.2520   16.5631 C   0  0  0  0  0  0  0  0  0  0  0  0
   10.2759   -4.0036   17.8845 C   0  0  0  0  0  0  0  0  0  0  0  0
    8.5652    1.5478   25.3778 N   0  0  0  0  0  0  0  0  0  0  0  0
    6.8048   -7.5457   17.8752 C   0  0  0  0  0  0  0  0  0  0  0  0
    6.1721   -8.2186   15.9886 N   0  0  0  0  0  0  0  0  0  0  0  0
   11.1764   -2.6600   19.5604 C   0  0  0  0  0  0  0  0  0  0  0  0
    9.5491   -0.6380   24.1912 C   0  0  0  0  0  0  0  0  0  0  0  0
    7.5337   -6.9256   16.9519 C   0  0  0  0  0  0  0  0  0  0  0  0
    9.6782    0.5671   23.5143 C   0  0  0  0  0  0  0  0  0  0  0  0
    8.4532    0.3482   26.0821 C   0  0  0  0  0  0  0  0  0  0  0  0
   10.4239   -1.7677   22.2230 N   0  0  0  0  0  0  0  0  0  0  0  0
    9.9468   -4.5953   20.1709 C   0  0  0  0  0  0  0  0  0  0  0  0
   10.0366   -3.0590   23.9864 N   0  0  0  0  0  0  0  0  0  0  0  0
    7.1191   -7.3636   15.7739 C   0  0  0  0  0  0  0  0  0  0  0  0
    5.9612   -8.3203   17.2732 N   0  0  0  0  0  0  0  0  0  0  0  0
    8.5296   -5.9814   17.1841 C   0  0  0  0  0  0  0  0  0  0  0  0
    9.1527   -5.2118   16.2116 C   0  0  0  0  0  0  0  0  0  0  0  0
   10.3364   -3.8368   22.9255 O   0  0  0  0  0  0  0  0  0  0  0  0
    9.6947   -4.8407   18.8534 C   0  0  0  0  0  0  0  0  0  0  0  0
    9.1596    1.7042   24.1381 C   0  0  0  0  0  0  0  0  0  0  0  0
   11.0456   -2.9774   18.2694 N   0  0  0  0  0  0  0  0  0  0  0  0
   10.4788   -3.0457   21.8593 C   0  0  0  0  0  0  0  0  0  0  0  0
    8.8693   -5.8099   18.4657 N   0  0  0  0  0  0  0  0  0  0  0  0
    8.9892   -0.7926   25.4573 C   0  0  0  0  0  0  0  0  0  0  0  0
   10.5677   -3.4462   20.5323 C   0  0  0  0  0  0  0  0  0  0  0  0
  1  8  1  0
  1 12  4  0
  1 14  4  0
  2  3  4  0
  2 18  4  0
  3 20  4  0
  3 22  4  0
  4 11  4  0
  4 21  4  0
  5  9  4  0
  5 16  4  0
  6 15  4  0
  6 16  4  0
  7 22  4  0
  7 26  4  0
  8 10  4  0
  8 25  4  0
  9 15  4  0
  9 17  1  0
 10 21  4  0
 11 25  4  0
 12 23  4  0
 13 20  4  0
 13 26  4  0
 14 19  4  0
 17 18  4  0
 17 24  4  0
 19 23  4  0
 20 24  4  0
 23 26  1  0
M  END
$$$$

 Created by Python create_sdf_string function

 26 30  0  0  0  0  0  0  0  0999 V2000
   10.0084   -1.8019   23.4945 C   0  0  0  0  0  0  0  0  0  0  0  0
   10.0005   -4.2520   16.5631 C   0  0  0  0  0  0  0  0  0  0  0  0
   10.2759   -4.0036   17.8845 C   0  0  0  0  0  0  0  0  0  0  0  0
    8.5652    1.5478   25.3778 N   0  0  0  0  0  0  0  0  0  0  0  0
    6.8048   -7.5457   17.8752 C   0  0  0  0  0  0  0  0  0  0  0  0
    6.1721   -8.2186   15.9886 N   0  0  0  0  0  0  0  0  0  0  0  0
   11.1764   -2.6600   19.5604 C   0  0  0  0  0  0  0  0  0  0  0  0
    9.5491   -0.6380   24.1912 C   0  0  0  0  0  0  0  0  0  0  0  0
    7.5337   -6.9256   16.9519 C   0  0  0  0  0  0  0  0  0  0  0  0
    9.6782    0.5671   23.5143 C   0  0  0  0  0  0  0  0  0  0  0  0
    8.4532    0.3482   26.0821 C   0  0  0  0  0  0  0  0  0  0  0  0
   10.4239   -1.7677   22.2230 N   0  0  0  0  0  0  0  0  0  0  0  0
    9.9468   -4.5953   20.1709 C   0  0  0  0  0  0  0  0  0  0  0  0
   10.0366   -3.0590   23.9864 N   0  0  0  0  0  0  0  0  0  0  0  0
    7.1191   -7.3636   15.7739 C   0  0  0  0  0  0  0  0  0  0  0  0
    5.9612   -8.3203   17.2732 N   0  0  0  0  0  0  0  0  0  0  0  0
    8.5296   -5.9814   17.1841 C   0  0  0  0  0  0  0  0  0  0  0  0
    9.1527   -5.2118   16.2116 C   0  0  0  0  0  0  0  0  0  0  0  0
   10.3364   -3.8368   22.9255 O   0  0  0  0  0  0  0  0  0  0  0  0
    9.6947   -4.8407   18.8534 C   0  0  0  0  0  0  0  0  0  0  0  0
    9.1596    1.7042   24.1381 C   0  0  0  0  0  0  0  0  0  0  0  0
   11.0456   -2.9774   18.2694 N   0  0  0  0  0  0  0  0  0  0  0  0
   10.4788   -3.0457   21.8593 C   0  0  0  0  0  0  0  0  0  0  0  0
    8.8693   -5.8099   18.4657 N   0  0  0  0  0  0  0  0  0  0  0  0
    8.9892   -0.7926   25.4573 C   0  0  0  0  0  0  0  0  0  0  0  0
   10.5677   -3.4462   20.5323 C   0  0  0  0  0  0  0  0  0  0  0  0
  1  8  1  0
  1 12  4  0
  1 14  4  0
  2  3  4  0
  2 18  4  0
  3 20  4  0
  3 22  4  0
  4 11  4  0
  4 21  4  0
  5  9  4  0
  5 16  4  0
  6 15  4  0
  6 16  4  0
  7 22  4  0
  7 26  4  0
  8 10  4  0
  8 25  4  0
  9 15  4  0
  9 17  1  0
 10 21  4  0
 11 25  4  0
 12 23  4  0
 13 20  4  0
 13 26  4  0
 14 19  4  0
 17 18  4  0
 17 24  4  0
 19 23  4  0
 20 24  4  0
 23 26  1  0
M  END
$$$$

 Created by Python create_sdf_string function

 26 30  0  0  0  0  0  0  0  0999 V2000
   10.0084   -1.8019   23.4945 C   0  0  0  0  0  0  0  0  0  0  0  0
   10.0005   -4.2520   16.5631 C   0  0  0  0  0  0  0  0  0  0  0  0
   10.2759   -4.0036   17.8845 C   0  0  0  0  0  0  0  0  0  0  0  0
    8.5652    1.5478   25.3778 N   0  0  0  0  0  0  0  0  0  0  0  0
    6.8048   -7.5457   17.8752 C   0  0  0  0  0  0  0  0  0  0  0  0
    6.1721   -8.2186   15.9886 N   0  0  0  0  0  0  0  0  0  0  0  0
   11.1764   -2.6600   19.5604 C   0  0  0  0  0  0  0  0  0  0  0  0
    9.5491   -0.6380   24.1912 C   0  0  0  0  0  0  0  0  0  0  0  0
    7.5337   -6.9256   16.9519 C   0  0  0  0  0  0  0  0  0  0  0  0
    9.6782    0.5671   23.5143 C   0  0  0  0  0  0  0  0  0  0  0  0
    8.4532    0.3482   26.0821 C   0  0  0  0  0  0  0  0  0  0  0  0
   10.4239   -1.7677   22.2230 N   0  0  0  0  0  0  0  0  0  0  0  0
    9.9468   -4.5953   20.1709 C   0  0  0  0  0  0  0  0  0  0  0  0
   10.0366   -3.0590   23.9864 N   0  0  0  0  0  0  0  0  0  0  0  0
    7.1191   -7.3636   15.7739 C   0  0  0  0  0  0  0  0  0  0  0  0
    5.9612   -8.3203   17.2732 N   0  0  0  0  0  0  0  0  0  0  0  0
    8.5296   -5.9814   17.1841 C   0  0  0  0  0  0  0  0  0  0  0  0
    9.1527   -5.2118   16.2116 C   0  0  0  0  0  0  0  0  0  0  0  0
   10.3364   -3.8368   22.9255 O   0  0  0  0  0  0  0  0  0  0  0  0
    9.6947   -4.8407   18.8534 C   0  0  0  0  0  0  0  0  0  0  0  0
    9.1596    1.7042   24.1381 C   0  0  0  0  0  0  0  0  0  0  0  0
   11.0456   -2.9774   18.2694 N   0  0  0  0  0  0  0  0  0  0  0  0
   10.4788   -3.0457   21.8593 C   0  0  0  0  0  0  0  0  0  0  0  0
    8.8693   -5.8099   18.4657 N   0  0  0  0  0  0  0  0  0  0  0  0
    8.9892   -0.7926   25.4573 C   0  0  0  0  0  0  0  0  0  0  0  0
   10.5677   -3.4462   20.5323 C   0  0  0  0  0  0  0  0  0  0  0  0
  1  8  1  0
  1 12  4  0
  1 14  4  0
  2  3  4  0
  2 18  4  0
  3 20  4  0
  3 22  4  0
  4 11  4  0
  4 21  4  0
  5  9  4  0
  5 16  4  0
  6 15  4  0
  6 16  4  0
  7 22  4  0
  7 26  4  0
  8 10  4  0
  8 25  4  0
  9 15  4  0
  9 17  1  0
 10 21  4  0
 11 25  4  0
 12 23  4  0
 13 20  4  0
 13 26  4  0
 14 19  4  0
 17 18  4  0
 17 24  4  0
 19 23  4  0
 20 24  4  0
 23 26  1  0
M  END
$$$$

 Created by Python create_sdf_string function

 26 30  0  0  0  0  0  0  0  0999 V2000
   10.0084   -1.8019   23.4945 C   0  0  0  0  0  0  0  0  0  0  0  0
   10.0005   -4.2520   16.5631 C   0  0  0  0  0  0  0  0  0  0  0  0
   10.2759   -4.0036   17.8845 C   0  0  0  0  0  0  0  0  0  0  0  0
    8.5652    1.5478   25.3778 N   0  0  0  0  0  0  0  0  0  0  0  0
    6.8048   -7.5457   17.8752 C   0  0  0  0  0  0  0  0  0  0  0  0
    6.1721   -8.2186   15.9886 N   0  0  0  0  0  0  0  0  0  0  0  0
   11.1764   -2.6600   19.5604 C   0  0  0  0  0  0  0  0  0  0  0  0
    9.5491   -0.6380   24.1912 C   0  0  0  0  0  0  0  0  0  0  0  0
    7.5337   -6.9256   16.9519 C   0  0  0  0  0  0  0  0  0  0  0  0
    9.6782    0.5671   23.5143 C   0  0  0  0  0  0  0  0  0  0  0  0
    8.4532    0.3482   26.0821 C   0  0  0  0  0  0  0  0  0  0  0  0
   10.4239   -1.7677   22.2230 N   0  0  0  0  0  0  0  0  0  0  0  0
    9.9468   -4.5953   20.1709 C   0  0  0  0  0  0  0  0  0  0  0  0
   10.0366   -3.0590   23.9864 N   0  0  0  0  0  0  0  0  0  0  0  0
    7.1191   -7.3636   15.7739 C   0  0  0  0  0  0  0  0  0  0  0  0
    5.9612   -8.3203   17.2732 N   0  0  0  0  0  0  0  0  0  0  0  0
    8.5296   -5.9814   17.1841 C   0  0  0  0  0  0  0  0  0  0  0  0
    9.1527   -5.2118   16.2116 C   0  0  0  0  0  0  0  0  0  0  0  0
   10.3364   -3.8368   22.9255 O   0  0  0  0  0  0  0  0  0  0  0  0
    9.6947   -4.8407   18.8534 C   0  0  0  0  0  0  0  0  0  0  0  0
    9.1596    1.7042   24.1381 C   0  0  0  0  0  0  0  0  0  0  0  0
   11.0456   -2.9774   18.2694 N   0  0  0  0  0  0  0  0  0  0  0  0
   10.4788   -3.0457   21.8593 C   0  0  0  0  0  0  0  0  0  0  0  0
    8.8693   -5.8099   18.4657 N   0  0  0  0  0  0  0  0  0  0  0  0
    8.9892   -0.7926   25.4573 C   0  0  0  0  0  0  0  0  0  0  0  0
   10.5677   -3.4462   20.5323 C   0  0  0  0  0  0  0  0  0  0  0  0
  1  8  1  0
  1 12  4  0
  1 14  4  0
  2  3  4  0
  2 18  4  0
  3 20  4  0
  3 22  4  0
  4 11  4  0
  4 21  4  0
  5  9  4  0
  5 16  4  0
  6 15  4  0
  6 16  4  0
  7 22  4  0
  7 26  4  0
  8 10  4  0
  8 25  4  0
  9 15  4  0
  9 17  1  0
 10 21  4  0
 11 25  4  0
 12 23  4  0
 13 20  4  0
 13 26  4  0
 14 19  4  0
 17 18  4  0
 17 24  4  0
 19 23  4  0
 20 24  4  0
 23 26  1  0
M  END
$$$$

 Created by Python create_sdf_string function

 26 30  0  0  0  0  0  0  0  0999 V2000
   10.0084   -1.8019   23.4945 C   0  0  0  0  0  0  0  0  0  0  0  0
   10.0005   -4.2520   16.5631 C   0  0  0  0  0  0  0  0  0  0  0  0
   10.2759   -4.0036   17.8845 C   0  0  0  0  0  0  0  0  0  0  0  0
    8.5652    1.5478   25.3778 N   0  0  0  0  0  0  0  0  0  0  0  0
    6.8048   -7.5457   17.8752 C   0  0  0  0  0  0  0  0  0  0  0  0
    6.1721   -8.2186   15.9886 N   0  0  0  0  0  0  0  0  0  0  0  0
   11.1764   -2.6600   19.5604 C   0  0  0  0  0  0  0  0  0  0  0  0
    9.5491   -0.6380   24.1912 C   0  0  0  0  0  0  0  0  0  0  0  0
    7.5337   -6.9256   16.9519 C   0  0  0  0  0  0  0  0  0  0  0  0
    9.6782    0.5671   23.5143 C   0  0  0  0  0  0  0  0  0  0  0  0
    8.4532    0.3482   26.0821 C   0  0  0  0  0  0  0  0  0  0  0  0
   10.4239   -1.7677   22.2230 N   0  0  0  0  0  0  0  0  0  0  0  0
    9.9468   -4.5953   20.1709 C   0  0  0  0  0  0  0  0  0  0  0  0
   10.0366   -3.0590   23.9864 N   0  0  0  0  0  0  0  0  0  0  0  0
    7.1191   -7.3636   15.7739 C   0  0  0  0  0  0  0  0  0  0  0  0
    5.9612   -8.3203   17.2732 N   0  0  0  0  0  0  0  0  0  0  0  0
    8.5296   -5.9814   17.1841 C   0  0  0  0  0  0  0  0  0  0  0  0
    9.1527   -5.2118   16.2116 C   0  0  0  0  0  0  0  0  0  0  0  0
   10.3364   -3.8368   22.9255 O   0  0  0  0  0  0  0  0  0  0  0  0
    9.6947   -4.8407   18.8534 C   0  0  0  0  0  0  0  0  0  0  0  0
    9.1596    1.7042   24.1381 C   0  0  0  0  0  0  0  0  0  0  0  0
   11.0456   -2.9774   18.2694 N   0  0  0  0  0  0  0  0  0  0  0  0
   10.4788   -3.0457   21.8593 C   0  0  0  0  0  0  0  0  0  0  0  0
    8.8693   -5.8099   18.4657 N   0  0  0  0  0  0  0  0  0  0  0  0
    8.9892   -0.7926   25.4573 C   0  0  0  0  0  0  0  0  0  0  0  0
   10.5677   -3.4462   20.5323 C   0  0  0  0  0  0  0  0  0  0  0  0
  1  8  1  0
  1 12  4  0
  1 14  4  0
  2  3  4  0
  2 18  4  0
  3 20  4  0
  3 22  4  0
  4 11  4  0
  4 21  4  0
  5  9  4  0
  5 16  4  0
  6 15  4  0
  6 16  4  0
  7 22  4  0
  7 26  4  0
  8 10  4  0
  8 25  4  0
  9 15  4  0
  9 17  1  0
 10 21  4  0
 11 25  4  0
 12 23  4  0
 13 20  4  0
 13 26  4  0
 14 19  4  0
 17 18  4  0
 17 24  4  0
 19 23  4  0
 20 24  4  0
 23 26  1  0
M  END
$$$$

 Created by Python create_sdf_string function

 26 30  0  0  0  0  0  0  0  0999 V2000
   10.0084   -1.8019   23.4945 C   0  0  0  0  0  0  0  0  0  0  0  0
   10.0005   -4.2520   16.5631 C   0  0  0  0  0  0  0  0  0  0  0  0
   10.2759   -4.0036   17.8845 C   0  0  0  0  0  0  0  0  0  0  0  0
    8.5652    1.5478   25.3778 N   0  0  0  0  0  0  0  0  0  0  0  0
    6.8048   -7.5457   17.8752 C   0  0  0  0  0  0  0  0  0  0  0  0
    6.1721   -8.2186   15.9886 N   0  0  0  0  0  0  0  0  0  0  0  0
   11.1764   -2.6600   19.5604 C   0  0  0  0  0  0  0  0  0  0  0  0
    9.5491   -0.6380   24.1912 C   0  0  0  0  0  0  0  0  0  0  0  0
    7.5337   -6.9256   16.9519 C   0  0  0  0  0  0  0  0  0  0  0  0
    9.6782    0.5671   23.5143 C   0  0  0  0  0  0  0  0  0  0  0  0
    8.4532    0.3482   26.0821 C   0  0  0  0  0  0  0  0  0  0  0  0
   10.4239   -1.7677   22.2230 N   0  0  0  0  0  0  0  0  0  0  0  0
    9.9468   -4.5953   20.1709 C   0  0  0  0  0  0  0  0  0  0  0  0
   10.0366   -3.0590   23.9864 N   0  0  0  0  0  0  0  0  0  0  0  0
    7.1191   -7.3636   15.7739 C   0  0  0  0  0  0  0  0  0  0  0  0
    5.9612   -8.3203   17.2732 N   0  0  0  0  0  0  0  0  0  0  0  0
    8.5296   -5.9814   17.1841 C   0  0  0  0  0  0  0  0  0  0  0  0
    9.1527   -5.2118   16.2116 C   0  0  0  0  0  0  0  0  0  0  0  0
   10.3364   -3.8368   22.9255 O   0  0  0  0  0  0  0  0  0  0  0  0
    9.6947   -4.8407   18.8534 C   0  0  0  0  0  0  0  0  0  0  0  0
    9.1596    1.7042   24.1381 C   0  0  0  0  0  0  0  0  0  0  0  0
   11.0456   -2.9774   18.2694 N   0  0  0  0  0  0  0  0  0  0  0  0
   10.4788   -3.0457   21.8593 C   0  0  0  0  0  0  0  0  0  0  0  0
    8.8693   -5.8099   18.4657 N   0  0  0  0  0  0  0  0  0  0  0  0
    8.9892   -0.7926   25.4573 C   0  0  0  0  0  0  0  0  0  0  0  0
   10.5677   -3.4462   20.5323 C   0  0  0  0  0  0  0  0  0  0  0  0
  1  8  1  0
  1 12  4  0
  1 14  4  0
  2  3  4  0
  2 18  4  0
  3 20  4  0
  3 22  4  0
  4 11  4  0
  4 21  4  0
  5  9  4  0
  5 16  4  0
  6 15  4  0
  6 16  4  0
  7 22  4  0
  7 26  4  0
  8 10  4  0
  8 25  4  0
  9 15  4  0
  9 17  1  0
 10 21  4  0
 11 25  4  0
 12 23  4  0
 13 20  4  0
 13 26  4  0
 14 19  4  0
 17 18  4  0
 17 24  4  0
 19 23  4  0
 20 24  4  0
 23 26  1  0
M  END
$$$$

 Created by Python create_sdf_string function

 26 30  0  0  0  0  0  0  0  0999 V2000
   10.0084   -1.8019   23.4945 C   0  0  0  0  0  0  0  0  0  0  0  0
   10.0005   -4.2520   16.5631 C   0  0  0  0  0  0  0  0  0  0  0  0
   10.2759   -4.0036   17.8845 C   0  0  0  0  0  0  0  0  0  0  0  0
    8.5652    1.5478   25.3778 N   0  0  0  0  0  0  0  0  0  0  0  0
    6.8048   -7.5457   17.8752 C   0  0  0  0  0  0  0  0  0  0  0  0
    6.1721   -8.2186   15.9886 N   0  0  0  0  0  0  0  0  0  0  0  0
   11.1764   -2.6600   19.5604 C   0  0  0  0  0  0  0  0  0  0  0  0
    9.5491   -0.6380   24.1912 C   0  0  0  0  0  0  0  0  0  0  0  0
    7.5337   -6.9256   16.9519 C   0  0  0  0  0  0  0  0  0  0  0  0
    9.6782    0.5671   23.5143 C   0  0  0  0  0  0  0  0  0  0  0  0
    8.4532    0.3482   26.0821 C   0  0  0  0  0  0  0  0  0  0  0  0
   10.4239   -1.7677   22.2230 N   0  0  0  0  0  0  0  0  0  0  0  0
    9.9468   -4.5953   20.1709 C   0  0  0  0  0  0  0  0  0  0  0  0
   10.0366   -3.0590   23.9864 N   0  0  0  0  0  0  0  0  0  0  0  0
    7.1191   -7.3636   15.7739 C   0  0  0  0  0  0  0  0  0  0  0  0
    5.9612   -8.3203   17.2732 N   0  0  0  0  0  0  0  0  0  0  0  0
    8.5296   -5.9814   17.1841 C   0  0  0  0  0  0  0  0  0  0  0  0
    9.1527   -5.2118   16.2116 C   0  0  0  0  0  0  0  0  0  0  0  0
   10.3364   -3.8368   22.9255 O   0  0  0  0  0  0  0  0  0  0  0  0
    9.6947   -4.8407   18.8534 C   0  0  0  0  0  0  0  0  0  0  0  0
    9.1596    1.7042   24.1381 C   0  0  0  0  0  0  0  0  0  0  0  0
   11.0456   -2.9774   18.2694 N   0  0  0  0  0  0  0  0  0  0  0  0
   10.4788   -3.0457   21.8593 C   0  0  0  0  0  0  0  0  0  0  0  0
    8.8693   -5.8099   18.4657 N   0  0  0  0  0  0  0  0  0  0  0  0
    8.9892   -0.7926   25.4573 C   0  0  0  0  0  0  0  0  0  0  0  0
   10.5677   -3.4462   20.5323 C   0  0  0  0  0  0  0  0  0  0  0  0
  1  8  1  0
  1 12  4  0
  1 14  4  0
  2  3  4  0
  2 18  4  0
  3 20  4  0
  3 22  4  0
  4 11  4  0
  4 21  4  0
  5  9  4  0
  5 16  4  0
  6 15  4  0
  6 16  4  0
  7 22  4  0
  7 26  4  0
  8 10  4  0
  8 25  4  0
  9 15  4  0
  9 17  1  0
 10 21  4  0
 11 25  4  0
 12 23  4  0
 13 20  4  0
 13 26  4  0
 14 19  4  0
 17 18  4  0
 17 24  4  0
 19 23  4  0
 20 24  4  0
 23 26  1  0
M  END
$$$$

 Created by Python create_sdf_string function

 26 30  0  0  0  0  0  0  0  0999 V2000
   10.0084   -1.8019   23.4945 C   0  0  0  0  0  0  0  0  0  0  0  0
   10.0005   -4.2520   16.5631 C   0  0  0  0  0  0  0  0  0  0  0  0
   10.2759   -4.0036   17.8845 C   0  0  0  0  0  0  0  0  0  0  0  0
    8.5652    1.5478   25.3778 N   0  0  0  0  0  0  0  0  0  0  0  0
    6.8048   -7.5457   17.8752 C   0  0  0  0  0  0  0  0  0  0  0  0
    6.1721   -8.2186   15.9886 N   0  0  0  0  0  0  0  0  0  0  0  0
   11.1764   -2.6600   19.5604 C   0  0  0  0  0  0  0  0  0  0  0  0
    9.5491   -0.6380   24.1912 C   0  0  0  0  0  0  0  0  0  0  0  0
    7.5337   -6.9256   16.9519 C   0  0  0  0  0  0  0  0  0  0  0  0
    9.6782    0.5671   23.5143 C   0  0  0  0  0  0  0  0  0  0  0  0
    8.4532    0.3482   26.0821 C   0  0  0  0  0  0  0  0  0  0  0  0
   10.4239   -1.7677   22.2230 N   0  0  0  0  0  0  0  0  0  0  0  0
    9.9468   -4.5953   20.1709 C   0  0  0  0  0  0  0  0  0  0  0  0
   10.0366   -3.0590   23.9864 N   0  0  0  0  0  0  0  0  0  0  0  0
    7.1191   -7.3636   15.7739 C   0  0  0  0  0  0  0  0  0  0  0  0
    5.9612   -8.3203   17.2732 N   0  0  0  0  0  0  0  0  0  0  0  0
    8.5296   -5.9814   17.1841 C   0  0  0  0  0  0  0  0  0  0  0  0
    9.1527   -5.2118   16.2116 C   0  0  0  0  0  0  0  0  0  0  0  0
   10.3364   -3.8368   22.9255 O   0  0  0  0  0  0  0  0  0  0  0  0
    9.6947   -4.8407   18.8534 C   0  0  0  0  0  0  0  0  0  0  0  0
    9.1596    1.7042   24.1381 C   0  0  0  0  0  0  0  0  0  0  0  0
   11.0456   -2.9774   18.2694 N   0  0  0  0  0  0  0  0  0  0  0  0
   10.4788   -3.0457   21.8593 C   0  0  0  0  0  0  0  0  0  0  0  0
    8.8693   -5.8099   18.4657 N   0  0  0  0  0  0  0  0  0  0  0  0
    8.9892   -0.7926   25.4573 C   0  0  0  0  0  0  0  0  0  0  0  0
   10.5677   -3.4462   20.5323 C   0  0  0  0  0  0  0  0  0  0  0  0
  1  8  1  0
  1 12  4  0
  1 14  4  0
  2  3  4  0
  2 18  4  0
  3 20  4  0
  3 22  4  0
  4 11  4  0
  4 21  4  0
  5  9  4  0
  5 16  4  0
  6 15  4  0
  6 16  4  0
  7 22  4  0
  7 26  4  0
  8 10  4  0
  8 25  4  0
  9 15  4  0
  9 17  1  0
 10 21  4  0
 11 25  4  0
 12 23  4  0
 13 20  4  0
 13 26  4  0
 14 19  4  0
 17 18  4  0
 17 24  4  0
 19 23  4  0
 20 24  4  0
 23 26  1  0
M  END
$$$$

 Created by Python create_sdf_string function

 26 30  0  0  0  0  0  0  0  0999 V2000
   10.0084   -1.8019   23.4945 C   0  0  0  0  0  0  0  0  0  0  0  0
   10.0005   -4.2520   16.5631 C   0  0  0  0  0  0  0  0  0  0  0  0
   10.2759   -4.0036   17.8845 C   0  0  0  0  0  0  0  0  0  0  0  0
    8.5652    1.5478   25.3778 N   0  0  0  0  0  0  0  0  0  0  0  0
    6.8048   -7.5457   17.8752 C   0  0  0  0  0  0  0  0  0  0  0  0
    6.1721   -8.2186   15.9886 N   0  0  0  0  0  0  0  0  0  0  0  0
   11.1764   -2.6600   19.5604 C   0  0  0  0  0  0  0  0  0  0  0  0
    9.5491   -0.6380   24.1912 C   0  0  0  0  0  0  0  0  0  0  0  0
    7.5337   -6.9256   16.9519 C   0  0  0  0  0  0  0  0  0  0  0  0
    9.6782    0.5671   23.5143 C   0  0  0  0  0  0  0  0  0  0  0  0
    8.4532    0.3482   26.0821 C   0  0  0  0  0  0  0  0  0  0  0  0
   10.4239   -1.7677   22.2230 N   0  0  0  0  0  0  0  0  0  0  0  0
    9.9468   -4.5953   20.1709 C   0  0  0  0  0  0  0  0  0  0  0  0
   10.0366   -3.0590   23.9864 N   0  0  0  0  0  0  0  0  0  0  0  0
    7.1191   -7.3636   15.7739 C   0  0  0  0  0  0  0  0  0  0  0  0
    5.9612   -8.3203   17.2732 N   0  0  0  0  0  0  0  0  0  0  0  0
    8.5296   -5.9814   17.1841 C   0  0  0  0  0  0  0  0  0  0  0  0
    9.1527   -5.2118   16.2116 C   0  0  0  0  0  0  0  0  0  0  0  0
   10.3364   -3.8368   22.9255 O   0  0  0  0  0  0  0  0  0  0  0  0
    9.6947   -4.8407   18.8534 C   0  0  0  0  0  0  0  0  0  0  0  0
    9.1596    1.7042   24.1381 C   0  0  0  0  0  0  0  0  0  0  0  0
   11.0456   -2.9774   18.2694 N   0  0  0  0  0  0  0  0  0  0  0  0
   10.4788   -3.0457   21.8593 C   0  0  0  0  0  0  0  0  0  0  0  0
    8.8693   -5.8099   18.4657 N   0  0  0  0  0  0  0  0  0  0  0  0
    8.9892   -0.7926   25.4573 C   0  0  0  0  0  0  0  0  0  0  0  0
   10.5677   -3.4462   20.5323 C   0  0  0  0  0  0  0  0  0  0  0  0
  1  8  1  0
  1 12  4  0
  1 14  4  0
  2  3  4  0
  2 18  4  0
  3 20  4  0
  3 22  4  0
  4 11  4  0
  4 21  4  0
  5  9  4  0
  5 16  4  0
  6 15  4  0
  6 16  4  0
  7 22  4  0
  7 26  4  0
  8 10  4  0
  8 25  4  0
  9 15  4  0
  9 17  1  0
 10 21  4  0
 11 25  4  0
 12 23  4  0
 13 20  4  0
 13 26  4  0
 14 19  4  0
 17 18  4  0
 17 24  4  0
 19 23  4  0
 20 24  4  0
 23 26  1  0
M  END
$$$$

 Created by Python create_sdf_string function

 26 30  0  0  0  0  0  0  0  0999 V2000
   10.0084   -1.8019   23.4945 C   0  0  0  0  0  0  0  0  0  0  0  0
   10.0005   -4.2520   16.5631 C   0  0  0  0  0  0  0  0  0  0  0  0
   10.2759   -4.0036   17.8845 C   0  0  0  0  0  0  0  0  0  0  0  0
    8.5652    1.5478   25.3778 N   0  0  0  0  0  0  0  0  0  0  0  0
    6.8048   -7.5457   17.8752 C   0  0  0  0  0  0  0  0  0  0  0  0
    6.1721   -8.2186   15.9886 N   0  0  0  0  0  0  0  0  0  0  0  0
   11.1764   -2.6600   19.5604 C   0  0  0  0  0  0  0  0  0  0  0  0
    9.5491   -0.6380   24.1912 C   0  0  0  0  0  0  0  0  0  0  0  0
    7.5337   -6.9256   16.9519 C   0  0  0  0  0  0  0  0  0  0  0  0
    9.6782    0.5671   23.5143 C   0  0  0  0  0  0  0  0  0  0  0  0
    8.4532    0.3482   26.0821 C   0  0  0  0  0  0  0  0  0  0  0  0
   10.4239   -1.7677   22.2230 N   0  0  0  0  0  0  0  0  0  0  0  0
    9.9468   -4.5953   20.1709 C   0  0  0  0  0  0  0  0  0  0  0  0
   10.0366   -3.0590   23.9864 N   0  0  0  0  0  0  0  0  0  0  0  0
    7.1191   -7.3636   15.7739 C   0  0  0  0  0  0  0  0  0  0  0  0
    5.9612   -8.3203   17.2732 N   0  0  0  0  0  0  0  0  0  0  0  0
    8.5296   -5.9814   17.1841 C   0  0  0  0  0  0  0  0  0  0  0  0
    9.1527   -5.2118   16.2116 C   0  0  0  0  0  0  0  0  0  0  0  0
   10.3364   -3.8368   22.9255 O   0  0  0  0  0  0  0  0  0  0  0  0
    9.6947   -4.8407   18.8534 C   0  0  0  0  0  0  0  0  0  0  0  0
    9.1596    1.7042   24.1381 C   0  0  0  0  0  0  0  0  0  0  0  0
   11.0456   -2.9774   18.2694 N   0  0  0  0  0  0  0  0  0  0  0  0
   10.4788   -3.0457   21.8593 C   0  0  0  0  0  0  0  0  0  0  0  0
    8.8693   -5.8099   18.4657 N   0  0  0  0  0  0  0  0  0  0  0  0
    8.9892   -0.7926   25.4573 C   0  0  0  0  0  0  0  0  0  0  0  0
   10.5677   -3.4462   20.5323 C   0  0  0  0  0  0  0  0  0  0  0  0
  1  8  1  0
  1 12  4  0
  1 14  4  0
  2  3  4  0
  2 18  4  0
  3 20  4  0
  3 22  4  0
  4 11  4  0
  4 21  4  0
  5  9  4  0
  5 16  4  0
  6 15  4  0
  6 16  4  0
  7 22  4  0
  7 26  4  0
  8 10  4  0
  8 25  4  0
  9 15  4  0
  9 17  1  0
 10 21  4  0
 11 25  4  0
 12 23  4  0
 13 20  4  0
 13 26  4  0
 14 19  4  0
 17 18  4  0
 17 24  4  0
 19 23  4  0
 20 24  4  0
 23 26  1  0
M  END
$$$$

 Created by Python create_sdf_string function

 26 30  0  0  0  0  0  0  0  0999 V2000
   10.0084   -1.8019   23.4945 C   0  0  0  0  0  0  0  0  0  0  0  0
   10.0005   -4.2520   16.5631 C   0  0  0  0  0  0  0  0  0  0  0  0
   10.2759   -4.0036   17.8845 C   0  0  0  0  0  0  0  0  0  0  0  0
    8.5652    1.5478   25.3778 N   0  0  0  0  0  0  0  0  0  0  0  0
    6.8048   -7.5457   17.8752 C   0  0  0  0  0  0  0  0  0  0  0  0
    6.1721   -8.2186   15.9886 N   0  0  0  0  0  0  0  0  0  0  0  0
   11.1764   -2.6600   19.5604 C   0  0  0  0  0  0  0  0  0  0  0  0
    9.5491   -0.6380   24.1912 C   0  0  0  0  0  0  0  0  0  0  0  0
    7.5337   -6.9256   16.9519 C   0  0  0  0  0  0  0  0  0  0  0  0
    9.6782    0.5671   23.5143 C   0  0  0  0  0  0  0  0  0  0  0  0
    8.4532    0.3482   26.0821 C   0  0  0  0  0  0  0  0  0  0  0  0
   10.4239   -1.7677   22.2230 N   0  0  0  0  0  0  0  0  0  0  0  0
    9.9468   -4.5953   20.1709 C   0  0  0  0  0  0  0  0  0  0  0  0
   10.0366   -3.0590   23.9864 N   0  0  0  0  0  0  0  0  0  0  0  0
    7.1191   -7.3636   15.7739 C   0  0  0  0  0  0  0  0  0  0  0  0
    5.9612   -8.3203   17.2732 N   0  0  0  0  0  0  0  0  0  0  0  0
    8.5296   -5.9814   17.1841 C   0  0  0  0  0  0  0  0  0  0  0  0
    9.1527   -5.2118   16.2116 C   0  0  0  0  0  0  0  0  0  0  0  0
   10.3364   -3.8368   22.9255 O   0  0  0  0  0  0  0  0  0  0  0  0
    9.6947   -4.8407   18.8534 C   0  0  0  0  0  0  0  0  0  0  0  0
    9.1596    1.7042   24.1381 C   0  0  0  0  0  0  0  0  0  0  0  0
   11.0456   -2.9774   18.2694 N   0  0  0  0  0  0  0  0  0  0  0  0
   10.4788   -3.0457   21.8593 C   0  0  0  0  0  0  0  0  0  0  0  0
    8.8693   -5.8099   18.4657 N   0  0  0  0  0  0  0  0  0  0  0  0
    8.9892   -0.7926   25.4573 C   0  0  0  0  0  0  0  0  0  0  0  0
   10.5677   -3.4462   20.5323 C   0  0  0  0  0  0  0  0  0  0  0  0
  1  8  1  0
  1 12  4  0
  1 14  4  0
  2  3  4  0
  2 18  4  0
  3 20  4  0
  3 22  4  0
  4 11  4  0
  4 21  4  0
  5  9  4  0
  5 16  4  0
  6 15  4  0
  6 16  4  0
  7 22  4  0
  7 26  4  0
  8 10  4  0
  8 25  4  0
  9 15  4  0
  9 17  1  0
 10 21  4  0
 11 25  4  0
 12 23  4  0
 13 20  4  0
 13 26  4  0
 14 19  4  0
 17 18  4  0
 17 24  4  0
 19 23  4  0
 20 24  4  0
 23 26  1  0
M  END
$$$$

 Created by Python create_sdf_string function

 26 30  0  0  0  0  0  0  0  0999 V2000
   10.0084   -1.8019   23.4945 C   0  0  0  0  0  0  0  0  0  0  0  0
   10.0005   -4.2520   16.5631 C   0  0  0  0  0  0  0  0  0  0  0  0
   10.2759   -4.0036   17.8845 C   0  0  0  0  0  0  0  0  0  0  0  0
    8.5652    1.5478   25.3778 N   0  0  0  0  0  0  0  0  0  0  0  0
    6.8048   -7.5457   17.8752 C   0  0  0  0  0  0  0  0  0  0  0  0
    6.1721   -8.2186   15.9886 N   0  0  0  0  0  0  0  0  0  0  0  0
   11.1764   -2.6600   19.5604 C   0  0  0  0  0  0  0  0  0  0  0  0
    9.5491   -0.6380   24.1912 C   0  0  0  0  0  0  0  0  0  0  0  0
    7.5337   -6.9256   16.9519 C   0  0  0  0  0  0  0  0  0  0  0  0
    9.6782    0.5671   23.5143 C   0  0  0  0  0  0  0  0  0  0  0  0
    8.4532    0.3482   26.0821 C   0  0  0  0  0  0  0  0  0  0  0  0
   10.4239   -1.7677   22.2230 N   0  0  0  0  0  0  0  0  0  0  0  0
    9.9468   -4.5953   20.1709 C   0  0  0  0  0  0  0  0  0  0  0  0
   10.0366   -3.0590   23.9864 N   0  0  0  0  0  0  0  0  0  0  0  0
    7.1191   -7.3636   15.7739 C   0  0  0  0  0  0  0  0  0  0  0  0
    5.9612   -8.3203   17.2732 N   0  0  0  0  0  0  0  0  0  0  0  0
    8.5296   -5.9814   17.1841 C   0  0  0  0  0  0  0  0  0  0  0  0
    9.1527   -5.2118   16.2116 C   0  0  0  0  0  0  0  0  0  0  0  0
   10.3364   -3.8368   22.9255 O   0  0  0  0  0  0  0  0  0  0  0  0
    9.6947   -4.8407   18.8534 C   0  0  0  0  0  0  0  0  0  0  0  0
    9.1596    1.7042   24.1381 C   0  0  0  0  0  0  0  0  0  0  0  0
   11.0456   -2.9774   18.2694 N   0  0  0  0  0  0  0  0  0  0  0  0
   10.4788   -3.0457   21.8593 C   0  0  0  0  0  0  0  0  0  0  0  0
    8.8693   -5.8099   18.4657 N   0  0  0  0  0  0  0  0  0  0  0  0
    8.9892   -0.7926   25.4573 C   0  0  0  0  0  0  0  0  0  0  0  0
   10.5677   -3.4462   20.5323 C   0  0  0  0  0  0  0  0  0  0  0  0
  1  8  1  0
  1 12  4  0
  1 14  4  0
  2  3  4  0
  2 18  4  0
  3 20  4  0
  3 22  4  0
  4 11  4  0
  4 21  4  0
  5  9  4  0
  5 16  4  0
  6 15  4  0
  6 16  4  0
  7 22  4  0
  7 26  4  0
  8 10  4  0
  8 25  4  0
  9 15  4  0
  9 17  1  0
 10 21  4  0
 11 25  4  0
 12 23  4  0
 13 20  4  0
 13 26  4  0
 14 19  4  0
 17 18  4  0
 17 24  4  0
 19 23  4  0
 20 24  4  0
 23 26  1  0
M  END
$$$$

 Created by Python create_sdf_string function

 26 30  0  0  0  0  0  0  0  0999 V2000
   10.0084   -1.8019   23.4945 C   0  0  0  0  0  0  0  0  0  0  0  0
   10.0005   -4.2520   16.5631 C   0  0  0  0  0  0  0  0  0  0  0  0
   10.2759   -4.0036   17.8845 C   0  0  0  0  0  0  0  0  0  0  0  0
    8.5652    1.5478   25.3778 N   0  0  0  0  0  0  0  0  0  0  0  0
    6.8048   -7.5457   17.8752 C   0  0  0  0  0  0  0  0  0  0  0  0
    6.1721   -8.2186   15.9886 N   0  0  0  0  0  0  0  0  0  0  0  0
   11.1764   -2.6600   19.5604 C   0  0  0  0  0  0  0  0  0  0  0  0
    9.5491   -0.6380   24.1912 C   0  0  0  0  0  0  0  0  0  0  0  0
    7.5337   -6.9256   16.9519 C   0  0  0  0  0  0  0  0  0  0  0  0
    9.6782    0.5671   23.5143 C   0  0  0  0  0  0  0  0  0  0  0  0
    8.4532    0.3482   26.0821 C   0  0  0  0  0  0  0  0  0  0  0  0
   10.4239   -1.7677   22.2230 N   0  0  0  0  0  0  0  0  0  0  0  0
    9.9468   -4.5953   20.1709 C   0  0  0  0  0  0  0  0  0  0  0  0
   10.0366   -3.0590   23.9864 N   0  0  0  0  0  0  0  0  0  0  0  0
    7.1191   -7.3636   15.7739 C   0  0  0  0  0  0  0  0  0  0  0  0
    5.9612   -8.3203   17.2732 N   0  0  0  0  0  0  0  0  0  0  0  0
    8.5296   -5.9814   17.1841 C   0  0  0  0  0  0  0  0  0  0  0  0
    9.1527   -5.2118   16.2116 C   0  0  0  0  0  0  0  0  0  0  0  0
   10.3364   -3.8368   22.9255 O   0  0  0  0  0  0  0  0  0  0  0  0
    9.6947   -4.8407   18.8534 C   0  0  0  0  0  0  0  0  0  0  0  0
    9.1596    1.7042   24.1381 C   0  0  0  0  0  0  0  0  0  0  0  0
   11.0456   -2.9774   18.2694 N   0  0  0  0  0  0  0  0  0  0  0  0
   10.4788   -3.0457   21.8593 C   0  0  0  0  0  0  0  0  0  0  0  0
    8.8693   -5.8099   18.4657 N   0  0  0  0  0  0  0  0  0  0  0  0
    8.9892   -0.7926   25.4573 C   0  0  0  0  0  0  0  0  0  0  0  0
   10.5677   -3.4462   20.5323 C   0  0  0  0  0  0  0  0  0  0  0  0
  1  8  1  0
  1 12  4  0
  1 14  4  0
  2  3  4  0
  2 18  4  0
  3 20  4  0
  3 22  4  0
  4 11  4  0
  4 21  4  0
  5  9  4  0
  5 16  4  0
  6 15  4  0
  6 16  4  0
  7 22  4  0
  7 26  4  0
  8 10  4  0
  8 25  4  0
  9 15  4  0
  9 17  1  0
 10 21  4  0
 11 25  4  0
 12 23  4  0
 13 20  4  0
 13 26  4  0
 14 19  4  0
 17 18  4  0
 17 24  4  0
 19 23  4  0
 20 24  4  0
 23 26  1  0
M  END
$$$$

 Created by Python create_sdf_string function

 26 30  0  0  0  0  0  0  0  0999 V2000
   10.0084   -1.8019   23.4945 C   0  0  0  0  0  0  0  0  0  0  0  0
   10.0005   -4.2520   16.5631 C   0  0  0  0  0  0  0  0  0  0  0  0
   10.2759   -4.0036   17.8845 C   0  0  0  0  0  0  0  0  0  0  0  0
    8.5652    1.5478   25.3778 N   0  0  0  0  0  0  0  0  0  0  0  0
    6.8048   -7.5457   17.8752 C   0  0  0  0  0  0  0  0  0  0  0  0
    6.1721   -8.2186   15.9886 N   0  0  0  0  0  0  0  0  0  0  0  0
   11.1764   -2.6600   19.5604 C   0  0  0  0  0  0  0  0  0  0  0  0
    9.5491   -0.6380   24.1912 C   0  0  0  0  0  0  0  0  0  0  0  0
    7.5337   -6.9256   16.9519 C   0  0  0  0  0  0  0  0  0  0  0  0
    9.6782    0.5671   23.5143 C   0  0  0  0  0  0  0  0  0  0  0  0
    8.4532    0.3482   26.0821 C   0  0  0  0  0  0  0  0  0  0  0  0
   10.4239   -1.7677   22.2230 N   0  0  0  0  0  0  0  0  0  0  0  0
    9.9468   -4.5953   20.1709 C   0  0  0  0  0  0  0  0  0  0  0  0
   10.0366   -3.0590   23.9864 N   0  0  0  0  0  0  0  0  0  0  0  0
    7.1191   -7.3636   15.7739 C   0  0  0  0  0  0  0  0  0  0  0  0
    5.9612   -8.3203   17.2732 N   0  0  0  0  0  0  0  0  0  0  0  0
    8.5296   -5.9814   17.1841 C   0  0  0  0  0  0  0  0  0  0  0  0
    9.1527   -5.2118   16.2116 C   0  0  0  0  0  0  0  0  0  0  0  0
   10.3364   -3.8368   22.9255 O   0  0  0  0  0  0  0  0  0  0  0  0
    9.6947   -4.8407   18.8534 C   0  0  0  0  0  0  0  0  0  0  0  0
    9.1596    1.7042   24.1381 C   0  0  0  0  0  0  0  0  0  0  0  0
   11.0456   -2.9774   18.2694 N   0  0  0  0  0  0  0  0  0  0  0  0
   10.4788   -3.0457   21.8593 C   0  0  0  0  0  0  0  0  0  0  0  0
    8.8693   -5.8099   18.4657 N   0  0  0  0  0  0  0  0  0  0  0  0
    8.9892   -0.7926   25.4573 C   0  0  0  0  0  0  0  0  0  0  0  0
   10.5677   -3.4462   20.5323 C   0  0  0  0  0  0  0  0  0  0  0  0
  1  8  1  0
  1 12  4  0
  1 14  4  0
  2  3  4  0
  2 18  4  0
  3 20  4  0
  3 22  4  0
  4 11  4  0
  4 21  4  0
  5  9  4  0
  5 16  4  0
  6 15  4  0
  6 16  4  0
  7 22  4  0
  7 26  4  0
  8 10  4  0
  8 25  4  0
  9 15  4  0
  9 17  1  0
 10 21  4  0
 11 25  4  0
 12 23  4  0
 13 20  4  0
 13 26  4  0
 14 19  4  0
 17 18  4  0
 17 24  4  0
 19 23  4  0
 20 24  4  0
 23 26  1  0
M  END
$$$$

 Created by Python create_sdf_string function

 26 30  0  0  0  0  0  0  0  0999 V2000
   10.0084   -1.8019   23.4945 C   0  0  0  0  0  0  0  0  0  0  0  0
   10.0005   -4.2520   16.5631 C   0  0  0  0  0  0  0  0  0  0  0  0
   10.2759   -4.0036   17.8845 C   0  0  0  0  0  0  0  0  0  0  0  0
    8.5652    1.5478   25.3778 N   0  0  0  0  0  0  0  0  0  0  0  0
    6.8048   -7.5457   17.8752 C   0  0  0  0  0  0  0  0  0  0  0  0
    6.1721   -8.2186   15.9886 N   0  0  0  0  0  0  0  0  0  0  0  0
   11.1764   -2.6600   19.5604 C   0  0  0  0  0  0  0  0  0  0  0  0
    9.5491   -0.6380   24.1912 C   0  0  0  0  0  0  0  0  0  0  0  0
    7.5337   -6.9256   16.9519 C   0  0  0  0  0  0  0  0  0  0  0  0
    9.6782    0.5671   23.5143 C   0  0  0  0  0  0  0  0  0  0  0  0
    8.4532    0.3482   26.0821 C   0  0  0  0  0  0  0  0  0  0  0  0
   10.4239   -1.7677   22.2230 N   0  0  0  0  0  0  0  0  0  0  0  0
    9.9468   -4.5953   20.1709 C   0  0  0  0  0  0  0  0  0  0  0  0
   10.0366   -3.0590   23.9864 N   0  0  0  0  0  0  0  0  0  0  0  0
    7.1191   -7.3636   15.7739 C   0  0  0  0  0  0  0  0  0  0  0  0
    5.9612   -8.3203   17.2732 N   0  0  0  0  0  0  0  0  0  0  0  0
    8.5296   -5.9814   17.1841 C   0  0  0  0  0  0  0  0  0  0  0  0
    9.1527   -5.2118   16.2116 C   0  0  0  0  0  0  0  0  0  0  0  0
   10.3364   -3.8368   22.9255 O   0  0  0  0  0  0  0  0  0  0  0  0
    9.6947   -4.8407   18.8534 C   0  0  0  0  0  0  0  0  0  0  0  0
    9.1596    1.7042   24.1381 C   0  0  0  0  0  0  0  0  0  0  0  0
   11.0456   -2.9774   18.2694 N   0  0  0  0  0  0  0  0  0  0  0  0
   10.4788   -3.0457   21.8593 C   0  0  0  0  0  0  0  0  0  0  0  0
    8.8693   -5.8099   18.4657 N   0  0  0  0  0  0  0  0  0  0  0  0
    8.9892   -0.7926   25.4573 C   0  0  0  0  0  0  0  0  0  0  0  0
   10.5677   -3.4462   20.5323 C   0  0  0  0  0  0  0  0  0  0  0  0
  1  8  1  0
  1 12  4  0
  1 14  4  0
  2  3  4  0
  2 18  4  0
  3 20  4  0
  3 22  4  0
  4 11  4  0
  4 21  4  0
  5  9  4  0
  5 16  4  0
  6 15  4  0
  6 16  4  0
  7 22  4  0
  7 26  4  0
  8 10  4  0
  8 25  4  0
  9 15  4  0
  9 17  1  0
 10 21  4  0
 11 25  4  0
 12 23  4  0
 13 20  4  0
 13 26  4  0
 14 19  4  0
 17 18  4  0
 17 24  4  0
 19 23  4  0
 20 24  4  0
 23 26  1  0
M  END
$$$$

 Created by Python create_sdf_string function

 26 30  0  0  0  0  0  0  0  0999 V2000
   10.0084   -1.8019   23.4945 C   0  0  0  0  0  0  0  0  0  0  0  0
   10.0005   -4.2520   16.5631 C   0  0  0  0  0  0  0  0  0  0  0  0
   10.2759   -4.0036   17.8845 C   0  0  0  0  0  0  0  0  0  0  0  0
    8.5652    1.5478   25.3778 N   0  0  0  0  0  0  0  0  0  0  0  0
    6.8048   -7.5457   17.8752 C   0  0  0  0  0  0  0  0  0  0  0  0
    6.1721   -8.2186   15.9886 N   0  0  0  0  0  0  0  0  0  0  0  0
   11.1764   -2.6600   19.5604 C   0  0  0  0  0  0  0  0  0  0  0  0
    9.5491   -0.6380   24.1912 C   0  0  0  0  0  0  0  0  0  0  0  0
    7.5337   -6.9256   16.9519 C   0  0  0  0  0  0  0  0  0  0  0  0
    9.6782    0.5671   23.5143 C   0  0  0  0  0  0  0  0  0  0  0  0
    8.4532    0.3482   26.0821 C   0  0  0  0  0  0  0  0  0  0  0  0
   10.4239   -1.7677   22.2230 N   0  0  0  0  0  0  0  0  0  0  0  0
    9.9468   -4.5953   20.1709 C   0  0  0  0  0  0  0  0  0  0  0  0
   10.0366   -3.0590   23.9864 N   0  0  0  0  0  0  0  0  0  0  0  0
    7.1191   -7.3636   15.7739 C   0  0  0  0  0  0  0  0  0  0  0  0
    5.9612   -8.3203   17.2732 N   0  0  0  0  0  0  0  0  0  0  0  0
    8.5296   -5.9814   17.1841 C   0  0  0  0  0  0  0  0  0  0  0  0
    9.1527   -5.2118   16.2116 C   0  0  0  0  0  0  0  0  0  0  0  0
   10.3364   -3.8368   22.9255 O   0  0  0  0  0  0  0  0  0  0  0  0
    9.6947   -4.8407   18.8534 C   0  0  0  0  0  0  0  0  0  0  0  0
    9.1596    1.7042   24.1381 C   0  0  0  0  0  0  0  0  0  0  0  0
   11.0456   -2.9774   18.2694 N   0  0  0  0  0  0  0  0  0  0  0  0
   10.4788   -3.0457   21.8593 C   0  0  0  0  0  0  0  0  0  0  0  0
    8.8693   -5.8099   18.4657 N   0  0  0  0  0  0  0  0  0  0  0  0
    8.9892   -0.7926   25.4573 C   0  0  0  0  0  0  0  0  0  0  0  0
   10.5677   -3.4462   20.5323 C   0  0  0  0  0  0  0  0  0  0  0  0
  1  8  1  0
  1 12  4  0
  1 14  4  0
  2  3  4  0
  2 18  4  0
  3 20  4  0
  3 22  4  0
  4 11  4  0
  4 21  4  0
  5  9  4  0
  5 16  4  0
  6 15  4  0
  6 16  4  0
  7 22  4  0
  7 26  4  0
  8 10  4  0
  8 25  4  0
  9 15  4  0
  9 17  1  0
 10 21  4  0
 11 25  4  0
 12 23  4  0
 13 20  4  0
 13 26  4  0
 14 19  4  0
 17 18  4  0
 17 24  4  0
 19 23  4  0
 20 24  4  0
 23 26  1  0
M  END
$$$$

 Created by Python create_sdf_string function

 26 30  0  0  0  0  0  0  0  0999 V2000
   10.0084   -1.8019   23.4945 C   0  0  0  0  0  0  0  0  0  0  0  0
   10.0005   -4.2520   16.5631 C   0  0  0  0  0  0  0  0  0  0  0  0
   10.2759   -4.0036   17.8845 C   0  0  0  0  0  0  0  0  0  0  0  0
    8.5652    1.5478   25.3778 N   0  0  0  0  0  0  0  0  0  0  0  0
    6.8048   -7.5457   17.8752 C   0  0  0  0  0  0  0  0  0  0  0  0
    6.1721   -8.2186   15.9886 N   0  0  0  0  0  0  0  0  0  0  0  0
   11.1764   -2.6600   19.5604 C   0  0  0  0  0  0  0  0  0  0  0  0
    9.5491   -0.6380   24.1912 C   0  0  0  0  0  0  0  0  0  0  0  0
    7.5337   -6.9256   16.9519 C   0  0  0  0  0  0  0  0  0  0  0  0
    9.6782    0.5671   23.5143 C   0  0  0  0  0  0  0  0  0  0  0  0
    8.4532    0.3482   26.0821 C   0  0  0  0  0  0  0  0  0  0  0  0
   10.4239   -1.7677   22.2230 N   0  0  0  0  0  0  0  0  0  0  0  0
    9.9468   -4.5953   20.1709 C   0  0  0  0  0  0  0  0  0  0  0  0
   10.0366   -3.0590   23.9864 N   0  0  0  0  0  0  0  0  0  0  0  0
    7.1191   -7.3636   15.7739 C   0  0  0  0  0  0  0  0  0  0  0  0
    5.9612   -8.3203   17.2732 N   0  0  0  0  0  0  0  0  0  0  0  0
    8.5296   -5.9814   17.1841 C   0  0  0  0  0  0  0  0  0  0  0  0
    9.1527   -5.2118   16.2116 C   0  0  0  0  0  0  0  0  0  0  0  0
   10.3364   -3.8368   22.9255 O   0  0  0  0  0  0  0  0  0  0  0  0
    9.6947   -4.8407   18.8534 C   0  0  0  0  0  0  0  0  0  0  0  0
    9.1596    1.7042   24.1381 C   0  0  0  0  0  0  0  0  0  0  0  0
   11.0456   -2.9774   18.2694 N   0  0  0  0  0  0  0  0  0  0  0  0
   10.4788   -3.0457   21.8593 C   0  0  0  0  0  0  0  0  0  0  0  0
    8.8693   -5.8099   18.4657 N   0  0  0  0  0  0  0  0  0  0  0  0
    8.9892   -0.7926   25.4573 C   0  0  0  0  0  0  0  0  0  0  0  0
   10.5677   -3.4462   20.5323 C   0  0  0  0  0  0  0  0  0  0  0  0
  1  8  1  0
  1 12  4  0
  1 14  4  0
  2  3  4  0
  2 18  4  0
  3 20  4  0
  3 22  4  0
  4 11  4  0
  4 21  4  0
  5  9  4  0
  5 16  4  0
  6 15  4  0
  6 16  4  0
  7 22  4  0
  7 26  4  0
  8 10  4  0
  8 25  4  0
  9 15  4  0
  9 17  1  0
 10 21  4  0
 11 25  4  0
 12 23  4  0
 13 20  4  0
 13 26  4  0
 14 19  4  0
 17 18  4  0
 17 24  4  0
 19 23  4  0
 20 24  4  0
 23 26  1  0
M  END
$$$$

 Created by Python create_sdf_string function

 26 30  0  0  0  0  0  0  0  0999 V2000
   10.0084   -1.8019   23.4945 C   0  0  0  0  0  0  0  0  0  0  0  0
   10.0005   -4.2520   16.5631 C   0  0  0  0  0  0  0  0  0  0  0  0
   10.2759   -4.0036   17.8845 C   0  0  0  0  0  0  0  0  0  0  0  0
    8.5652    1.5478   25.3778 N   0  0  0  0  0  0  0  0  0  0  0  0
    6.8048   -7.5457   17.8752 C   0  0  0  0  0  0  0  0  0  0  0  0
    6.1721   -8.2186   15.9886 N   0  0  0  0  0  0  0  0  0  0  0  0
   11.1764   -2.6600   19.5604 C   0  0  0  0  0  0  0  0  0  0  0  0
    9.5491   -0.6380   24.1912 C   0  0  0  0  0  0  0  0  0  0  0  0
    7.5337   -6.9256   16.9519 C   0  0  0  0  0  0  0  0  0  0  0  0
    9.6782    0.5671   23.5143 C   0  0  0  0  0  0  0  0  0  0  0  0
    8.4532    0.3482   26.0821 C   0  0  0  0  0  0  0  0  0  0  0  0
   10.4239   -1.7677   22.2230 N   0  0  0  0  0  0  0  0  0  0  0  0
    9.9468   -4.5953   20.1709 C   0  0  0  0  0  0  0  0  0  0  0  0
   10.0366   -3.0590   23.9864 N   0  0  0  0  0  0  0  0  0  0  0  0
    7.1191   -7.3636   15.7739 C   0  0  0  0  0  0  0  0  0  0  0  0
    5.9612   -8.3203   17.2732 N   0  0  0  0  0  0  0  0  0  0  0  0
    8.5296   -5.9814   17.1841 C   0  0  0  0  0  0  0  0  0  0  0  0
    9.1527   -5.2118   16.2116 C   0  0  0  0  0  0  0  0  0  0  0  0
   10.3364   -3.8368   22.9255 O   0  0  0  0  0  0  0  0  0  0  0  0
    9.6947   -4.8407   18.8534 C   0  0  0  0  0  0  0  0  0  0  0  0
    9.1596    1.7042   24.1381 C   0  0  0  0  0  0  0  0  0  0  0  0
   11.0456   -2.9774   18.2694 N   0  0  0  0  0  0  0  0  0  0  0  0
   10.4788   -3.0457   21.8593 C   0  0  0  0  0  0  0  0  0  0  0  0
    8.8693   -5.8099   18.4657 N   0  0  0  0  0  0  0  0  0  0  0  0
    8.9892   -0.7926   25.4573 C   0  0  0  0  0  0  0  0  0  0  0  0
   10.5677   -3.4462   20.5323 C   0  0  0  0  0  0  0  0  0  0  0  0
  1  8  1  0
  1 12  4  0
  1 14  4  0
  2  3  4  0
  2 18  4  0
  3 20  4  0
  3 22  4  0
  4 11  4  0
  4 21  4  0
  5  9  4  0
  5 16  4  0
  6 15  4  0
  6 16  4  0
  7 22  4  0
  7 26  4  0
  8 10  4  0
  8 25  4  0
  9 15  4  0
  9 17  1  0
 10 21  4  0
 11 25  4  0
 12 23  4  0
 13 20  4  0
 13 26  4  0
 14 19  4  0
 17 18  4  0
 17 24  4  0
 19 23  4  0
 20 24  4  0
 23 26  1  0
M  END
$$$$

 Created by Python create_sdf_string function

 26 30  0  0  0  0  0  0  0  0999 V2000
   10.0084   -1.8019   23.4945 C   0  0  0  0  0  0  0  0  0  0  0  0
   10.0005   -4.2520   16.5631 C   0  0  0  0  0  0  0  0  0  0  0  0
   10.2759   -4.0036   17.8845 C   0  0  0  0  0  0  0  0  0  0  0  0
    8.5652    1.5478   25.3778 N   0  0  0  0  0  0  0  0  0  0  0  0
    6.8048   -7.5457   17.8752 C   0  0  0  0  0  0  0  0  0  0  0  0
    6.1721   -8.2186   15.9886 N   0  0  0  0  0  0  0  0  0  0  0  0
   11.1764   -2.6600   19.5604 C   0  0  0  0  0  0  0  0  0  0  0  0
    9.5491   -0.6380   24.1912 C   0  0  0  0  0  0  0  0  0  0  0  0
    7.5337   -6.9256   16.9519 C   0  0  0  0  0  0  0  0  0  0  0  0
    9.6782    0.5671   23.5143 C   0  0  0  0  0  0  0  0  0  0  0  0
    8.4532    0.3482   26.0821 C   0  0  0  0  0  0  0  0  0  0  0  0
   10.4239   -1.7677   22.2230 N   0  0  0  0  0  0  0  0  0  0  0  0
    9.9468   -4.5953   20.1709 C   0  0  0  0  0  0  0  0  0  0  0  0
   10.0366   -3.0590   23.9864 N   0  0  0  0  0  0  0  0  0  0  0  0
    7.1191   -7.3636   15.7739 C   0  0  0  0  0  0  0  0  0  0  0  0
    5.9612   -8.3203   17.2732 N   0  0  0  0  0  0  0  0  0  0  0  0
    8.5296   -5.9814   17.1841 C   0  0  0  0  0  0  0  0  0  0  0  0
    9.1527   -5.2118   16.2116 C   0  0  0  0  0  0  0  0  0  0  0  0
   10.3364   -3.8368   22.9255 O   0  0  0  0  0  0  0  0  0  0  0  0
    9.6947   -4.8407   18.8534 C   0  0  0  0  0  0  0  0  0  0  0  0
    9.1596    1.7042   24.1381 C   0  0  0  0  0  0  0  0  0  0  0  0
   11.0456   -2.9774   18.2694 N   0  0  0  0  0  0  0  0  0  0  0  0
   10.4788   -3.0457   21.8593 C   0  0  0  0  0  0  0  0  0  0  0  0
    8.8693   -5.8099   18.4657 N   0  0  0  0  0  0  0  0  0  0  0  0
    8.9892   -0.7926   25.4573 C   0  0  0  0  0  0  0  0  0  0  0  0
   10.5677   -3.4462   20.5323 C   0  0  0  0  0  0  0  0  0  0  0  0
  1  8  1  0
  1 12  4  0
  1 14  4  0
  2  3  4  0
  2 18  4  0
  3 20  4  0
  3 22  4  0
  4 11  4  0
  4 21  4  0
  5  9  4  0
  5 16  4  0
  6 15  4  0
  6 16  4  0
  7 22  4  0
  7 26  4  0
  8 10  4  0
  8 25  4  0
  9 15  4  0
  9 17  1  0
 10 21  4  0
 11 25  4  0
 12 23  4  0
 13 20  4  0
 13 26  4  0
 14 19  4  0
 17 18  4  0
 17 24  4  0
 19 23  4  0
 20 24  4  0
 23 26  1  0
M  END
$$$$

 Created by Python create_sdf_string function

 26 30  0  0  0  0  0  0  0  0999 V2000
   10.0084   -1.8019   23.4945 C   0  0  0  0  0  0  0  0  0  0  0  0
   10.0005   -4.2520   16.5631 C   0  0  0  0  0  0  0  0  0  0  0  0
   10.2759   -4.0036   17.8845 C   0  0  0  0  0  0  0  0  0  0  0  0
    8.5652    1.5478   25.3778 N   0  0  0  0  0  0  0  0  0  0  0  0
    6.8048   -7.5457   17.8752 C   0  0  0  0  0  0  0  0  0  0  0  0
    6.1721   -8.2186   15.9886 N   0  0  0  0  0  0  0  0  0  0  0  0
   11.1764   -2.6600   19.5604 C   0  0  0  0  0  0  0  0  0  0  0  0
    9.5491   -0.6380   24.1912 C   0  0  0  0  0  0  0  0  0  0  0  0
    7.5337   -6.9256   16.9519 C   0  0  0  0  0  0  0  0  0  0  0  0
    9.6782    0.5671   23.5143 C   0  0  0  0  0  0  0  0  0  0  0  0
    8.4532    0.3482   26.0821 C   0  0  0  0  0  0  0  0  0  0  0  0
   10.4239   -1.7677   22.2230 N   0  0  0  0  0  0  0  0  0  0  0  0
    9.9468   -4.5953   20.1709 C   0  0  0  0  0  0  0  0  0  0  0  0
   10.0366   -3.0590   23.9864 N   0  0  0  0  0  0  0  0  0  0  0  0
    7.1191   -7.3636   15.7739 C   0  0  0  0  0  0  0  0  0  0  0  0
    5.9612   -8.3203   17.2732 N   0  0  0  0  0  0  0  0  0  0  0  0
    8.5296   -5.9814   17.1841 C   0  0  0  0  0  0  0  0  0  0  0  0
    9.1527   -5.2118   16.2116 C   0  0  0  0  0  0  0  0  0  0  0  0
   10.3364   -3.8368   22.9255 O   0  0  0  0  0  0  0  0  0  0  0  0
    9.6947   -4.8407   18.8534 C   0  0  0  0  0  0  0  0  0  0  0  0
    9.1596    1.7042   24.1381 C   0  0  0  0  0  0  0  0  0  0  0  0
   11.0456   -2.9774   18.2694 N   0  0  0  0  0  0  0  0  0  0  0  0
   10.4788   -3.0457   21.8593 C   0  0  0  0  0  0  0  0  0  0  0  0
    8.8693   -5.8099   18.4657 N   0  0  0  0  0  0  0  0  0  0  0  0
    8.9892   -0.7926   25.4573 C   0  0  0  0  0  0  0  0  0  0  0  0
   10.5677   -3.4462   20.5323 C   0  0  0  0  0  0  0  0  0  0  0  0
  1  8  1  0
  1 12  4  0
  1 14  4  0
  2  3  4  0
  2 18  4  0
  3 20  4  0
  3 22  4  0
  4 11  4  0
  4 21  4  0
  5  9  4  0
  5 16  4  0
  6 15  4  0
  6 16  4  0
  7 22  4  0
  7 26  4  0
  8 10  4  0
  8 25  4  0
  9 15  4  0
  9 17  1  0
 10 21  4  0
 11 25  4  0
 12 23  4  0
 13 20  4  0
 13 26  4  0
 14 19  4  0
 17 18  4  0
 17 24  4  0
 19 23  4  0
 20 24  4  0
 23 26  1  0
M  END
$$$$

 Created by Python create_sdf_string function

 26 30  0  0  0  0  0  0  0  0999 V2000
   10.0084   -1.8019   23.4945 C   0  0  0  0  0  0  0  0  0  0  0  0
   10.0005   -4.2520   16.5631 C   0  0  0  0  0  0  0  0  0  0  0  0
   10.2759   -4.0036   17.8845 C   0  0  0  0  0  0  0  0  0  0  0  0
    8.5652    1.5478   25.3778 N   0  0  0  0  0  0  0  0  0  0  0  0
    6.8048   -7.5457   17.8752 C   0  0  0  0  0  0  0  0  0  0  0  0
    6.1721   -8.2186   15.9886 N   0  0  0  0  0  0  0  0  0  0  0  0
   11.1764   -2.6600   19.5604 C   0  0  0  0  0  0  0  0  0  0  0  0
    9.5491   -0.6380   24.1912 C   0  0  0  0  0  0  0  0  0  0  0  0
    7.5337   -6.9256   16.9519 C   0  0  0  0  0  0  0  0  0  0  0  0
    9.6782    0.5671   23.5143 C   0  0  0  0  0  0  0  0  0  0  0  0
    8.4532    0.3482   26.0821 C   0  0  0  0  0  0  0  0  0  0  0  0
   10.4239   -1.7677   22.2230 N   0  0  0  0  0  0  0  0  0  0  0  0
    9.9468   -4.5953   20.1709 C   0  0  0  0  0  0  0  0  0  0  0  0
   10.0366   -3.0590   23.9864 N   0  0  0  0  0  0  0  0  0  0  0  0
    7.1191   -7.3636   15.7739 C   0  0  0  0  0  0  0  0  0  0  0  0
    5.9612   -8.3203   17.2732 N   0  0  0  0  0  0  0  0  0  0  0  0
    8.5296   -5.9814   17.1841 C   0  0  0  0  0  0  0  0  0  0  0  0
    9.1527   -5.2118   16.2116 C   0  0  0  0  0  0  0  0  0  0  0  0
   10.3364   -3.8368   22.9255 O   0  0  0  0  0  0  0  0  0  0  0  0
    9.6947   -4.8407   18.8534 C   0  0  0  0  0  0  0  0  0  0  0  0
    9.1596    1.7042   24.1381 C   0  0  0  0  0  0  0  0  0  0  0  0
   11.0456   -2.9774   18.2694 N   0  0  0  0  0  0  0  0  0  0  0  0
   10.4788   -3.0457   21.8593 C   0  0  0  0  0  0  0  0  0  0  0  0
    8.8693   -5.8099   18.4657 N   0  0  0  0  0  0  0  0  0  0  0  0
    8.9892   -0.7926   25.4573 C   0  0  0  0  0  0  0  0  0  0  0  0
   10.5677   -3.4462   20.5323 C   0  0  0  0  0  0  0  0  0  0  0  0
  1  8  1  0
  1 12  4  0
  1 14  4  0
  2  3  4  0
  2 18  4  0
  3 20  4  0
  3 22  4  0
  4 11  4  0
  4 21  4  0
  5  9  4  0
  5 16  4  0
  6 15  4  0
  6 16  4  0
  7 22  4  0
  7 26  4  0
  8 10  4  0
  8 25  4  0
  9 15  4  0
  9 17  1  0
 10 21  4  0
 11 25  4  0
 12 23  4  0
 13 20  4  0
 13 26  4  0
 14 19  4  0
 17 18  4  0
 17 24  4  0
 19 23  4  0
 20 24  4  0
 23 26  1  0
M  END
$$$$

 Created by Python create_sdf_string function

 26 30  0  0  0  0  0  0  0  0999 V2000
   10.0084   -1.8019   23.4945 C   0  0  0  0  0  0  0  0  0  0  0  0
   10.0005   -4.2520   16.5631 C   0  0  0  0  0  0  0  0  0  0  0  0
   10.2759   -4.0036   17.8845 C   0  0  0  0  0  0  0  0  0  0  0  0
    8.5652    1.5478   25.3778 N   0  0  0  0  0  0  0  0  0  0  0  0
    6.8048   -7.5457   17.8752 C   0  0  0  0  0  0  0  0  0  0  0  0
    6.1721   -8.2186   15.9886 N   0  0  0  0  0  0  0  0  0  0  0  0
   11.1764   -2.6600   19.5604 C   0  0  0  0  0  0  0  0  0  0  0  0
    9.5491   -0.6380   24.1912 C   0  0  0  0  0  0  0  0  0  0  0  0
    7.5337   -6.9256   16.9519 C   0  0  0  0  0  0  0  0  0  0  0  0
    9.6782    0.5671   23.5143 C   0  0  0  0  0  0  0  0  0  0  0  0
    8.4532    0.3482   26.0821 C   0  0  0  0  0  0  0  0  0  0  0  0
   10.4239   -1.7677   22.2230 N   0  0  0  0  0  0  0  0  0  0  0  0
    9.9468   -4.5953   20.1709 C   0  0  0  0  0  0  0  0  0  0  0  0
   10.0366   -3.0590   23.9864 N   0  0  0  0  0  0  0  0  0  0  0  0
    7.1191   -7.3636   15.7739 C   0  0  0  0  0  0  0  0  0  0  0  0
    5.9612   -8.3203   17.2732 N   0  0  0  0  0  0  0  0  0  0  0  0
    8.5296   -5.9814   17.1841 C   0  0  0  0  0  0  0  0  0  0  0  0
    9.1527   -5.2118   16.2116 C   0  0  0  0  0  0  0  0  0  0  0  0
   10.3364   -3.8368   22.9255 O   0  0  0  0  0  0  0  0  0  0  0  0
    9.6947   -4.8407   18.8534 C   0  0  0  0  0  0  0  0  0  0  0  0
    9.1596    1.7042   24.1381 C   0  0  0  0  0  0  0  0  0  0  0  0
   11.0456   -2.9774   18.2694 N   0  0  0  0  0  0  0  0  0  0  0  0
   10.4788   -3.0457   21.8593 C   0  0  0  0  0  0  0  0  0  0  0  0
    8.8693   -5.8099   18.4657 N   0  0  0  0  0  0  0  0  0  0  0  0
    8.9892   -0.7926   25.4573 C   0  0  0  0  0  0  0  0  0  0  0  0
   10.5677   -3.4462   20.5323 C   0  0  0  0  0  0  0  0  0  0  0  0
  1  8  1  0
  1 12  4  0
  1 14  4  0
  2  3  4  0
  2 18  4  0
  3 20  4  0
  3 22  4  0
  4 11  4  0
  4 21  4  0
  5  9  4  0
  5 16  4  0
  6 15  4  0
  6 16  4  0
  7 22  4  0
  7 26  4  0
  8 10  4  0
  8 25  4  0
  9 15  4  0
  9 17  1  0
 10 21  4  0
 11 25  4  0
 12 23  4  0
 13 20  4  0
 13 26  4  0
 14 19  4  0
 17 18  4  0
 17 24  4  0
 19 23  4  0
 20 24  4  0
 23 26  1  0
M  END
$$$$

 Created by Python create_sdf_string function

 26 30  0  0  0  0  0  0  0  0999 V2000
   10.0084   -1.8019   23.4945 C   0  0  0  0  0  0  0  0  0  0  0  0
   10.0005   -4.2520   16.5631 C   0  0  0  0  0  0  0  0  0  0  0  0
   10.2759   -4.0036   17.8845 C   0  0  0  0  0  0  0  0  0  0  0  0
    8.5652    1.5478   25.3778 N   0  0  0  0  0  0  0  0  0  0  0  0
    6.8048   -7.5457   17.8752 C   0  0  0  0  0  0  0  0  0  0  0  0
    6.1721   -8.2186   15.9886 N   0  0  0  0  0  0  0  0  0  0  0  0
   11.1764   -2.6600   19.5604 C   0  0  0  0  0  0  0  0  0  0  0  0
    9.5491   -0.6380   24.1912 C   0  0  0  0  0  0  0  0  0  0  0  0
    7.5337   -6.9256   16.9519 C   0  0  0  0  0  0  0  0  0  0  0  0
    9.6782    0.5671   23.5143 C   0  0  0  0  0  0  0  0  0  0  0  0
    8.4532    0.3482   26.0821 C   0  0  0  0  0  0  0  0  0  0  0  0
   10.4239   -1.7677   22.2230 N   0  0  0  0  0  0  0  0  0  0  0  0
    9.9468   -4.5953   20.1709 C   0  0  0  0  0  0  0  0  0  0  0  0
   10.0366   -3.0590   23.9864 N   0  0  0  0  0  0  0  0  0  0  0  0
    7.1191   -7.3636   15.7739 C   0  0  0  0  0  0  0  0  0  0  0  0
    5.9612   -8.3203   17.2732 N   0  0  0  0  0  0  0  0  0  0  0  0
    8.5296   -5.9814   17.1841 C   0  0  0  0  0  0  0  0  0  0  0  0
    9.1527   -5.2118   16.2116 C   0  0  0  0  0  0  0  0  0  0  0  0
   10.3364   -3.8368   22.9255 O   0  0  0  0  0  0  0  0  0  0  0  0
    9.6947   -4.8407   18.8534 C   0  0  0  0  0  0  0  0  0  0  0  0
    9.1596    1.7042   24.1381 C   0  0  0  0  0  0  0  0  0  0  0  0
   11.0456   -2.9774   18.2694 N   0  0  0  0  0  0  0  0  0  0  0  0
   10.4788   -3.0457   21.8593 C   0  0  0  0  0  0  0  0  0  0  0  0
    8.8693   -5.8099   18.4657 N   0  0  0  0  0  0  0  0  0  0  0  0
    8.9892   -0.7926   25.4573 C   0  0  0  0  0  0  0  0  0  0  0  0
   10.5677   -3.4462   20.5323 C   0  0  0  0  0  0  0  0  0  0  0  0
  1  8  1  0
  1 12  4  0
  1 14  4  0
  2  3  4  0
  2 18  4  0
  3 20  4  0
  3 22  4  0
  4 11  4  0
  4 21  4  0
  5  9  4  0
  5 16  4  0
  6 15  4  0
  6 16  4  0
  7 22  4  0
  7 26  4  0
  8 10  4  0
  8 25  4  0
  9 15  4  0
  9 17  1  0
 10 21  4  0
 11 25  4  0
 12 23  4  0
 13 20  4  0
 13 26  4  0
 14 19  4  0
 17 18  4  0
 17 24  4  0
 19 23  4  0
 20 24  4  0
 23 26  1  0
M  END
$$$$

 Created by Python create_sdf_string function

 26 30  0  0  0  0  0  0  0  0999 V2000
   10.0084   -1.8019   23.4945 C   0  0  0  0  0  0  0  0  0  0  0  0
   10.0005   -4.2520   16.5631 C   0  0  0  0  0  0  0  0  0  0  0  0
   10.2759   -4.0036   17.8845 C   0  0  0  0  0  0  0  0  0  0  0  0
    8.5652    1.5478   25.3778 N   0  0  0  0  0  0  0  0  0  0  0  0
    6.8048   -7.5457   17.8752 C   0  0  0  0  0  0  0  0  0  0  0  0
    6.1721   -8.2186   15.9886 N   0  0  0  0  0  0  0  0  0  0  0  0
   11.1764   -2.6600   19.5604 C   0  0  0  0  0  0  0  0  0  0  0  0
    9.5491   -0.6380   24.1912 C   0  0  0  0  0  0  0  0  0  0  0  0
    7.5337   -6.9256   16.9519 C   0  0  0  0  0  0  0  0  0  0  0  0
    9.6782    0.5671   23.5143 C   0  0  0  0  0  0  0  0  0  0  0  0
    8.4532    0.3482   26.0821 C   0  0  0  0  0  0  0  0  0  0  0  0
   10.4239   -1.7677   22.2230 N   0  0  0  0  0  0  0  0  0  0  0  0
    9.9468   -4.5953   20.1709 C   0  0  0  0  0  0  0  0  0  0  0  0
   10.0366   -3.0590   23.9864 N   0  0  0  0  0  0  0  0  0  0  0  0
    7.1191   -7.3636   15.7739 C   0  0  0  0  0  0  0  0  0  0  0  0
    5.9612   -8.3203   17.2732 N   0  0  0  0  0  0  0  0  0  0  0  0
    8.5296   -5.9814   17.1841 C   0  0  0  0  0  0  0  0  0  0  0  0
    9.1527   -5.2118   16.2116 C   0  0  0  0  0  0  0  0  0  0  0  0
   10.3364   -3.8368   22.9255 O   0  0  0  0  0  0  0  0  0  0  0  0
    9.6947   -4.8407   18.8534 C   0  0  0  0  0  0  0  0  0  0  0  0
    9.1596    1.7042   24.1381 C   0  0  0  0  0  0  0  0  0  0  0  0
   11.0456   -2.9774   18.2694 N   0  0  0  0  0  0  0  0  0  0  0  0
   10.4788   -3.0457   21.8593 C   0  0  0  0  0  0  0  0  0  0  0  0
    8.8693   -5.8099   18.4657 N   0  0  0  0  0  0  0  0  0  0  0  0
    8.9892   -0.7926   25.4573 C   0  0  0  0  0  0  0  0  0  0  0  0
   10.5677   -3.4462   20.5323 C   0  0  0  0  0  0  0  0  0  0  0  0
  1  8  1  0
  1 12  4  0
  1 14  4  0
  2  3  4  0
  2 18  4  0
  3 20  4  0
  3 22  4  0
  4 11  4  0
  4 21  4  0
  5  9  4  0
  5 16  4  0
  6 15  4  0
  6 16  4  0
  7 22  4  0
  7 26  4  0
  8 10  4  0
  8 25  4  0
  9 15  4  0
  9 17  1  0
 10 21  4  0
 11 25  4  0
 12 23  4  0
 13 20  4  0
 13 26  4  0
 14 19  4  0
 17 18  4  0
 17 24  4  0
 19 23  4  0
 20 24  4  0
 23 26  1  0
M  END
$$$$

 Created by Python create_sdf_string function

 26 30  0  0  0  0  0  0  0  0999 V2000
   10.0084   -1.8019   23.4945 C   0  0  0  0  0  0  0  0  0  0  0  0
   10.0005   -4.2520   16.5631 C   0  0  0  0  0  0  0  0  0  0  0  0
   10.2759   -4.0036   17.8845 C   0  0  0  0  0  0  0  0  0  0  0  0
    8.5652    1.5478   25.3778 N   0  0  0  0  0  0  0  0  0  0  0  0
    6.8048   -7.5457   17.8752 C   0  0  0  0  0  0  0  0  0  0  0  0
    6.1721   -8.2186   15.9886 N   0  0  0  0  0  0  0  0  0  0  0  0
   11.1764   -2.6600   19.5604 C   0  0  0  0  0  0  0  0  0  0  0  0
    9.5491   -0.6380   24.1912 C   0  0  0  0  0  0  0  0  0  0  0  0
    7.5337   -6.9256   16.9519 C   0  0  0  0  0  0  0  0  0  0  0  0
    9.6782    0.5671   23.5143 C   0  0  0  0  0  0  0  0  0  0  0  0
    8.4532    0.3482   26.0821 C   0  0  0  0  0  0  0  0  0  0  0  0
   10.4239   -1.7677   22.2230 N   0  0  0  0  0  0  0  0  0  0  0  0
    9.9468   -4.5953   20.1709 C   0  0  0  0  0  0  0  0  0  0  0  0
   10.0366   -3.0590   23.9864 N   0  0  0  0  0  0  0  0  0  0  0  0
    7.1191   -7.3636   15.7739 C   0  0  0  0  0  0  0  0  0  0  0  0
    5.9612   -8.3203   17.2732 N   0  0  0  0  0  0  0  0  0  0  0  0
    8.5296   -5.9814   17.1841 C   0  0  0  0  0  0  0  0  0  0  0  0
    9.1527   -5.2118   16.2116 C   0  0  0  0  0  0  0  0  0  0  0  0
   10.3364   -3.8368   22.9255 O   0  0  0  0  0  0  0  0  0  0  0  0
    9.6947   -4.8407   18.8534 C   0  0  0  0  0  0  0  0  0  0  0  0
    9.1596    1.7042   24.1381 C   0  0  0  0  0  0  0  0  0  0  0  0
   11.0456   -2.9774   18.2694 N   0  0  0  0  0  0  0  0  0  0  0  0
   10.4788   -3.0457   21.8593 C   0  0  0  0  0  0  0  0  0  0  0  0
    8.8693   -5.8099   18.4657 N   0  0  0  0  0  0  0  0  0  0  0  0
    8.9892   -0.7926   25.4573 C   0  0  0  0  0  0  0  0  0  0  0  0
   10.5677   -3.4462   20.5323 C   0  0  0  0  0  0  0  0  0  0  0  0
  1  8  1  0
  1 12  4  0
  1 14  4  0
  2  3  4  0
  2 18  4  0
  3 20  4  0
  3 22  4  0
  4 11  4  0
  4 21  4  0
  5  9  4  0
  5 16  4  0
  6 15  4  0
  6 16  4  0
  7 22  4  0
  7 26  4  0
  8 10  4  0
  8 25  4  0
  9 15  4  0
  9 17  1  0
 10 21  4  0
 11 25  4  0
 12 23  4  0
 13 20  4  0
 13 26  4  0
 14 19  4  0
 17 18  4  0
 17 24  4  0
 19 23  4  0
 20 24  4  0
 23 26  1  0
M  END
$$$$

 Created by Python create_sdf_string function

 26 30  0  0  0  0  0  0  0  0999 V2000
   10.0084   -1.8019   23.4945 C   0  0  0  0  0  0  0  0  0  0  0  0
   10.0005   -4.2520   16.5631 C   0  0  0  0  0  0  0  0  0  0  0  0
   10.2759   -4.0036   17.8845 C   0  0  0  0  0  0  0  0  0  0  0  0
    8.5652    1.5478   25.3778 N   0  0  0  0  0  0  0  0  0  0  0  0
    6.8048   -7.5457   17.8752 C   0  0  0  0  0  0  0  0  0  0  0  0
    6.1721   -8.2186   15.9886 N   0  0  0  0  0  0  0  0  0  0  0  0
   11.1764   -2.6600   19.5604 C   0  0  0  0  0  0  0  0  0  0  0  0
    9.5491   -0.6380   24.1912 C   0  0  0  0  0  0  0  0  0  0  0  0
    7.5337   -6.9256   16.9519 C   0  0  0  0  0  0  0  0  0  0  0  0
    9.6782    0.5671   23.5143 C   0  0  0  0  0  0  0  0  0  0  0  0
    8.4532    0.3482   26.0821 C   0  0  0  0  0  0  0  0  0  0  0  0
   10.4239   -1.7677   22.2230 N   0  0  0  0  0  0  0  0  0  0  0  0
    9.9468   -4.5953   20.1709 C   0  0  0  0  0  0  0  0  0  0  0  0
   10.0366   -3.0590   23.9864 N   0  0  0  0  0  0  0  0  0  0  0  0
    7.1191   -7.3636   15.7739 C   0  0  0  0  0  0  0  0  0  0  0  0
    5.9612   -8.3203   17.2732 N   0  0  0  0  0  0  0  0  0  0  0  0
    8.5296   -5.9814   17.1841 C   0  0  0  0  0  0  0  0  0  0  0  0
    9.1527   -5.2118   16.2116 C   0  0  0  0  0  0  0  0  0  0  0  0
   10.3364   -3.8368   22.9255 O   0  0  0  0  0  0  0  0  0  0  0  0
    9.6947   -4.8407   18.8534 C   0  0  0  0  0  0  0  0  0  0  0  0
    9.1596    1.7042   24.1381 C   0  0  0  0  0  0  0  0  0  0  0  0
   11.0456   -2.9774   18.2694 N   0  0  0  0  0  0  0  0  0  0  0  0
   10.4788   -3.0457   21.8593 C   0  0  0  0  0  0  0  0  0  0  0  0
    8.8693   -5.8099   18.4657 N   0  0  0  0  0  0  0  0  0  0  0  0
    8.9892   -0.7926   25.4573 C   0  0  0  0  0  0  0  0  0  0  0  0
   10.5677   -3.4462   20.5323 C   0  0  0  0  0  0  0  0  0  0  0  0
  1  8  1  0
  1 12  4  0
  1 14  4  0
  2  3  4  0
  2 18  4  0
  3 20  4  0
  3 22  4  0
  4 11  4  0
  4 21  4  0
  5  9  4  0
  5 16  4  0
  6 15  4  0
  6 16  4  0
  7 22  4  0
  7 26  4  0
  8 10  4  0
  8 25  4  0
  9 15  4  0
  9 17  1  0
 10 21  4  0
 11 25  4  0
 12 23  4  0
 13 20  4  0
 13 26  4  0
 14 19  4  0
 17 18  4  0
 17 24  4  0
 19 23  4  0
 20 24  4  0
 23 26  1  0
M  END
$$$$

 Created by Python create_sdf_string function

 26 30  0  0  0  0  0  0  0  0999 V2000
   10.0084   -1.8019   23.4945 C   0  0  0  0  0  0  0  0  0  0  0  0
   10.0005   -4.2520   16.5631 C   0  0  0  0  0  0  0  0  0  0  0  0
   10.2759   -4.0036   17.8845 C   0  0  0  0  0  0  0  0  0  0  0  0
    8.5652    1.5478   25.3778 N   0  0  0  0  0  0  0  0  0  0  0  0
    6.8048   -7.5457   17.8752 C   0  0  0  0  0  0  0  0  0  0  0  0
    6.1721   -8.2186   15.9886 N   0  0  0  0  0  0  0  0  0  0  0  0
   11.1764   -2.6600   19.5604 C   0  0  0  0  0  0  0  0  0  0  0  0
    9.5491   -0.6380   24.1912 C   0  0  0  0  0  0  0  0  0  0  0  0
    7.5337   -6.9256   16.9519 C   0  0  0  0  0  0  0  0  0  0  0  0
    9.6782    0.5671   23.5143 C   0  0  0  0  0  0  0  0  0  0  0  0
    8.4532    0.3482   26.0821 C   0  0  0  0  0  0  0  0  0  0  0  0
   10.4239   -1.7677   22.2230 N   0  0  0  0  0  0  0  0  0  0  0  0
    9.9468   -4.5953   20.1709 C   0  0  0  0  0  0  0  0  0  0  0  0
   10.0366   -3.0590   23.9864 N   0  0  0  0  0  0  0  0  0  0  0  0
    7.1191   -7.3636   15.7739 C   0  0  0  0  0  0  0  0  0  0  0  0
    5.9612   -8.3203   17.2732 N   0  0  0  0  0  0  0  0  0  0  0  0
    8.5296   -5.9814   17.1841 C   0  0  0  0  0  0  0  0  0  0  0  0
    9.1527   -5.2118   16.2116 C   0  0  0  0  0  0  0  0  0  0  0  0
   10.3364   -3.8368   22.9255 O   0  0  0  0  0  0  0  0  0  0  0  0
    9.6947   -4.8407   18.8534 C   0  0  0  0  0  0  0  0  0  0  0  0
    9.1596    1.7042   24.1381 C   0  0  0  0  0  0  0  0  0  0  0  0
   11.0456   -2.9774   18.2694 N   0  0  0  0  0  0  0  0  0  0  0  0
   10.4788   -3.0457   21.8593 C   0  0  0  0  0  0  0  0  0  0  0  0
    8.8693   -5.8099   18.4657 N   0  0  0  0  0  0  0  0  0  0  0  0
    8.9892   -0.7926   25.4573 C   0  0  0  0  0  0  0  0  0  0  0  0
   10.5677   -3.4462   20.5323 C   0  0  0  0  0  0  0  0  0  0  0  0
  1  8  1  0
  1 12  4  0
  1 14  4  0
  2  3  4  0
  2 18  4  0
  3 20  4  0
  3 22  4  0
  4 11  4  0
  4 21  4  0
  5  9  4  0
  5 16  4  0
  6 15  4  0
  6 16  4  0
  7 22  4  0
  7 26  4  0
  8 10  4  0
  8 25  4  0
  9 15  4  0
  9 17  1  0
 10 21  4  0
 11 25  4  0
 12 23  4  0
 13 20  4  0
 13 26  4  0
 14 19  4  0
 17 18  4  0
 17 24  4  0
 19 23  4  0
 20 24  4  0
 23 26  1  0
M  END
$$$$

 Created by Python create_sdf_string function

 26 30  0  0  0  0  0  0  0  0999 V2000
   10.0084   -1.8019   23.4945 C   0  0  0  0  0  0  0  0  0  0  0  0
   10.0005   -4.2520   16.5631 C   0  0  0  0  0  0  0  0  0  0  0  0
   10.2759   -4.0036   17.8845 C   0  0  0  0  0  0  0  0  0  0  0  0
    8.5652    1.5478   25.3778 N   0  0  0  0  0  0  0  0  0  0  0  0
    6.8048   -7.5457   17.8752 C   0  0  0  0  0  0  0  0  0  0  0  0
    6.1721   -8.2186   15.9886 N   0  0  0  0  0  0  0  0  0  0  0  0
   11.1764   -2.6600   19.5604 C   0  0  0  0  0  0  0  0  0  0  0  0
    9.5491   -0.6380   24.1912 C   0  0  0  0  0  0  0  0  0  0  0  0
    7.5337   -6.9256   16.9519 C   0  0  0  0  0  0  0  0  0  0  0  0
    9.6782    0.5671   23.5143 C   0  0  0  0  0  0  0  0  0  0  0  0
    8.4532    0.3482   26.0821 C   0  0  0  0  0  0  0  0  0  0  0  0
   10.4239   -1.7677   22.2230 N   0  0  0  0  0  0  0  0  0  0  0  0
    9.9468   -4.5953   20.1709 C   0  0  0  0  0  0  0  0  0  0  0  0
   10.0366   -3.0590   23.9864 N   0  0  0  0  0  0  0  0  0  0  0  0
    7.1191   -7.3636   15.7739 C   0  0  0  0  0  0  0  0  0  0  0  0
    5.9612   -8.3203   17.2732 N   0  0  0  0  0  0  0  0  0  0  0  0
    8.5296   -5.9814   17.1841 C   0  0  0  0  0  0  0  0  0  0  0  0
    9.1527   -5.2118   16.2116 C   0  0  0  0  0  0  0  0  0  0  0  0
   10.3364   -3.8368   22.9255 O   0  0  0  0  0  0  0  0  0  0  0  0
    9.6947   -4.8407   18.8534 C   0  0  0  0  0  0  0  0  0  0  0  0
    9.1596    1.7042   24.1381 C   0  0  0  0  0  0  0  0  0  0  0  0
   11.0456   -2.9774   18.2694 N   0  0  0  0  0  0  0  0  0  0  0  0
   10.4788   -3.0457   21.8593 C   0  0  0  0  0  0  0  0  0  0  0  0
    8.8693   -5.8099   18.4657 N   0  0  0  0  0  0  0  0  0  0  0  0
    8.9892   -0.7926   25.4573 C   0  0  0  0  0  0  0  0  0  0  0  0
   10.5677   -3.4462   20.5323 C   0  0  0  0  0  0  0  0  0  0  0  0
  1  8  1  0
  1 12  4  0
  1 14  4  0
  2  3  4  0
  2 18  4  0
  3 20  4  0
  3 22  4  0
  4 11  4  0
  4 21  4  0
  5  9  4  0
  5 16  4  0
  6 15  4  0
  6 16  4  0
  7 22  4  0
  7 26  4  0
  8 10  4  0
  8 25  4  0
  9 15  4  0
  9 17  1  0
 10 21  4  0
 11 25  4  0
 12 23  4  0
 13 20  4  0
 13 26  4  0
 14 19  4  0
 17 18  4  0
 17 24  4  0
 19 23  4  0
 20 24  4  0
 23 26  1  0
M  END
$$$$

 Created by Python create_sdf_string function

 26 30  0  0  0  0  0  0  0  0999 V2000
   10.0084   -1.8019   23.4945 C   0  0  0  0  0  0  0  0  0  0  0  0
   10.0005   -4.2520   16.5631 C   0  0  0  0  0  0  0  0  0  0  0  0
   10.2759   -4.0036   17.8845 C   0  0  0  0  0  0  0  0  0  0  0  0
    8.5652    1.5478   25.3778 N   0  0  0  0  0  0  0  0  0  0  0  0
    6.8048   -7.5457   17.8752 C   0  0  0  0  0  0  0  0  0  0  0  0
    6.1721   -8.2186   15.9886 N   0  0  0  0  0  0  0  0  0  0  0  0
   11.1764   -2.6600   19.5604 C   0  0  0  0  0  0  0  0  0  0  0  0
    9.5491   -0.6380   24.1912 C   0  0  0  0  0  0  0  0  0  0  0  0
    7.5337   -6.9256   16.9519 C   0  0  0  0  0  0  0  0  0  0  0  0
    9.6782    0.5671   23.5143 C   0  0  0  0  0  0  0  0  0  0  0  0
    8.4532    0.3482   26.0821 C   0  0  0  0  0  0  0  0  0  0  0  0
   10.4239   -1.7677   22.2230 N   0  0  0  0  0  0  0  0  0  0  0  0
    9.9468   -4.5953   20.1709 C   0  0  0  0  0  0  0  0  0  0  0  0
   10.0366   -3.0590   23.9864 N   0  0  0  0  0  0  0  0  0  0  0  0
    7.1191   -7.3636   15.7739 C   0  0  0  0  0  0  0  0  0  0  0  0
    5.9612   -8.3203   17.2732 N   0  0  0  0  0  0  0  0  0  0  0  0
    8.5296   -5.9814   17.1841 C   0  0  0  0  0  0  0  0  0  0  0  0
    9.1527   -5.2118   16.2116 C   0  0  0  0  0  0  0  0  0  0  0  0
   10.3364   -3.8368   22.9255 O   0  0  0  0  0  0  0  0  0  0  0  0
    9.6947   -4.8407   18.8534 C   0  0  0  0  0  0  0  0  0  0  0  0
    9.1596    1.7042   24.1381 C   0  0  0  0  0  0  0  0  0  0  0  0
   11.0456   -2.9774   18.2694 N   0  0  0  0  0  0  0  0  0  0  0  0
   10.4788   -3.0457   21.8593 C   0  0  0  0  0  0  0  0  0  0  0  0
    8.8693   -5.8099   18.4657 N   0  0  0  0  0  0  0  0  0  0  0  0
    8.9892   -0.7926   25.4573 C   0  0  0  0  0  0  0  0  0  0  0  0
   10.5677   -3.4462   20.5323 C   0  0  0  0  0  0  0  0  0  0  0  0
  1  8  1  0
  1 12  4  0
  1 14  4  0
  2  3  4  0
  2 18  4  0
  3 20  4  0
  3 22  4  0
  4 11  4  0
  4 21  4  0
  5  9  4  0
  5 16  4  0
  6 15  4  0
  6 16  4  0
  7 22  4  0
  7 26  4  0
  8 10  4  0
  8 25  4  0
  9 15  4  0
  9 17  1  0
 10 21  4  0
 11 25  4  0
 12 23  4  0
 13 20  4  0
 13 26  4  0
 14 19  4  0
 17 18  4  0
 17 24  4  0
 19 23  4  0
 20 24  4  0
 23 26  1  0
M  END
$$$$

 Created by Python create_sdf_string function

 26 30  0  0  0  0  0  0  0  0999 V2000
   10.0084   -1.8019   23.4945 C   0  0  0  0  0  0  0  0  0  0  0  0
   10.0005   -4.2520   16.5631 C   0  0  0  0  0  0  0  0  0  0  0  0
   10.2759   -4.0036   17.8845 C   0  0  0  0  0  0  0  0  0  0  0  0
    8.5652    1.5478   25.3778 N   0  0  0  0  0  0  0  0  0  0  0  0
    6.8048   -7.5457   17.8752 C   0  0  0  0  0  0  0  0  0  0  0  0
    6.1721   -8.2186   15.9886 N   0  0  0  0  0  0  0  0  0  0  0  0
   11.1764   -2.6600   19.5604 C   0  0  0  0  0  0  0  0  0  0  0  0
    9.5491   -0.6380   24.1912 C   0  0  0  0  0  0  0  0  0  0  0  0
    7.5337   -6.9256   16.9519 C   0  0  0  0  0  0  0  0  0  0  0  0
    9.6782    0.5671   23.5143 C   0  0  0  0  0  0  0  0  0  0  0  0
    8.4532    0.3482   26.0821 C   0  0  0  0  0  0  0  0  0  0  0  0
   10.4239   -1.7677   22.2230 N   0  0  0  0  0  0  0  0  0  0  0  0
    9.9468   -4.5953   20.1709 C   0  0  0  0  0  0  0  0  0  0  0  0
   10.0366   -3.0590   23.9864 N   0  0  0  0  0  0  0  0  0  0  0  0
    7.1191   -7.3636   15.7739 C   0  0  0  0  0  0  0  0  0  0  0  0
    5.9612   -8.3203   17.2732 N   0  0  0  0  0  0  0  0  0  0  0  0
    8.5296   -5.9814   17.1841 C   0  0  0  0  0  0  0  0  0  0  0  0
    9.1527   -5.2118   16.2116 C   0  0  0  0  0  0  0  0  0  0  0  0
   10.3364   -3.8368   22.9255 O   0  0  0  0  0  0  0  0  0  0  0  0
    9.6947   -4.8407   18.8534 C   0  0  0  0  0  0  0  0  0  0  0  0
    9.1596    1.7042   24.1381 C   0  0  0  0  0  0  0  0  0  0  0  0
   11.0456   -2.9774   18.2694 N   0  0  0  0  0  0  0  0  0  0  0  0
   10.4788   -3.0457   21.8593 C   0  0  0  0  0  0  0  0  0  0  0  0
    8.8693   -5.8099   18.4657 N   0  0  0  0  0  0  0  0  0  0  0  0
    8.9892   -0.7926   25.4573 C   0  0  0  0  0  0  0  0  0  0  0  0
   10.5677   -3.4462   20.5323 C   0  0  0  0  0  0  0  0  0  0  0  0
  1  8  1  0
  1 12  4  0
  1 14  4  0
  2  3  4  0
  2 18  4  0
  3 20  4  0
  3 22  4  0
  4 11  4  0
  4 21  4  0
  5  9  4  0
  5 16  4  0
  6 15  4  0
  6 16  4  0
  7 22  4  0
  7 26  4  0
  8 10  4  0
  8 25  4  0
  9 15  4  0
  9 17  1  0
 10 21  4  0
 11 25  4  0
 12 23  4  0
 13 20  4  0
 13 26  4  0
 14 19  4  0
 17 18  4  0
 17 24  4  0
 19 23  4  0
 20 24  4  0
 23 26  1  0
M  END
$$$$

 Created by Python create_sdf_string function

 26 30  0  0  0  0  0  0  0  0999 V2000
   10.0084   -1.8019   23.4945 C   0  0  0  0  0  0  0  0  0  0  0  0
   10.0005   -4.2520   16.5631 C   0  0  0  0  0  0  0  0  0  0  0  0
   10.2759   -4.0036   17.8845 C   0  0  0  0  0  0  0  0  0  0  0  0
    8.5652    1.5478   25.3778 N   0  0  0  0  0  0  0  0  0  0  0  0
    6.8048   -7.5457   17.8752 C   0  0  0  0  0  0  0  0  0  0  0  0
    6.1721   -8.2186   15.9886 N   0  0  0  0  0  0  0  0  0  0  0  0
   11.1764   -2.6600   19.5604 C   0  0  0  0  0  0  0  0  0  0  0  0
    9.5491   -0.6380   24.1912 C   0  0  0  0  0  0  0  0  0  0  0  0
    7.5337   -6.9256   16.9519 C   0  0  0  0  0  0  0  0  0  0  0  0
    9.6782    0.5671   23.5143 C   0  0  0  0  0  0  0  0  0  0  0  0
    8.4532    0.3482   26.0821 C   0  0  0  0  0  0  0  0  0  0  0  0
   10.4239   -1.7677   22.2230 N   0  0  0  0  0  0  0  0  0  0  0  0
    9.9468   -4.5953   20.1709 C   0  0  0  0  0  0  0  0  0  0  0  0
   10.0366   -3.0590   23.9864 N   0  0  0  0  0  0  0  0  0  0  0  0
    7.1191   -7.3636   15.7739 C   0  0  0  0  0  0  0  0  0  0  0  0
    5.9612   -8.3203   17.2732 N   0  0  0  0  0  0  0  0  0  0  0  0
    8.5296   -5.9814   17.1841 C   0  0  0  0  0  0  0  0  0  0  0  0
    9.1527   -5.2118   16.2116 C   0  0  0  0  0  0  0  0  0  0  0  0
   10.3364   -3.8368   22.9255 O   0  0  0  0  0  0  0  0  0  0  0  0
    9.6947   -4.8407   18.8534 C   0  0  0  0  0  0  0  0  0  0  0  0
    9.1596    1.7042   24.1381 C   0  0  0  0  0  0  0  0  0  0  0  0
   11.0456   -2.9774   18.2694 N   0  0  0  0  0  0  0  0  0  0  0  0
   10.4788   -3.0457   21.8593 C   0  0  0  0  0  0  0  0  0  0  0  0
    8.8693   -5.8099   18.4657 N   0  0  0  0  0  0  0  0  0  0  0  0
    8.9892   -0.7926   25.4573 C   0  0  0  0  0  0  0  0  0  0  0  0
   10.5677   -3.4462   20.5323 C   0  0  0  0  0  0  0  0  0  0  0  0
  1  8  1  0
  1 12  4  0
  1 14  4  0
  2  3  4  0
  2 18  4  0
  3 20  4  0
  3 22  4  0
  4 11  4  0
  4 21  4  0
  5  9  4  0
  5 16  4  0
  6 15  4  0
  6 16  4  0
  7 22  4  0
  7 26  4  0
  8 10  4  0
  8 25  4  0
  9 15  4  0
  9 17  1  0
 10 21  4  0
 11 25  4  0
 12 23  4  0
 13 20  4  0
 13 26  4  0
 14 19  4  0
 17 18  4  0
 17 24  4  0
 19 23  4  0
 20 24  4  0
 23 26  1  0
M  END
$$$$

 Created by Python create_sdf_string function

 26 30  0  0  0  0  0  0  0  0999 V2000
   10.0084   -1.8019   23.4945 C   0  0  0  0  0  0  0  0  0  0  0  0
   10.0005   -4.2520   16.5631 C   0  0  0  0  0  0  0  0  0  0  0  0
   10.2759   -4.0036   17.8845 C   0  0  0  0  0  0  0  0  0  0  0  0
    8.5652    1.5478   25.3778 N   0  0  0  0  0  0  0  0  0  0  0  0
    6.8048   -7.5457   17.8752 C   0  0  0  0  0  0  0  0  0  0  0  0
    6.1721   -8.2186   15.9886 N   0  0  0  0  0  0  0  0  0  0  0  0
   11.1764   -2.6600   19.5604 C   0  0  0  0  0  0  0  0  0  0  0  0
    9.5491   -0.6380   24.1912 C   0  0  0  0  0  0  0  0  0  0  0  0
    7.5337   -6.9256   16.9519 C   0  0  0  0  0  0  0  0  0  0  0  0
    9.6782    0.5671   23.5143 C   0  0  0  0  0  0  0  0  0  0  0  0
    8.4532    0.3482   26.0821 C   0  0  0  0  0  0  0  0  0  0  0  0
   10.4239   -1.7677   22.2230 N   0  0  0  0  0  0  0  0  0  0  0  0
    9.9468   -4.5953   20.1709 C   0  0  0  0  0  0  0  0  0  0  0  0
   10.0366   -3.0590   23.9864 N   0  0  0  0  0  0  0  0  0  0  0  0
    7.1191   -7.3636   15.7739 C   0  0  0  0  0  0  0  0  0  0  0  0
    5.9612   -8.3203   17.2732 N   0  0  0  0  0  0  0  0  0  0  0  0
    8.5296   -5.9814   17.1841 C   0  0  0  0  0  0  0  0  0  0  0  0
    9.1527   -5.2118   16.2116 C   0  0  0  0  0  0  0  0  0  0  0  0
   10.3364   -3.8368   22.9255 O   0  0  0  0  0  0  0  0  0  0  0  0
    9.6947   -4.8407   18.8534 C   0  0  0  0  0  0  0  0  0  0  0  0
    9.1596    1.7042   24.1381 C   0  0  0  0  0  0  0  0  0  0  0  0
   11.0456   -2.9774   18.2694 N   0  0  0  0  0  0  0  0  0  0  0  0
   10.4788   -3.0457   21.8593 C   0  0  0  0  0  0  0  0  0  0  0  0
    8.8693   -5.8099   18.4657 N   0  0  0  0  0  0  0  0  0  0  0  0
    8.9892   -0.7926   25.4573 C   0  0  0  0  0  0  0  0  0  0  0  0
   10.5677   -3.4462   20.5323 C   0  0  0  0  0  0  0  0  0  0  0  0
  1  8  1  0
  1 12  4  0
  1 14  4  0
  2  3  4  0
  2 18  4  0
  3 20  4  0
  3 22  4  0
  4 11  4  0
  4 21  4  0
  5  9  4  0
  5 16  4  0
  6 15  4  0
  6 16  4  0
  7 22  4  0
  7 26  4  0
  8 10  4  0
  8 25  4  0
  9 15  4  0
  9 17  1  0
 10 21  4  0
 11 25  4  0
 12 23  4  0
 13 20  4  0
 13 26  4  0
 14 19  4  0
 17 18  4  0
 17 24  4  0
 19 23  4  0
 20 24  4  0
 23 26  1  0
M  END
$$$$

 Created by Python create_sdf_string function

 26 30  0  0  0  0  0  0  0  0999 V2000
   10.0084   -1.8019   23.4945 C   0  0  0  0  0  0  0  0  0  0  0  0
   10.0005   -4.2520   16.5631 C   0  0  0  0  0  0  0  0  0  0  0  0
   10.2759   -4.0036   17.8845 C   0  0  0  0  0  0  0  0  0  0  0  0
    8.5652    1.5478   25.3778 N   0  0  0  0  0  0  0  0  0  0  0  0
    6.8048   -7.5457   17.8752 C   0  0  0  0  0  0  0  0  0  0  0  0
    6.1721   -8.2186   15.9886 N   0  0  0  0  0  0  0  0  0  0  0  0
   11.1764   -2.6600   19.5604 C   0  0  0  0  0  0  0  0  0  0  0  0
    9.5491   -0.6380   24.1912 C   0  0  0  0  0  0  0  0  0  0  0  0
    7.5337   -6.9256   16.9519 C   0  0  0  0  0  0  0  0  0  0  0  0
    9.6782    0.5671   23.5143 C   0  0  0  0  0  0  0  0  0  0  0  0
    8.4532    0.3482   26.0821 C   0  0  0  0  0  0  0  0  0  0  0  0
   10.4239   -1.7677   22.2230 N   0  0  0  0  0  0  0  0  0  0  0  0
    9.9468   -4.5953   20.1709 C   0  0  0  0  0  0  0  0  0  0  0  0
   10.0366   -3.0590   23.9864 N   0  0  0  0  0  0  0  0  0  0  0  0
    7.1191   -7.3636   15.7739 C   0  0  0  0  0  0  0  0  0  0  0  0
    5.9612   -8.3203   17.2732 N   0  0  0  0  0  0  0  0  0  0  0  0
    8.5296   -5.9814   17.1841 C   0  0  0  0  0  0  0  0  0  0  0  0
    9.1527   -5.2118   16.2116 C   0  0  0  0  0  0  0  0  0  0  0  0
   10.3364   -3.8368   22.9255 O   0  0  0  0  0  0  0  0  0  0  0  0
    9.6947   -4.8407   18.8534 C   0  0  0  0  0  0  0  0  0  0  0  0
    9.1596    1.7042   24.1381 C   0  0  0  0  0  0  0  0  0  0  0  0
   11.0456   -2.9774   18.2694 N   0  0  0  0  0  0  0  0  0  0  0  0
   10.4788   -3.0457   21.8593 C   0  0  0  0  0  0  0  0  0  0  0  0
    8.8693   -5.8099   18.4657 N   0  0  0  0  0  0  0  0  0  0  0  0
    8.9892   -0.7926   25.4573 C   0  0  0  0  0  0  0  0  0  0  0  0
   10.5677   -3.4462   20.5323 C   0  0  0  0  0  0  0  0  0  0  0  0
  1  8  1  0
  1 12  4  0
  1 14  4  0
  2  3  4  0
  2 18  4  0
  3 20  4  0
  3 22  4  0
  4 11  4  0
  4 21  4  0
  5  9  4  0
  5 16  4  0
  6 15  4  0
  6 16  4  0
  7 22  4  0
  7 26  4  0
  8 10  4  0
  8 25  4  0
  9 15  4  0
  9 17  1  0
 10 21  4  0
 11 25  4  0
 12 23  4  0
 13 20  4  0
 13 26  4  0
 14 19  4  0
 17 18  4  0
 17 24  4  0
 19 23  4  0
 20 24  4  0
 23 26  1  0
M  END
$$$$

 Created by Python create_sdf_string function

 26 30  0  0  0  0  0  0  0  0999 V2000
   10.0084   -1.8019   23.4945 C   0  0  0  0  0  0  0  0  0  0  0  0
   10.0005   -4.2520   16.5631 C   0  0  0  0  0  0  0  0  0  0  0  0
   10.2759   -4.0036   17.8845 C   0  0  0  0  0  0  0  0  0  0  0  0
    8.5652    1.5478   25.3778 N   0  0  0  0  0  0  0  0  0  0  0  0
    6.8048   -7.5457   17.8752 C   0  0  0  0  0  0  0  0  0  0  0  0
    6.1721   -8.2186   15.9886 N   0  0  0  0  0  0  0  0  0  0  0  0
   11.1764   -2.6600   19.5604 C   0  0  0  0  0  0  0  0  0  0  0  0
    9.5491   -0.6380   24.1912 C   0  0  0  0  0  0  0  0  0  0  0  0
    7.5337   -6.9256   16.9519 C   0  0  0  0  0  0  0  0  0  0  0  0
    9.6782    0.5671   23.5143 C   0  0  0  0  0  0  0  0  0  0  0  0
    8.4532    0.3482   26.0821 C   0  0  0  0  0  0  0  0  0  0  0  0
   10.4239   -1.7677   22.2230 N   0  0  0  0  0  0  0  0  0  0  0  0
    9.9468   -4.5953   20.1709 C   0  0  0  0  0  0  0  0  0  0  0  0
   10.0366   -3.0590   23.9864 N   0  0  0  0  0  0  0  0  0  0  0  0
    7.1191   -7.3636   15.7739 C   0  0  0  0  0  0  0  0  0  0  0  0
    5.9612   -8.3203   17.2732 N   0  0  0  0  0  0  0  0  0  0  0  0
    8.5296   -5.9814   17.1841 C   0  0  0  0  0  0  0  0  0  0  0  0
    9.1527   -5.2118   16.2116 C   0  0  0  0  0  0  0  0  0  0  0  0
   10.3364   -3.8368   22.9255 O   0  0  0  0  0  0  0  0  0  0  0  0
    9.6947   -4.8407   18.8534 C   0  0  0  0  0  0  0  0  0  0  0  0
    9.1596    1.7042   24.1381 C   0  0  0  0  0  0  0  0  0  0  0  0
   11.0456   -2.9774   18.2694 N   0  0  0  0  0  0  0  0  0  0  0  0
   10.4788   -3.0457   21.8593 C   0  0  0  0  0  0  0  0  0  0  0  0
    8.8693   -5.8099   18.4657 N   0  0  0  0  0  0  0  0  0  0  0  0
    8.9892   -0.7926   25.4573 C   0  0  0  0  0  0  0  0  0  0  0  0
   10.5677   -3.4462   20.5323 C   0  0  0  0  0  0  0  0  0  0  0  0
  1  8  1  0
  1 12  4  0
  1 14  4  0
  2  3  4  0
  2 18  4  0
  3 20  4  0
  3 22  4  0
  4 11  4  0
  4 21  4  0
  5  9  4  0
  5 16  4  0
  6 15  4  0
  6 16  4  0
  7 22  4  0
  7 26  4  0
  8 10  4  0
  8 25  4  0
  9 15  4  0
  9 17  1  0
 10 21  4  0
 11 25  4  0
 12 23  4  0
 13 20  4  0
 13 26  4  0
 14 19  4  0
 17 18  4  0
 17 24  4  0
 19 23  4  0
 20 24  4  0
 23 26  1  0
M  END
$$$$

 Created by Python create_sdf_string function

 26 30  0  0  0  0  0  0  0  0999 V2000
   10.0084   -1.8019   23.4945 C   0  0  0  0  0  0  0  0  0  0  0  0
   10.0005   -4.2520   16.5631 C   0  0  0  0  0  0  0  0  0  0  0  0
   10.2759   -4.0036   17.8845 C   0  0  0  0  0  0  0  0  0  0  0  0
    8.5652    1.5478   25.3778 N   0  0  0  0  0  0  0  0  0  0  0  0
    6.8048   -7.5457   17.8752 C   0  0  0  0  0  0  0  0  0  0  0  0
    6.1721   -8.2186   15.9886 N   0  0  0  0  0  0  0  0  0  0  0  0
   11.1764   -2.6600   19.5604 C   0  0  0  0  0  0  0  0  0  0  0  0
    9.5491   -0.6380   24.1912 C   0  0  0  0  0  0  0  0  0  0  0  0
    7.5337   -6.9256   16.9519 C   0  0  0  0  0  0  0  0  0  0  0  0
    9.6782    0.5671   23.5143 C   0  0  0  0  0  0  0  0  0  0  0  0
    8.4532    0.3482   26.0821 C   0  0  0  0  0  0  0  0  0  0  0  0
   10.4239   -1.7677   22.2230 N   0  0  0  0  0  0  0  0  0  0  0  0
    9.9468   -4.5953   20.1709 C   0  0  0  0  0  0  0  0  0  0  0  0
   10.0366   -3.0590   23.9864 N   0  0  0  0  0  0  0  0  0  0  0  0
    7.1191   -7.3636   15.7739 C   0  0  0  0  0  0  0  0  0  0  0  0
    5.9612   -8.3203   17.2732 N   0  0  0  0  0  0  0  0  0  0  0  0
    8.5296   -5.9814   17.1841 C   0  0  0  0  0  0  0  0  0  0  0  0
    9.1527   -5.2118   16.2116 C   0  0  0  0  0  0  0  0  0  0  0  0
   10.3364   -3.8368   22.9255 O   0  0  0  0  0  0  0  0  0  0  0  0
    9.6947   -4.8407   18.8534 C   0  0  0  0  0  0  0  0  0  0  0  0
    9.1596    1.7042   24.1381 C   0  0  0  0  0  0  0  0  0  0  0  0
   11.0456   -2.9774   18.2694 N   0  0  0  0  0  0  0  0  0  0  0  0
   10.4788   -3.0457   21.8593 C   0  0  0  0  0  0  0  0  0  0  0  0
    8.8693   -5.8099   18.4657 N   0  0  0  0  0  0  0  0  0  0  0  0
    8.9892   -0.7926   25.4573 C   0  0  0  0  0  0  0  0  0  0  0  0
   10.5677   -3.4462   20.5323 C   0  0  0  0  0  0  0  0  0  0  0  0
  1  8  1  0
  1 12  4  0
  1 14  4  0
  2  3  4  0
  2 18  4  0
  3 20  4  0
  3 22  4  0
  4 11  4  0
  4 21  4  0
  5  9  4  0
  5 16  4  0
  6 15  4  0
  6 16  4  0
  7 22  4  0
  7 26  4  0
  8 10  4  0
  8 25  4  0
  9 15  4  0
  9 17  1  0
 10 21  4  0
 11 25  4  0
 12 23  4  0
 13 20  4  0
 13 26  4  0
 14 19  4  0
 17 18  4  0
 17 24  4  0
 19 23  4  0
 20 24  4  0
 23 26  1  0
M  END
$$$$

 Created by Python create_sdf_string function

 26 30  0  0  0  0  0  0  0  0999 V2000
   10.0084   -1.8019   23.4945 C   0  0  0  0  0  0  0  0  0  0  0  0
   10.0005   -4.2520   16.5631 C   0  0  0  0  0  0  0  0  0  0  0  0
   10.2759   -4.0036   17.8845 C   0  0  0  0  0  0  0  0  0  0  0  0
    8.5652    1.5478   25.3778 N   0  0  0  0  0  0  0  0  0  0  0  0
    6.8048   -7.5457   17.8752 C   0  0  0  0  0  0  0  0  0  0  0  0
    6.1721   -8.2186   15.9886 N   0  0  0  0  0  0  0  0  0  0  0  0
   11.1764   -2.6600   19.5604 C   0  0  0  0  0  0  0  0  0  0  0  0
    9.5491   -0.6380   24.1912 C   0  0  0  0  0  0  0  0  0  0  0  0
    7.5337   -6.9256   16.9519 C   0  0  0  0  0  0  0  0  0  0  0  0
    9.6782    0.5671   23.5143 C   0  0  0  0  0  0  0  0  0  0  0  0
    8.4532    0.3482   26.0821 C   0  0  0  0  0  0  0  0  0  0  0  0
   10.4239   -1.7677   22.2230 N   0  0  0  0  0  0  0  0  0  0  0  0
    9.9468   -4.5953   20.1709 C   0  0  0  0  0  0  0  0  0  0  0  0
   10.0366   -3.0590   23.9864 N   0  0  0  0  0  0  0  0  0  0  0  0
    7.1191   -7.3636   15.7739 C   0  0  0  0  0  0  0  0  0  0  0  0
    5.9612   -8.3203   17.2732 N   0  0  0  0  0  0  0  0  0  0  0  0
    8.5296   -5.9814   17.1841 C   0  0  0  0  0  0  0  0  0  0  0  0
    9.1527   -5.2118   16.2116 C   0  0  0  0  0  0  0  0  0  0  0  0
   10.3364   -3.8368   22.9255 O   0  0  0  0  0  0  0  0  0  0  0  0
    9.6947   -4.8407   18.8534 C   0  0  0  0  0  0  0  0  0  0  0  0
    9.1596    1.7042   24.1381 C   0  0  0  0  0  0  0  0  0  0  0  0
   11.0456   -2.9774   18.2694 N   0  0  0  0  0  0  0  0  0  0  0  0
   10.4788   -3.0457   21.8593 C   0  0  0  0  0  0  0  0  0  0  0  0
    8.8693   -5.8099   18.4657 N   0  0  0  0  0  0  0  0  0  0  0  0
    8.9892   -0.7926   25.4573 C   0  0  0  0  0  0  0  0  0  0  0  0
   10.5677   -3.4462   20.5323 C   0  0  0  0  0  0  0  0  0  0  0  0
  1  8  1  0
  1 12  4  0
  1 14  4  0
  2  3  4  0
  2 18  4  0
  3 20  4  0
  3 22  4  0
  4 11  4  0
  4 21  4  0
  5  9  4  0
  5 16  4  0
  6 15  4  0
  6 16  4  0
  7 22  4  0
  7 26  4  0
  8 10  4  0
  8 25  4  0
  9 15  4  0
  9 17  1  0
 10 21  4  0
 11 25  4  0
 12 23  4  0
 13 20  4  0
 13 26  4  0
 14 19  4  0
 17 18  4  0
 17 24  4  0
 19 23  4  0
 20 24  4  0
 23 26  1  0
M  END
$$$$

 Created by Python create_sdf_string function

 26 30  0  0  0  0  0  0  0  0999 V2000
   10.0084   -1.8019   23.4945 C   0  0  0  0  0  0  0  0  0  0  0  0
   10.0005   -4.2520   16.5631 C   0  0  0  0  0  0  0  0  0  0  0  0
   10.2759   -4.0036   17.8845 C   0  0  0  0  0  0  0  0  0  0  0  0
    8.5652    1.5478   25.3778 N   0  0  0  0  0  0  0  0  0  0  0  0
    6.8048   -7.5457   17.8752 C   0  0  0  0  0  0  0  0  0  0  0  0
    6.1721   -8.2186   15.9886 N   0  0  0  0  0  0  0  0  0  0  0  0
   11.1764   -2.6600   19.5604 C   0  0  0  0  0  0  0  0  0  0  0  0
    9.5491   -0.6380   24.1912 C   0  0  0  0  0  0  0  0  0  0  0  0
    7.5337   -6.9256   16.9519 C   0  0  0  0  0  0  0  0  0  0  0  0
    9.6782    0.5671   23.5143 C   0  0  0  0  0  0  0  0  0  0  0  0
    8.4532    0.3482   26.0821 C   0  0  0  0  0  0  0  0  0  0  0  0
   10.4239   -1.7677   22.2230 N   0  0  0  0  0  0  0  0  0  0  0  0
    9.9468   -4.5953   20.1709 C   0  0  0  0  0  0  0  0  0  0  0  0
   10.0366   -3.0590   23.9864 N   0  0  0  0  0  0  0  0  0  0  0  0
    7.1191   -7.3636   15.7739 C   0  0  0  0  0  0  0  0  0  0  0  0
    5.9612   -8.3203   17.2732 N   0  0  0  0  0  0  0  0  0  0  0  0
    8.5296   -5.9814   17.1841 C   0  0  0  0  0  0  0  0  0  0  0  0
    9.1527   -5.2118   16.2116 C   0  0  0  0  0  0  0  0  0  0  0  0
   10.3364   -3.8368   22.9255 O   0  0  0  0  0  0  0  0  0  0  0  0
    9.6947   -4.8407   18.8534 C   0  0  0  0  0  0  0  0  0  0  0  0
    9.1596    1.7042   24.1381 C   0  0  0  0  0  0  0  0  0  0  0  0
   11.0456   -2.9774   18.2694 N   0  0  0  0  0  0  0  0  0  0  0  0
   10.4788   -3.0457   21.8593 C   0  0  0  0  0  0  0  0  0  0  0  0
    8.8693   -5.8099   18.4657 N   0  0  0  0  0  0  0  0  0  0  0  0
    8.9892   -0.7926   25.4573 C   0  0  0  0  0  0  0  0  0  0  0  0
   10.5677   -3.4462   20.5323 C   0  0  0  0  0  0  0  0  0  0  0  0
  1  8  1  0
  1 12  4  0
  1 14  4  0
  2  3  4  0
  2 18  4  0
  3 20  4  0
  3 22  4  0
  4 11  4  0
  4 21  4  0
  5  9  4  0
  5 16  4  0
  6 15  4  0
  6 16  4  0
  7 22  4  0
  7 26  4  0
  8 10  4  0
  8 25  4  0
  9 15  4  0
  9 17  1  0
 10 21  4  0
 11 25  4  0
 12 23  4  0
 13 20  4  0
 13 26  4  0
 14 19  4  0
 17 18  4  0
 17 24  4  0
 19 23  4  0
 20 24  4  0
 23 26  1  0
M  END
$$$$

 Created by Python create_sdf_string function

 26 30  0  0  0  0  0  0  0  0999 V2000
   10.0084   -1.8019   23.4945 C   0  0  0  0  0  0  0  0  0  0  0  0
   10.0005   -4.2520   16.5631 C   0  0  0  0  0  0  0  0  0  0  0  0
   10.2759   -4.0036   17.8845 C   0  0  0  0  0  0  0  0  0  0  0  0
    8.5652    1.5478   25.3778 N   0  0  0  0  0  0  0  0  0  0  0  0
    6.8048   -7.5457   17.8752 C   0  0  0  0  0  0  0  0  0  0  0  0
    6.1721   -8.2186   15.9886 N   0  0  0  0  0  0  0  0  0  0  0  0
   11.1764   -2.6600   19.5604 C   0  0  0  0  0  0  0  0  0  0  0  0
    9.5491   -0.6380   24.1912 C   0  0  0  0  0  0  0  0  0  0  0  0
    7.5337   -6.9256   16.9519 C   0  0  0  0  0  0  0  0  0  0  0  0
    9.6782    0.5671   23.5143 C   0  0  0  0  0  0  0  0  0  0  0  0
    8.4532    0.3482   26.0821 C   0  0  0  0  0  0  0  0  0  0  0  0
   10.4239   -1.7677   22.2230 N   0  0  0  0  0  0  0  0  0  0  0  0
    9.9468   -4.5953   20.1709 C   0  0  0  0  0  0  0  0  0  0  0  0
   10.0366   -3.0590   23.9864 N   0  0  0  0  0  0  0  0  0  0  0  0
    7.1191   -7.3636   15.7739 C   0  0  0  0  0  0  0  0  0  0  0  0
    5.9612   -8.3203   17.2732 N   0  0  0  0  0  0  0  0  0  0  0  0
    8.5296   -5.9814   17.1841 C   0  0  0  0  0  0  0  0  0  0  0  0
    9.1527   -5.2118   16.2116 C   0  0  0  0  0  0  0  0  0  0  0  0
   10.3364   -3.8368   22.9255 O   0  0  0  0  0  0  0  0  0  0  0  0
    9.6947   -4.8407   18.8534 C   0  0  0  0  0  0  0  0  0  0  0  0
    9.1596    1.7042   24.1381 C   0  0  0  0  0  0  0  0  0  0  0  0
   11.0456   -2.9774   18.2694 N   0  0  0  0  0  0  0  0  0  0  0  0
   10.4788   -3.0457   21.8593 C   0  0  0  0  0  0  0  0  0  0  0  0
    8.8693   -5.8099   18.4657 N   0  0  0  0  0  0  0  0  0  0  0  0
    8.9892   -0.7926   25.4573 C   0  0  0  0  0  0  0  0  0  0  0  0
   10.5677   -3.4462   20.5323 C   0  0  0  0  0  0  0  0  0  0  0  0
  1  8  1  0
  1 12  4  0
  1 14  4  0
  2  3  4  0
  2 18  4  0
  3 20  4  0
  3 22  4  0
  4 11  4  0
  4 21  4  0
  5  9  4  0
  5 16  4  0
  6 15  4  0
  6 16  4  0
  7 22  4  0
  7 26  4  0
  8 10  4  0
  8 25  4  0
  9 15  4  0
  9 17  1  0
 10 21  4  0
 11 25  4  0
 12 23  4  0
 13 20  4  0
 13 26  4  0
 14 19  4  0
 17 18  4  0
 17 24  4  0
 19 23  4  0
 20 24  4  0
 23 26  1  0
M  END
$$$$

 Created by Python create_sdf_string function

 26 30  0  0  0  0  0  0  0  0999 V2000
   10.0084   -1.8019   23.4945 C   0  0  0  0  0  0  0  0  0  0  0  0
   10.0005   -4.2520   16.5631 C   0  0  0  0  0  0  0  0  0  0  0  0
   10.2759   -4.0036   17.8845 C   0  0  0  0  0  0  0  0  0  0  0  0
    8.5652    1.5478   25.3778 N   0  0  0  0  0  0  0  0  0  0  0  0
    6.8048   -7.5457   17.8752 C   0  0  0  0  0  0  0  0  0  0  0  0
    6.1721   -8.2186   15.9886 N   0  0  0  0  0  0  0  0  0  0  0  0
   11.1764   -2.6600   19.5604 C   0  0  0  0  0  0  0  0  0  0  0  0
    9.5491   -0.6380   24.1912 C   0  0  0  0  0  0  0  0  0  0  0  0
    7.5337   -6.9256   16.9519 C   0  0  0  0  0  0  0  0  0  0  0  0
    9.6782    0.5671   23.5143 C   0  0  0  0  0  0  0  0  0  0  0  0
    8.4532    0.3482   26.0821 C   0  0  0  0  0  0  0  0  0  0  0  0
   10.4239   -1.7677   22.2230 N   0  0  0  0  0  0  0  0  0  0  0  0
    9.9468   -4.5953   20.1709 C   0  0  0  0  0  0  0  0  0  0  0  0
   10.0366   -3.0590   23.9864 N   0  0  0  0  0  0  0  0  0  0  0  0
    7.1191   -7.3636   15.7739 C   0  0  0  0  0  0  0  0  0  0  0  0
    5.9612   -8.3203   17.2732 N   0  0  0  0  0  0  0  0  0  0  0  0
    8.5296   -5.9814   17.1841 C   0  0  0  0  0  0  0  0  0  0  0  0
    9.1527   -5.2118   16.2116 C   0  0  0  0  0  0  0  0  0  0  0  0
   10.3364   -3.8368   22.9255 O   0  0  0  0  0  0  0  0  0  0  0  0
    9.6947   -4.8407   18.8534 C   0  0  0  0  0  0  0  0  0  0  0  0
    9.1596    1.7042   24.1381 C   0  0  0  0  0  0  0  0  0  0  0  0
   11.0456   -2.9774   18.2694 N   0  0  0  0  0  0  0  0  0  0  0  0
   10.4788   -3.0457   21.8593 C   0  0  0  0  0  0  0  0  0  0  0  0
    8.8693   -5.8099   18.4657 N   0  0  0  0  0  0  0  0  0  0  0  0
    8.9892   -0.7926   25.4573 C   0  0  0  0  0  0  0  0  0  0  0  0
   10.5677   -3.4462   20.5323 C   0  0  0  0  0  0  0  0  0  0  0  0
  1  8  1  0
  1 12  4  0
  1 14  4  0
  2  3  4  0
  2 18  4  0
  3 20  4  0
  3 22  4  0
  4 11  4  0
  4 21  4  0
  5  9  4  0
  5 16  4  0
  6 15  4  0
  6 16  4  0
  7 22  4  0
  7 26  4  0
  8 10  4  0
  8 25  4  0
  9 15  4  0
  9 17  1  0
 10 21  4  0
 11 25  4  0
 12 23  4  0
 13 20  4  0
 13 26  4  0
 14 19  4  0
 17 18  4  0
 17 24  4  0
 19 23  4  0
 20 24  4  0
 23 26  1  0
M  END
$$$$

 Created by Python create_sdf_string function

 26 30  0  0  0  0  0  0  0  0999 V2000
   10.0084   -1.8019   23.4945 C   0  0  0  0  0  0  0  0  0  0  0  0
   10.0005   -4.2520   16.5631 C   0  0  0  0  0  0  0  0  0  0  0  0
   10.2759   -4.0036   17.8845 C   0  0  0  0  0  0  0  0  0  0  0  0
    8.5652    1.5478   25.3778 N   0  0  0  0  0  0  0  0  0  0  0  0
    6.8048   -7.5457   17.8752 C   0  0  0  0  0  0  0  0  0  0  0  0
    6.1721   -8.2186   15.9886 N   0  0  0  0  0  0  0  0  0  0  0  0
   11.1764   -2.6600   19.5604 C   0  0  0  0  0  0  0  0  0  0  0  0
    9.5491   -0.6380   24.1912 C   0  0  0  0  0  0  0  0  0  0  0  0
    7.5337   -6.9256   16.9519 C   0  0  0  0  0  0  0  0  0  0  0  0
    9.6782    0.5671   23.5143 C   0  0  0  0  0  0  0  0  0  0  0  0
    8.4532    0.3482   26.0821 C   0  0  0  0  0  0  0  0  0  0  0  0
   10.4239   -1.7677   22.2230 N   0  0  0  0  0  0  0  0  0  0  0  0
    9.9468   -4.5953   20.1709 C   0  0  0  0  0  0  0  0  0  0  0  0
   10.0366   -3.0590   23.9864 N   0  0  0  0  0  0  0  0  0  0  0  0
    7.1191   -7.3636   15.7739 C   0  0  0  0  0  0  0  0  0  0  0  0
    5.9612   -8.3203   17.2732 N   0  0  0  0  0  0  0  0  0  0  0  0
    8.5296   -5.9814   17.1841 C   0  0  0  0  0  0  0  0  0  0  0  0
    9.1527   -5.2118   16.2116 C   0  0  0  0  0  0  0  0  0  0  0  0
   10.3364   -3.8368   22.9255 O   0  0  0  0  0  0  0  0  0  0  0  0
    9.6947   -4.8407   18.8534 C   0  0  0  0  0  0  0  0  0  0  0  0
    9.1596    1.7042   24.1381 C   0  0  0  0  0  0  0  0  0  0  0  0
   11.0456   -2.9774   18.2694 N   0  0  0  0  0  0  0  0  0  0  0  0
   10.4788   -3.0457   21.8593 C   0  0  0  0  0  0  0  0  0  0  0  0
    8.8693   -5.8099   18.4657 N   0  0  0  0  0  0  0  0  0  0  0  0
    8.9892   -0.7926   25.4573 C   0  0  0  0  0  0  0  0  0  0  0  0
   10.5677   -3.4462   20.5323 C   0  0  0  0  0  0  0  0  0  0  0  0
  1  8  1  0
  1 12  4  0
  1 14  4  0
  2  3  4  0
  2 18  4  0
  3 20  4  0
  3 22  4  0
  4 11  4  0
  4 21  4  0
  5  9  4  0
  5 16  4  0
  6 15  4  0
  6 16  4  0
  7 22  4  0
  7 26  4  0
  8 10  4  0
  8 25  4  0
  9 15  4  0
  9 17  1  0
 10 21  4  0
 11 25  4  0
 12 23  4  0
 13 20  4  0
 13 26  4  0
 14 19  4  0
 17 18  4  0
 17 24  4  0
 19 23  4  0
 20 24  4  0
 23 26  1  0
M  END
$$$$

 Created by Python create_sdf_string function

 26 30  0  0  0  0  0  0  0  0999 V2000
   10.0084   -1.8019   23.4945 C   0  0  0  0  0  0  0  0  0  0  0  0
   10.0005   -4.2520   16.5631 C   0  0  0  0  0  0  0  0  0  0  0  0
   10.2759   -4.0036   17.8845 C   0  0  0  0  0  0  0  0  0  0  0  0
    8.5652    1.5478   25.3778 N   0  0  0  0  0  0  0  0  0  0  0  0
    6.8048   -7.5457   17.8752 C   0  0  0  0  0  0  0  0  0  0  0  0
    6.1721   -8.2186   15.9886 N   0  0  0  0  0  0  0  0  0  0  0  0
   11.1764   -2.6600   19.5604 C   0  0  0  0  0  0  0  0  0  0  0  0
    9.5491   -0.6380   24.1912 C   0  0  0  0  0  0  0  0  0  0  0  0
    7.5337   -6.9256   16.9519 C   0  0  0  0  0  0  0  0  0  0  0  0
    9.6782    0.5671   23.5143 C   0  0  0  0  0  0  0  0  0  0  0  0
    8.4532    0.3482   26.0821 C   0  0  0  0  0  0  0  0  0  0  0  0
   10.4239   -1.7677   22.2230 N   0  0  0  0  0  0  0  0  0  0  0  0
    9.9468   -4.5953   20.1709 C   0  0  0  0  0  0  0  0  0  0  0  0
   10.0366   -3.0590   23.9864 N   0  0  0  0  0  0  0  0  0  0  0  0
    7.1191   -7.3636   15.7739 C   0  0  0  0  0  0  0  0  0  0  0  0
    5.9612   -8.3203   17.2732 N   0  0  0  0  0  0  0  0  0  0  0  0
    8.5296   -5.9814   17.1841 C   0  0  0  0  0  0  0  0  0  0  0  0
    9.1527   -5.2118   16.2116 C   0  0  0  0  0  0  0  0  0  0  0  0
   10.3364   -3.8368   22.9255 O   0  0  0  0  0  0  0  0  0  0  0  0
    9.6947   -4.8407   18.8534 C   0  0  0  0  0  0  0  0  0  0  0  0
    9.1596    1.7042   24.1381 C   0  0  0  0  0  0  0  0  0  0  0  0
   11.0456   -2.9774   18.2694 N   0  0  0  0  0  0  0  0  0  0  0  0
   10.4788   -3.0457   21.8593 C   0  0  0  0  0  0  0  0  0  0  0  0
    8.8693   -5.8099   18.4657 N   0  0  0  0  0  0  0  0  0  0  0  0
    8.9892   -0.7926   25.4573 C   0  0  0  0  0  0  0  0  0  0  0  0
   10.5677   -3.4462   20.5323 C   0  0  0  0  0  0  0  0  0  0  0  0
  1  8  1  0
  1 12  4  0
  1 14  4  0
  2  3  4  0
  2 18  4  0
  3 20  4  0
  3 22  4  0
  4 11  4  0
  4 21  4  0
  5  9  4  0
  5 16  4  0
  6 15  4  0
  6 16  4  0
  7 22  4  0
  7 26  4  0
  8 10  4  0
  8 25  4  0
  9 15  4  0
  9 17  1  0
 10 21  4  0
 11 25  4  0
 12 23  4  0
 13 20  4  0
 13 26  4  0
 14 19  4  0
 17 18  4  0
 17 24  4  0
 19 23  4  0
 20 24  4  0
 23 26  1  0
M  END
$$$$

 Created by Python create_sdf_string function

 26 30  0  0  0  0  0  0  0  0999 V2000
   10.0084   -1.8019   23.4945 C   0  0  0  0  0  0  0  0  0  0  0  0
   10.0005   -4.2520   16.5631 C   0  0  0  0  0  0  0  0  0  0  0  0
   10.2759   -4.0036   17.8845 C   0  0  0  0  0  0  0  0  0  0  0  0
    8.5652    1.5478   25.3778 N   0  0  0  0  0  0  0  0  0  0  0  0
    6.8048   -7.5457   17.8752 C   0  0  0  0  0  0  0  0  0  0  0  0
    6.1721   -8.2186   15.9886 N   0  0  0  0  0  0  0  0  0  0  0  0
   11.1764   -2.6600   19.5604 C   0  0  0  0  0  0  0  0  0  0  0  0
    9.5491   -0.6380   24.1912 C   0  0  0  0  0  0  0  0  0  0  0  0
    7.5337   -6.9256   16.9519 C   0  0  0  0  0  0  0  0  0  0  0  0
    9.6782    0.5671   23.5143 C   0  0  0  0  0  0  0  0  0  0  0  0
    8.4532    0.3482   26.0821 C   0  0  0  0  0  0  0  0  0  0  0  0
   10.4239   -1.7677   22.2230 N   0  0  0  0  0  0  0  0  0  0  0  0
    9.9468   -4.5953   20.1709 C   0  0  0  0  0  0  0  0  0  0  0  0
   10.0366   -3.0590   23.9864 N   0  0  0  0  0  0  0  0  0  0  0  0
    7.1191   -7.3636   15.7739 C   0  0  0  0  0  0  0  0  0  0  0  0
    5.9612   -8.3203   17.2732 N   0  0  0  0  0  0  0  0  0  0  0  0
    8.5296   -5.9814   17.1841 C   0  0  0  0  0  0  0  0  0  0  0  0
    9.1527   -5.2118   16.2116 C   0  0  0  0  0  0  0  0  0  0  0  0
   10.3364   -3.8368   22.9255 O   0  0  0  0  0  0  0  0  0  0  0  0
    9.6947   -4.8407   18.8534 C   0  0  0  0  0  0  0  0  0  0  0  0
    9.1596    1.7042   24.1381 C   0  0  0  0  0  0  0  0  0  0  0  0
   11.0456   -2.9774   18.2694 N   0  0  0  0  0  0  0  0  0  0  0  0
   10.4788   -3.0457   21.8593 C   0  0  0  0  0  0  0  0  0  0  0  0
    8.8693   -5.8099   18.4657 N   0  0  0  0  0  0  0  0  0  0  0  0
    8.9892   -0.7926   25.4573 C   0  0  0  0  0  0  0  0  0  0  0  0
   10.5677   -3.4462   20.5323 C   0  0  0  0  0  0  0  0  0  0  0  0
  1  8  1  0
  1 12  4  0
  1 14  4  0
  2  3  4  0
  2 18  4  0
  3 20  4  0
  3 22  4  0
  4 11  4  0
  4 21  4  0
  5  9  4  0
  5 16  4  0
  6 15  4  0
  6 16  4  0
  7 22  4  0
  7 26  4  0
  8 10  4  0
  8 25  4  0
  9 15  4  0
  9 17  1  0
 10 21  4  0
 11 25  4  0
 12 23  4  0
 13 20  4  0
 13 26  4  0
 14 19  4  0
 17 18  4  0
 17 24  4  0
 19 23  4  0
 20 24  4  0
 23 26  1  0
M  END
$$$$

 Created by Python create_sdf_string function

 26 30  0  0  0  0  0  0  0  0999 V2000
   10.0084   -1.8019   23.4945 C   0  0  0  0  0  0  0  0  0  0  0  0
   10.0005   -4.2520   16.5631 C   0  0  0  0  0  0  0  0  0  0  0  0
   10.2759   -4.0036   17.8845 C   0  0  0  0  0  0  0  0  0  0  0  0
    8.5652    1.5478   25.3778 N   0  0  0  0  0  0  0  0  0  0  0  0
    6.8048   -7.5457   17.8752 C   0  0  0  0  0  0  0  0  0  0  0  0
    6.1721   -8.2186   15.9886 N   0  0  0  0  0  0  0  0  0  0  0  0
   11.1764   -2.6600   19.5604 C   0  0  0  0  0  0  0  0  0  0  0  0
    9.5491   -0.6380   24.1912 C   0  0  0  0  0  0  0  0  0  0  0  0
    7.5337   -6.9256   16.9519 C   0  0  0  0  0  0  0  0  0  0  0  0
    9.6782    0.5671   23.5143 C   0  0  0  0  0  0  0  0  0  0  0  0
    8.4532    0.3482   26.0821 C   0  0  0  0  0  0  0  0  0  0  0  0
   10.4239   -1.7677   22.2230 N   0  0  0  0  0  0  0  0  0  0  0  0
    9.9468   -4.5953   20.1709 C   0  0  0  0  0  0  0  0  0  0  0  0
   10.0366   -3.0590   23.9864 N   0  0  0  0  0  0  0  0  0  0  0  0
    7.1191   -7.3636   15.7739 C   0  0  0  0  0  0  0  0  0  0  0  0
    5.9612   -8.3203   17.2732 N   0  0  0  0  0  0  0  0  0  0  0  0
    8.5296   -5.9814   17.1841 C   0  0  0  0  0  0  0  0  0  0  0  0
    9.1527   -5.2118   16.2116 C   0  0  0  0  0  0  0  0  0  0  0  0
   10.3364   -3.8368   22.9255 O   0  0  0  0  0  0  0  0  0  0  0  0
    9.6947   -4.8407   18.8534 C   0  0  0  0  0  0  0  0  0  0  0  0
    9.1596    1.7042   24.1381 C   0  0  0  0  0  0  0  0  0  0  0  0
   11.0456   -2.9774   18.2694 N   0  0  0  0  0  0  0  0  0  0  0  0
   10.4788   -3.0457   21.8593 C   0  0  0  0  0  0  0  0  0  0  0  0
    8.8693   -5.8099   18.4657 N   0  0  0  0  0  0  0  0  0  0  0  0
    8.9892   -0.7926   25.4573 C   0  0  0  0  0  0  0  0  0  0  0  0
   10.5677   -3.4462   20.5323 C   0  0  0  0  0  0  0  0  0  0  0  0
  1  8  1  0
  1 12  4  0
  1 14  4  0
  2  3  4  0
  2 18  4  0
  3 20  4  0
  3 22  4  0
  4 11  4  0
  4 21  4  0
  5  9  4  0
  5 16  4  0
  6 15  4  0
  6 16  4  0
  7 22  4  0
  7 26  4  0
  8 10  4  0
  8 25  4  0
  9 15  4  0
  9 17  1  0
 10 21  4  0
 11 25  4  0
 12 23  4  0
 13 20  4  0
 13 26  4  0
 14 19  4  0
 17 18  4  0
 17 24  4  0
 19 23  4  0
 20 24  4  0
 23 26  1  0
M  END
$$$$

 Created by Python create_sdf_string function

 26 30  0  0  0  0  0  0  0  0999 V2000
   10.0084   -1.8019   23.4945 C   0  0  0  0  0  0  0  0  0  0  0  0
   10.0005   -4.2520   16.5631 C   0  0  0  0  0  0  0  0  0  0  0  0
   10.2759   -4.0036   17.8845 C   0  0  0  0  0  0  0  0  0  0  0  0
    8.5652    1.5478   25.3778 N   0  0  0  0  0  0  0  0  0  0  0  0
    6.8048   -7.5457   17.8752 C   0  0  0  0  0  0  0  0  0  0  0  0
    6.1721   -8.2186   15.9886 N   0  0  0  0  0  0  0  0  0  0  0  0
   11.1764   -2.6600   19.5604 C   0  0  0  0  0  0  0  0  0  0  0  0
    9.5491   -0.6380   24.1912 C   0  0  0  0  0  0  0  0  0  0  0  0
    7.5337   -6.9256   16.9519 C   0  0  0  0  0  0  0  0  0  0  0  0
    9.6782    0.5671   23.5143 C   0  0  0  0  0  0  0  0  0  0  0  0
    8.4532    0.3482   26.0821 C   0  0  0  0  0  0  0  0  0  0  0  0
   10.4239   -1.7677   22.2230 N   0  0  0  0  0  0  0  0  0  0  0  0
    9.9468   -4.5953   20.1709 C   0  0  0  0  0  0  0  0  0  0  0  0
   10.0366   -3.0590   23.9864 N   0  0  0  0  0  0  0  0  0  0  0  0
    7.1191   -7.3636   15.7739 C   0  0  0  0  0  0  0  0  0  0  0  0
    5.9612   -8.3203   17.2732 N   0  0  0  0  0  0  0  0  0  0  0  0
    8.5296   -5.9814   17.1841 C   0  0  0  0  0  0  0  0  0  0  0  0
    9.1527   -5.2118   16.2116 C   0  0  0  0  0  0  0  0  0  0  0  0
   10.3364   -3.8368   22.9255 O   0  0  0  0  0  0  0  0  0  0  0  0
    9.6947   -4.8407   18.8534 C   0  0  0  0  0  0  0  0  0  0  0  0
    9.1596    1.7042   24.1381 C   0  0  0  0  0  0  0  0  0  0  0  0
   11.0456   -2.9774   18.2694 N   0  0  0  0  0  0  0  0  0  0  0  0
   10.4788   -3.0457   21.8593 C   0  0  0  0  0  0  0  0  0  0  0  0
    8.8693   -5.8099   18.4657 N   0  0  0  0  0  0  0  0  0  0  0  0
    8.9892   -0.7926   25.4573 C   0  0  0  0  0  0  0  0  0  0  0  0
   10.5677   -3.4462   20.5323 C   0  0  0  0  0  0  0  0  0  0  0  0
  1  8  1  0
  1 12  4  0
  1 14  4  0
  2  3  4  0
  2 18  4  0
  3 20  4  0
  3 22  4  0
  4 11  4  0
  4 21  4  0
  5  9  4  0
  5 16  4  0
  6 15  4  0
  6 16  4  0
  7 22  4  0
  7 26  4  0
  8 10  4  0
  8 25  4  0
  9 15  4  0
  9 17  1  0
 10 21  4  0
 11 25  4  0
 12 23  4  0
 13 20  4  0
 13 26  4  0
 14 19  4  0
 17 18  4  0
 17 24  4  0
 19 23  4  0
 20 24  4  0
 23 26  1  0
M  END
$$$$

 Created by Python create_sdf_string function

 26 30  0  0  0  0  0  0  0  0999 V2000
   10.0084   -1.8019   23.4945 C   0  0  0  0  0  0  0  0  0  0  0  0
   10.0005   -4.2520   16.5631 C   0  0  0  0  0  0  0  0  0  0  0  0
   10.2759   -4.0036   17.8845 C   0  0  0  0  0  0  0  0  0  0  0  0
    8.5652    1.5478   25.3778 N   0  0  0  0  0  0  0  0  0  0  0  0
    6.8048   -7.5457   17.8752 C   0  0  0  0  0  0  0  0  0  0  0  0
    6.1721   -8.2186   15.9886 N   0  0  0  0  0  0  0  0  0  0  0  0
   11.1764   -2.6600   19.5604 C   0  0  0  0  0  0  0  0  0  0  0  0
    9.5491   -0.6380   24.1912 C   0  0  0  0  0  0  0  0  0  0  0  0
    7.5337   -6.9256   16.9519 C   0  0  0  0  0  0  0  0  0  0  0  0
    9.6782    0.5671   23.5143 C   0  0  0  0  0  0  0  0  0  0  0  0
    8.4532    0.3482   26.0821 C   0  0  0  0  0  0  0  0  0  0  0  0
   10.4239   -1.7677   22.2230 N   0  0  0  0  0  0  0  0  0  0  0  0
    9.9468   -4.5953   20.1709 C   0  0  0  0  0  0  0  0  0  0  0  0
   10.0366   -3.0590   23.9864 N   0  0  0  0  0  0  0  0  0  0  0  0
    7.1191   -7.3636   15.7739 C   0  0  0  0  0  0  0  0  0  0  0  0
    5.9612   -8.3203   17.2732 N   0  0  0  0  0  0  0  0  0  0  0  0
    8.5296   -5.9814   17.1841 C   0  0  0  0  0  0  0  0  0  0  0  0
    9.1527   -5.2118   16.2116 C   0  0  0  0  0  0  0  0  0  0  0  0
   10.3364   -3.8368   22.9255 O   0  0  0  0  0  0  0  0  0  0  0  0
    9.6947   -4.8407   18.8534 C   0  0  0  0  0  0  0  0  0  0  0  0
    9.1596    1.7042   24.1381 C   0  0  0  0  0  0  0  0  0  0  0  0
   11.0456   -2.9774   18.2694 N   0  0  0  0  0  0  0  0  0  0  0  0
   10.4788   -3.0457   21.8593 C   0  0  0  0  0  0  0  0  0  0  0  0
    8.8693   -5.8099   18.4657 N   0  0  0  0  0  0  0  0  0  0  0  0
    8.9892   -0.7926   25.4573 C   0  0  0  0  0  0  0  0  0  0  0  0
   10.5677   -3.4462   20.5323 C   0  0  0  0  0  0  0  0  0  0  0  0
  1  8  1  0
  1 12  4  0
  1 14  4  0
  2  3  4  0
  2 18  4  0
  3 20  4  0
  3 22  4  0
  4 11  4  0
  4 21  4  0
  5  9  4  0
  5 16  4  0
  6 15  4  0
  6 16  4  0
  7 22  4  0
  7 26  4  0
  8 10  4  0
  8 25  4  0
  9 15  4  0
  9 17  1  0
 10 21  4  0
 11 25  4  0
 12 23  4  0
 13 20  4  0
 13 26  4  0
 14 19  4  0
 17 18  4  0
 17 24  4  0
 19 23  4  0
 20 24  4  0
 23 26  1  0
M  END
$$$$

 Created by Python create_sdf_string function

 26 30  0  0  0  0  0  0  0  0999 V2000
   10.0084   -1.8019   23.4945 C   0  0  0  0  0  0  0  0  0  0  0  0
   10.0005   -4.2520   16.5631 C   0  0  0  0  0  0  0  0  0  0  0  0
   10.2759   -4.0036   17.8845 C   0  0  0  0  0  0  0  0  0  0  0  0
    8.5652    1.5478   25.3778 N   0  0  0  0  0  0  0  0  0  0  0  0
    6.8048   -7.5457   17.8752 C   0  0  0  0  0  0  0  0  0  0  0  0
    6.1721   -8.2186   15.9886 N   0  0  0  0  0  0  0  0  0  0  0  0
   11.1764   -2.6600   19.5604 C   0  0  0  0  0  0  0  0  0  0  0  0
    9.5491   -0.6380   24.1912 C   0  0  0  0  0  0  0  0  0  0  0  0
    7.5337   -6.9256   16.9519 C   0  0  0  0  0  0  0  0  0  0  0  0
    9.6782    0.5671   23.5143 C   0  0  0  0  0  0  0  0  0  0  0  0
    8.4532    0.3482   26.0821 C   0  0  0  0  0  0  0  0  0  0  0  0
   10.4239   -1.7677   22.2230 N   0  0  0  0  0  0  0  0  0  0  0  0
    9.9468   -4.5953   20.1709 C   0  0  0  0  0  0  0  0  0  0  0  0
   10.0366   -3.0590   23.9864 N   0  0  0  0  0  0  0  0  0  0  0  0
    7.1191   -7.3636   15.7739 C   0  0  0  0  0  0  0  0  0  0  0  0
    5.9612   -8.3203   17.2732 N   0  0  0  0  0  0  0  0  0  0  0  0
    8.5296   -5.9814   17.1841 C   0  0  0  0  0  0  0  0  0  0  0  0
    9.1527   -5.2118   16.2116 C   0  0  0  0  0  0  0  0  0  0  0  0
   10.3364   -3.8368   22.9255 O   0  0  0  0  0  0  0  0  0  0  0  0
    9.6947   -4.8407   18.8534 C   0  0  0  0  0  0  0  0  0  0  0  0
    9.1596    1.7042   24.1381 C   0  0  0  0  0  0  0  0  0  0  0  0
   11.0456   -2.9774   18.2694 N   0  0  0  0  0  0  0  0  0  0  0  0
   10.4788   -3.0457   21.8593 C   0  0  0  0  0  0  0  0  0  0  0  0
    8.8693   -5.8099   18.4657 N   0  0  0  0  0  0  0  0  0  0  0  0
    8.9892   -0.7926   25.4573 C   0  0  0  0  0  0  0  0  0  0  0  0
   10.5677   -3.4462   20.5323 C   0  0  0  0  0  0  0  0  0  0  0  0
  1  8  1  0
  1 12  4  0
  1 14  4  0
  2  3  4  0
  2 18  4  0
  3 20  4  0
  3 22  4  0
  4 11  4  0
  4 21  4  0
  5  9  4  0
  5 16  4  0
  6 15  4  0
  6 16  4  0
  7 22  4  0
  7 26  4  0
  8 10  4  0
  8 25  4  0
  9 15  4  0
  9 17  1  0
 10 21  4  0
 11 25  4  0
 12 23  4  0
 13 20  4  0
 13 26  4  0
 14 19  4  0
 17 18  4  0
 17 24  4  0
 19 23  4  0
 20 24  4  0
 23 26  1  0
M  END
$$$$

 Created by Python create_sdf_string function

 26 30  0  0  0  0  0  0  0  0999 V2000
   10.0084   -1.8019   23.4945 C   0  0  0  0  0  0  0  0  0  0  0  0
   10.0005   -4.2520   16.5631 C   0  0  0  0  0  0  0  0  0  0  0  0
   10.2759   -4.0036   17.8845 C   0  0  0  0  0  0  0  0  0  0  0  0
    8.5652    1.5478   25.3778 N   0  0  0  0  0  0  0  0  0  0  0  0
    6.8048   -7.5457   17.8752 C   0  0  0  0  0  0  0  0  0  0  0  0
    6.1721   -8.2186   15.9886 N   0  0  0  0  0  0  0  0  0  0  0  0
   11.1764   -2.6600   19.5604 C   0  0  0  0  0  0  0  0  0  0  0  0
    9.5491   -0.6380   24.1912 C   0  0  0  0  0  0  0  0  0  0  0  0
    7.5337   -6.9256   16.9519 C   0  0  0  0  0  0  0  0  0  0  0  0
    9.6782    0.5671   23.5143 C   0  0  0  0  0  0  0  0  0  0  0  0
    8.4532    0.3482   26.0821 C   0  0  0  0  0  0  0  0  0  0  0  0
   10.4239   -1.7677   22.2230 N   0  0  0  0  0  0  0  0  0  0  0  0
    9.9468   -4.5953   20.1709 C   0  0  0  0  0  0  0  0  0  0  0  0
   10.0366   -3.0590   23.9864 N   0  0  0  0  0  0  0  0  0  0  0  0
    7.1191   -7.3636   15.7739 C   0  0  0  0  0  0  0  0  0  0  0  0
    5.9612   -8.3203   17.2732 N   0  0  0  0  0  0  0  0  0  0  0  0
    8.5296   -5.9814   17.1841 C   0  0  0  0  0  0  0  0  0  0  0  0
    9.1527   -5.2118   16.2116 C   0  0  0  0  0  0  0  0  0  0  0  0
   10.3364   -3.8368   22.9255 O   0  0  0  0  0  0  0  0  0  0  0  0
    9.6947   -4.8407   18.8534 C   0  0  0  0  0  0  0  0  0  0  0  0
    9.1596    1.7042   24.1381 C   0  0  0  0  0  0  0  0  0  0  0  0
   11.0456   -2.9774   18.2694 N   0  0  0  0  0  0  0  0  0  0  0  0
   10.4788   -3.0457   21.8593 C   0  0  0  0  0  0  0  0  0  0  0  0
    8.8693   -5.8099   18.4657 N   0  0  0  0  0  0  0  0  0  0  0  0
    8.9892   -0.7926   25.4573 C   0  0  0  0  0  0  0  0  0  0  0  0
   10.5677   -3.4462   20.5323 C   0  0  0  0  0  0  0  0  0  0  0  0
  1  8  1  0
  1 12  4  0
  1 14  4  0
  2  3  4  0
  2 18  4  0
  3 20  4  0
  3 22  4  0
  4 11  4  0
  4 21  4  0
  5  9  4  0
  5 16  4  0
  6 15  4  0
  6 16  4  0
  7 22  4  0
  7 26  4  0
  8 10  4  0
  8 25  4  0
  9 15  4  0
  9 17  1  0
 10 21  4  0
 11 25  4  0
 12 23  4  0
 13 20  4  0
 13 26  4  0
 14 19  4  0
 17 18  4  0
 17 24  4  0
 19 23  4  0
 20 24  4  0
 23 26  1  0
M  END
$$$$

 Created by Python create_sdf_string function

 26 30  0  0  0  0  0  0  0  0999 V2000
   10.0084   -1.8019   23.4945 C   0  0  0  0  0  0  0  0  0  0  0  0
   10.0005   -4.2520   16.5631 C   0  0  0  0  0  0  0  0  0  0  0  0
   10.2759   -4.0036   17.8845 C   0  0  0  0  0  0  0  0  0  0  0  0
    8.5652    1.5478   25.3778 N   0  0  0  0  0  0  0  0  0  0  0  0
    6.8048   -7.5457   17.8752 C   0  0  0  0  0  0  0  0  0  0  0  0
    6.1721   -8.2186   15.9886 N   0  0  0  0  0  0  0  0  0  0  0  0
   11.1764   -2.6600   19.5604 C   0  0  0  0  0  0  0  0  0  0  0  0
    9.5491   -0.6380   24.1912 C   0  0  0  0  0  0  0  0  0  0  0  0
    7.5337   -6.9256   16.9519 C   0  0  0  0  0  0  0  0  0  0  0  0
    9.6782    0.5671   23.5143 C   0  0  0  0  0  0  0  0  0  0  0  0
    8.4532    0.3482   26.0821 C   0  0  0  0  0  0  0  0  0  0  0  0
   10.4239   -1.7677   22.2230 N   0  0  0  0  0  0  0  0  0  0  0  0
    9.9468   -4.5953   20.1709 C   0  0  0  0  0  0  0  0  0  0  0  0
   10.0366   -3.0590   23.9864 N   0  0  0  0  0  0  0  0  0  0  0  0
    7.1191   -7.3636   15.7739 C   0  0  0  0  0  0  0  0  0  0  0  0
    5.9612   -8.3203   17.2732 N   0  0  0  0  0  0  0  0  0  0  0  0
    8.5296   -5.9814   17.1841 C   0  0  0  0  0  0  0  0  0  0  0  0
    9.1527   -5.2118   16.2116 C   0  0  0  0  0  0  0  0  0  0  0  0
   10.3364   -3.8368   22.9255 O   0  0  0  0  0  0  0  0  0  0  0  0
    9.6947   -4.8407   18.8534 C   0  0  0  0  0  0  0  0  0  0  0  0
    9.1596    1.7042   24.1381 C   0  0  0  0  0  0  0  0  0  0  0  0
   11.0456   -2.9774   18.2694 N   0  0  0  0  0  0  0  0  0  0  0  0
   10.4788   -3.0457   21.8593 C   0  0  0  0  0  0  0  0  0  0  0  0
    8.8693   -5.8099   18.4657 N   0  0  0  0  0  0  0  0  0  0  0  0
    8.9892   -0.7926   25.4573 C   0  0  0  0  0  0  0  0  0  0  0  0
   10.5677   -3.4462   20.5323 C   0  0  0  0  0  0  0  0  0  0  0  0
  1  8  1  0
  1 12  4  0
  1 14  4  0
  2  3  4  0
  2 18  4  0
  3 20  4  0
  3 22  4  0
  4 11  4  0
  4 21  4  0
  5  9  4  0
  5 16  4  0
  6 15  4  0
  6 16  4  0
  7 22  4  0
  7 26  4  0
  8 10  4  0
  8 25  4  0
  9 15  4  0
  9 17  1  0
 10 21  4  0
 11 25  4  0
 12 23  4  0
 13 20  4  0
 13 26  4  0
 14 19  4  0
 17 18  4  0
 17 24  4  0
 19 23  4  0
 20 24  4  0
 23 26  1  0
M  END
$$$$

 Created by Python create_sdf_string function

 26 30  0  0  0  0  0  0  0  0999 V2000
   10.0084   -1.8019   23.4945 C   0  0  0  0  0  0  0  0  0  0  0  0
   10.0005   -4.2520   16.5631 C   0  0  0  0  0  0  0  0  0  0  0  0
   10.2759   -4.0036   17.8845 C   0  0  0  0  0  0  0  0  0  0  0  0
    8.5652    1.5478   25.3778 N   0  0  0  0  0  0  0  0  0  0  0  0
    6.8048   -7.5457   17.8752 C   0  0  0  0  0  0  0  0  0  0  0  0
    6.1721   -8.2186   15.9886 N   0  0  0  0  0  0  0  0  0  0  0  0
   11.1764   -2.6600   19.5604 C   0  0  0  0  0  0  0  0  0  0  0  0
    9.5491   -0.6380   24.1912 C   0  0  0  0  0  0  0  0  0  0  0  0
    7.5337   -6.9256   16.9519 C   0  0  0  0  0  0  0  0  0  0  0  0
    9.6782    0.5671   23.5143 C   0  0  0  0  0  0  0  0  0  0  0  0
    8.4532    0.3482   26.0821 C   0  0  0  0  0  0  0  0  0  0  0  0
   10.4239   -1.7677   22.2230 N   0  0  0  0  0  0  0  0  0  0  0  0
    9.9468   -4.5953   20.1709 C   0  0  0  0  0  0  0  0  0  0  0  0
   10.0366   -3.0590   23.9864 N   0  0  0  0  0  0  0  0  0  0  0  0
    7.1191   -7.3636   15.7739 C   0  0  0  0  0  0  0  0  0  0  0  0
    5.9612   -8.3203   17.2732 N   0  0  0  0  0  0  0  0  0  0  0  0
    8.5296   -5.9814   17.1841 C   0  0  0  0  0  0  0  0  0  0  0  0
    9.1527   -5.2118   16.2116 C   0  0  0  0  0  0  0  0  0  0  0  0
   10.3364   -3.8368   22.9255 O   0  0  0  0  0  0  0  0  0  0  0  0
    9.6947   -4.8407   18.8534 C   0  0  0  0  0  0  0  0  0  0  0  0
    9.1596    1.7042   24.1381 C   0  0  0  0  0  0  0  0  0  0  0  0
   11.0456   -2.9774   18.2694 N   0  0  0  0  0  0  0  0  0  0  0  0
   10.4788   -3.0457   21.8593 C   0  0  0  0  0  0  0  0  0  0  0  0
    8.8693   -5.8099   18.4657 N   0  0  0  0  0  0  0  0  0  0  0  0
    8.9892   -0.7926   25.4573 C   0  0  0  0  0  0  0  0  0  0  0  0
   10.5677   -3.4462   20.5323 C   0  0  0  0  0  0  0  0  0  0  0  0
  1  8  1  0
  1 12  4  0
  1 14  4  0
  2  3  4  0
  2 18  4  0
  3 20  4  0
  3 22  4  0
  4 11  4  0
  4 21  4  0
  5  9  4  0
  5 16  4  0
  6 15  4  0
  6 16  4  0
  7 22  4  0
  7 26  4  0
  8 10  4  0
  8 25  4  0
  9 15  4  0
  9 17  1  0
 10 21  4  0
 11 25  4  0
 12 23  4  0
 13 20  4  0
 13 26  4  0
 14 19  4  0
 17 18  4  0
 17 24  4  0
 19 23  4  0
 20 24  4  0
 23 26  1  0
M  END
$$$$

 Created by Python create_sdf_string function

 26 30  0  0  0  0  0  0  0  0999 V2000
   10.0084   -1.8019   23.4945 C   0  0  0  0  0  0  0  0  0  0  0  0
   10.0005   -4.2520   16.5631 C   0  0  0  0  0  0  0  0  0  0  0  0
   10.2759   -4.0036   17.8845 C   0  0  0  0  0  0  0  0  0  0  0  0
    8.5652    1.5478   25.3778 N   0  0  0  0  0  0  0  0  0  0  0  0
    6.8048   -7.5457   17.8752 C   0  0  0  0  0  0  0  0  0  0  0  0
    6.1721   -8.2186   15.9886 N   0  0  0  0  0  0  0  0  0  0  0  0
   11.1764   -2.6600   19.5604 C   0  0  0  0  0  0  0  0  0  0  0  0
    9.5491   -0.6380   24.1912 C   0  0  0  0  0  0  0  0  0  0  0  0
    7.5337   -6.9256   16.9519 C   0  0  0  0  0  0  0  0  0  0  0  0
    9.6782    0.5671   23.5143 C   0  0  0  0  0  0  0  0  0  0  0  0
    8.4532    0.3482   26.0821 C   0  0  0  0  0  0  0  0  0  0  0  0
   10.4239   -1.7677   22.2230 N   0  0  0  0  0  0  0  0  0  0  0  0
    9.9468   -4.5953   20.1709 C   0  0  0  0  0  0  0  0  0  0  0  0
   10.0366   -3.0590   23.9864 N   0  0  0  0  0  0  0  0  0  0  0  0
    7.1191   -7.3636   15.7739 C   0  0  0  0  0  0  0  0  0  0  0  0
    5.9612   -8.3203   17.2732 N   0  0  0  0  0  0  0  0  0  0  0  0
    8.5296   -5.9814   17.1841 C   0  0  0  0  0  0  0  0  0  0  0  0
    9.1527   -5.2118   16.2116 C   0  0  0  0  0  0  0  0  0  0  0  0
   10.3364   -3.8368   22.9255 O   0  0  0  0  0  0  0  0  0  0  0  0
    9.6947   -4.8407   18.8534 C   0  0  0  0  0  0  0  0  0  0  0  0
    9.1596    1.7042   24.1381 C   0  0  0  0  0  0  0  0  0  0  0  0
   11.0456   -2.9774   18.2694 N   0  0  0  0  0  0  0  0  0  0  0  0
   10.4788   -3.0457   21.8593 C   0  0  0  0  0  0  0  0  0  0  0  0
    8.8693   -5.8099   18.4657 N   0  0  0  0  0  0  0  0  0  0  0  0
    8.9892   -0.7926   25.4573 C   0  0  0  0  0  0  0  0  0  0  0  0
   10.5677   -3.4462   20.5323 C   0  0  0  0  0  0  0  0  0  0  0  0
  1  8  1  0
  1 12  4  0
  1 14  4  0
  2  3  4  0
  2 18  4  0
  3 20  4  0
  3 22  4  0
  4 11  4  0
  4 21  4  0
  5  9  4  0
  5 16  4  0
  6 15  4  0
  6 16  4  0
  7 22  4  0
  7 26  4  0
  8 10  4  0
  8 25  4  0
  9 15  4  0
  9 17  1  0
 10 21  4  0
 11 25  4  0
 12 23  4  0
 13 20  4  0
 13 26  4  0
 14 19  4  0
 17 18  4  0
 17 24  4  0
 19 23  4  0
 20 24  4  0
 23 26  1  0
M  END
$$$$

 Created by Python create_sdf_string function

 26 30  0  0  0  0  0  0  0  0999 V2000
   10.0084   -1.8019   23.4945 C   0  0  0  0  0  0  0  0  0  0  0  0
   10.0005   -4.2520   16.5631 C   0  0  0  0  0  0  0  0  0  0  0  0
   10.2759   -4.0036   17.8845 C   0  0  0  0  0  0  0  0  0  0  0  0
    8.5652    1.5478   25.3778 N   0  0  0  0  0  0  0  0  0  0  0  0
    6.8048   -7.5457   17.8752 C   0  0  0  0  0  0  0  0  0  0  0  0
    6.1721   -8.2186   15.9886 N   0  0  0  0  0  0  0  0  0  0  0  0
   11.1764   -2.6600   19.5604 C   0  0  0  0  0  0  0  0  0  0  0  0
    9.5491   -0.6380   24.1912 C   0  0  0  0  0  0  0  0  0  0  0  0
    7.5337   -6.9256   16.9519 C   0  0  0  0  0  0  0  0  0  0  0  0
    9.6782    0.5671   23.5143 C   0  0  0  0  0  0  0  0  0  0  0  0
    8.4532    0.3482   26.0821 C   0  0  0  0  0  0  0  0  0  0  0  0
   10.4239   -1.7677   22.2230 N   0  0  0  0  0  0  0  0  0  0  0  0
    9.9468   -4.5953   20.1709 C   0  0  0  0  0  0  0  0  0  0  0  0
   10.0366   -3.0590   23.9864 N   0  0  0  0  0  0  0  0  0  0  0  0
    7.1191   -7.3636   15.7739 C   0  0  0  0  0  0  0  0  0  0  0  0
    5.9612   -8.3203   17.2732 N   0  0  0  0  0  0  0  0  0  0  0  0
    8.5296   -5.9814   17.1841 C   0  0  0  0  0  0  0  0  0  0  0  0
    9.1527   -5.2118   16.2116 C   0  0  0  0  0  0  0  0  0  0  0  0
   10.3364   -3.8368   22.9255 O   0  0  0  0  0  0  0  0  0  0  0  0
    9.6947   -4.8407   18.8534 C   0  0  0  0  0  0  0  0  0  0  0  0
    9.1596    1.7042   24.1381 C   0  0  0  0  0  0  0  0  0  0  0  0
   11.0456   -2.9774   18.2694 N   0  0  0  0  0  0  0  0  0  0  0  0
   10.4788   -3.0457   21.8593 C   0  0  0  0  0  0  0  0  0  0  0  0
    8.8693   -5.8099   18.4657 N   0  0  0  0  0  0  0  0  0  0  0  0
    8.9892   -0.7926   25.4573 C   0  0  0  0  0  0  0  0  0  0  0  0
   10.5677   -3.4462   20.5323 C   0  0  0  0  0  0  0  0  0  0  0  0
  1  8  1  0
  1 12  4  0
  1 14  4  0
  2  3  4  0
  2 18  4  0
  3 20  4  0
  3 22  4  0
  4 11  4  0
  4 21  4  0
  5  9  4  0
  5 16  4  0
  6 15  4  0
  6 16  4  0
  7 22  4  0
  7 26  4  0
  8 10  4  0
  8 25  4  0
  9 15  4  0
  9 17  1  0
 10 21  4  0
 11 25  4  0
 12 23  4  0
 13 20  4  0
 13 26  4  0
 14 19  4  0
 17 18  4  0
 17 24  4  0
 19 23  4  0
 20 24  4  0
 23 26  1  0
M  END
$$$$

 Created by Python create_sdf_string function

 26 30  0  0  0  0  0  0  0  0999 V2000
   10.0084   -1.8019   23.4945 C   0  0  0  0  0  0  0  0  0  0  0  0
   10.0005   -4.2520   16.5631 C   0  0  0  0  0  0  0  0  0  0  0  0
   10.2759   -4.0036   17.8845 C   0  0  0  0  0  0  0  0  0  0  0  0
    8.5652    1.5478   25.3778 N   0  0  0  0  0  0  0  0  0  0  0  0
    6.8048   -7.5457   17.8752 C   0  0  0  0  0  0  0  0  0  0  0  0
    6.1721   -8.2186   15.9886 N   0  0  0  0  0  0  0  0  0  0  0  0
   11.1764   -2.6600   19.5604 C   0  0  0  0  0  0  0  0  0  0  0  0
    9.5491   -0.6380   24.1912 C   0  0  0  0  0  0  0  0  0  0  0  0
    7.5337   -6.9256   16.9519 C   0  0  0  0  0  0  0  0  0  0  0  0
    9.6782    0.5671   23.5143 C   0  0  0  0  0  0  0  0  0  0  0  0
    8.4532    0.3482   26.0821 C   0  0  0  0  0  0  0  0  0  0  0  0
   10.4239   -1.7677   22.2230 N   0  0  0  0  0  0  0  0  0  0  0  0
    9.9468   -4.5953   20.1709 C   0  0  0  0  0  0  0  0  0  0  0  0
   10.0366   -3.0590   23.9864 N   0  0  0  0  0  0  0  0  0  0  0  0
    7.1191   -7.3636   15.7739 C   0  0  0  0  0  0  0  0  0  0  0  0
    5.9612   -8.3203   17.2732 N   0  0  0  0  0  0  0  0  0  0  0  0
    8.5296   -5.9814   17.1841 C   0  0  0  0  0  0  0  0  0  0  0  0
    9.1527   -5.2118   16.2116 C   0  0  0  0  0  0  0  0  0  0  0  0
   10.3364   -3.8368   22.9255 O   0  0  0  0  0  0  0  0  0  0  0  0
    9.6947   -4.8407   18.8534 C   0  0  0  0  0  0  0  0  0  0  0  0
    9.1596    1.7042   24.1381 C   0  0  0  0  0  0  0  0  0  0  0  0
   11.0456   -2.9774   18.2694 N   0  0  0  0  0  0  0  0  0  0  0  0
   10.4788   -3.0457   21.8593 C   0  0  0  0  0  0  0  0  0  0  0  0
    8.8693   -5.8099   18.4657 N   0  0  0  0  0  0  0  0  0  0  0  0
    8.9892   -0.7926   25.4573 C   0  0  0  0  0  0  0  0  0  0  0  0
   10.5677   -3.4462   20.5323 C   0  0  0  0  0  0  0  0  0  0  0  0
  1  8  1  0
  1 12  4  0
  1 14  4  0
  2  3  4  0
  2 18  4  0
  3 20  4  0
  3 22  4  0
  4 11  4  0
  4 21  4  0
  5  9  4  0
  5 16  4  0
  6 15  4  0
  6 16  4  0
  7 22  4  0
  7 26  4  0
  8 10  4  0
  8 25  4  0
  9 15  4  0
  9 17  1  0
 10 21  4  0
 11 25  4  0
 12 23  4  0
 13 20  4  0
 13 26  4  0
 14 19  4  0
 17 18  4  0
 17 24  4  0
 19 23  4  0
 20 24  4  0
 23 26  1  0
M  END
$$$$

 Created by Python create_sdf_string function

 26 30  0  0  0  0  0  0  0  0999 V2000
   10.0084   -1.8019   23.4945 C   0  0  0  0  0  0  0  0  0  0  0  0
   10.0005   -4.2520   16.5631 C   0  0  0  0  0  0  0  0  0  0  0  0
   10.2759   -4.0036   17.8845 C   0  0  0  0  0  0  0  0  0  0  0  0
    8.5652    1.5478   25.3778 N   0  0  0  0  0  0  0  0  0  0  0  0
    6.8048   -7.5457   17.8752 C   0  0  0  0  0  0  0  0  0  0  0  0
    6.1721   -8.2186   15.9886 N   0  0  0  0  0  0  0  0  0  0  0  0
   11.1764   -2.6600   19.5604 C   0  0  0  0  0  0  0  0  0  0  0  0
    9.5491   -0.6380   24.1912 C   0  0  0  0  0  0  0  0  0  0  0  0
    7.5337   -6.9256   16.9519 C   0  0  0  0  0  0  0  0  0  0  0  0
    9.6782    0.5671   23.5143 C   0  0  0  0  0  0  0  0  0  0  0  0
    8.4532    0.3482   26.0821 C   0  0  0  0  0  0  0  0  0  0  0  0
   10.4239   -1.7677   22.2230 N   0  0  0  0  0  0  0  0  0  0  0  0
    9.9468   -4.5953   20.1709 C   0  0  0  0  0  0  0  0  0  0  0  0
   10.0366   -3.0590   23.9864 N   0  0  0  0  0  0  0  0  0  0  0  0
    7.1191   -7.3636   15.7739 C   0  0  0  0  0  0  0  0  0  0  0  0
    5.9612   -8.3203   17.2732 N   0  0  0  0  0  0  0  0  0  0  0  0
    8.5296   -5.9814   17.1841 C   0  0  0  0  0  0  0  0  0  0  0  0
    9.1527   -5.2118   16.2116 C   0  0  0  0  0  0  0  0  0  0  0  0
   10.3364   -3.8368   22.9255 O   0  0  0  0  0  0  0  0  0  0  0  0
    9.6947   -4.8407   18.8534 C   0  0  0  0  0  0  0  0  0  0  0  0
    9.1596    1.7042   24.1381 C   0  0  0  0  0  0  0  0  0  0  0  0
   11.0456   -2.9774   18.2694 N   0  0  0  0  0  0  0  0  0  0  0  0
   10.4788   -3.0457   21.8593 C   0  0  0  0  0  0  0  0  0  0  0  0
    8.8693   -5.8099   18.4657 N   0  0  0  0  0  0  0  0  0  0  0  0
    8.9892   -0.7926   25.4573 C   0  0  0  0  0  0  0  0  0  0  0  0
   10.5677   -3.4462   20.5323 C   0  0  0  0  0  0  0  0  0  0  0  0
  1  8  1  0
  1 12  4  0
  1 14  4  0
  2  3  4  0
  2 18  4  0
  3 20  4  0
  3 22  4  0
  4 11  4  0
  4 21  4  0
  5  9  4  0
  5 16  4  0
  6 15  4  0
  6 16  4  0
  7 22  4  0
  7 26  4  0
  8 10  4  0
  8 25  4  0
  9 15  4  0
  9 17  1  0
 10 21  4  0
 11 25  4  0
 12 23  4  0
 13 20  4  0
 13 26  4  0
 14 19  4  0
 17 18  4  0
 17 24  4  0
 19 23  4  0
 20 24  4  0
 23 26  1  0
M  END
$$$$

 Created by Python create_sdf_string function

 26 30  0  0  0  0  0  0  0  0999 V2000
   10.0084   -1.8019   23.4945 C   0  0  0  0  0  0  0  0  0  0  0  0
   10.0005   -4.2520   16.5631 C   0  0  0  0  0  0  0  0  0  0  0  0
   10.2759   -4.0036   17.8845 C   0  0  0  0  0  0  0  0  0  0  0  0
    8.5652    1.5478   25.3778 N   0  0  0  0  0  0  0  0  0  0  0  0
    6.8048   -7.5457   17.8752 C   0  0  0  0  0  0  0  0  0  0  0  0
    6.1721   -8.2186   15.9886 N   0  0  0  0  0  0  0  0  0  0  0  0
   11.1764   -2.6600   19.5604 C   0  0  0  0  0  0  0  0  0  0  0  0
    9.5491   -0.6380   24.1912 C   0  0  0  0  0  0  0  0  0  0  0  0
    7.5337   -6.9256   16.9519 C   0  0  0  0  0  0  0  0  0  0  0  0
    9.6782    0.5671   23.5143 C   0  0  0  0  0  0  0  0  0  0  0  0
    8.4532    0.3482   26.0821 C   0  0  0  0  0  0  0  0  0  0  0  0
   10.4239   -1.7677   22.2230 N   0  0  0  0  0  0  0  0  0  0  0  0
    9.9468   -4.5953   20.1709 C   0  0  0  0  0  0  0  0  0  0  0  0
   10.0366   -3.0590   23.9864 N   0  0  0  0  0  0  0  0  0  0  0  0
    7.1191   -7.3636   15.7739 C   0  0  0  0  0  0  0  0  0  0  0  0
    5.9612   -8.3203   17.2732 N   0  0  0  0  0  0  0  0  0  0  0  0
    8.5296   -5.9814   17.1841 C   0  0  0  0  0  0  0  0  0  0  0  0
    9.1527   -5.2118   16.2116 C   0  0  0  0  0  0  0  0  0  0  0  0
   10.3364   -3.8368   22.9255 O   0  0  0  0  0  0  0  0  0  0  0  0
    9.6947   -4.8407   18.8534 C   0  0  0  0  0  0  0  0  0  0  0  0
    9.1596    1.7042   24.1381 C   0  0  0  0  0  0  0  0  0  0  0  0
   11.0456   -2.9774   18.2694 N   0  0  0  0  0  0  0  0  0  0  0  0
   10.4788   -3.0457   21.8593 C   0  0  0  0  0  0  0  0  0  0  0  0
    8.8693   -5.8099   18.4657 N   0  0  0  0  0  0  0  0  0  0  0  0
    8.9892   -0.7926   25.4573 C   0  0  0  0  0  0  0  0  0  0  0  0
   10.5677   -3.4462   20.5323 C   0  0  0  0  0  0  0  0  0  0  0  0
  1  8  1  0
  1 12  4  0
  1 14  4  0
  2  3  4  0
  2 18  4  0
  3 20  4  0
  3 22  4  0
  4 11  4  0
  4 21  4  0
  5  9  4  0
  5 16  4  0
  6 15  4  0
  6 16  4  0
  7 22  4  0
  7 26  4  0
  8 10  4  0
  8 25  4  0
  9 15  4  0
  9 17  1  0
 10 21  4  0
 11 25  4  0
 12 23  4  0
 13 20  4  0
 13 26  4  0
 14 19  4  0
 17 18  4  0
 17 24  4  0
 19 23  4  0
 20 24  4  0
 23 26  1  0
M  END
$$$$

 Created by Python create_sdf_string function

 26 30  0  0  0  0  0  0  0  0999 V2000
   10.0084   -1.8019   23.4945 C   0  0  0  0  0  0  0  0  0  0  0  0
   10.0005   -4.2520   16.5631 C   0  0  0  0  0  0  0  0  0  0  0  0
   10.2759   -4.0036   17.8845 C   0  0  0  0  0  0  0  0  0  0  0  0
    8.5652    1.5478   25.3778 N   0  0  0  0  0  0  0  0  0  0  0  0
    6.8048   -7.5457   17.8752 C   0  0  0  0  0  0  0  0  0  0  0  0
    6.1721   -8.2186   15.9886 N   0  0  0  0  0  0  0  0  0  0  0  0
   11.1764   -2.6600   19.5604 C   0  0  0  0  0  0  0  0  0  0  0  0
    9.5491   -0.6380   24.1912 C   0  0  0  0  0  0  0  0  0  0  0  0
    7.5337   -6.9256   16.9519 C   0  0  0  0  0  0  0  0  0  0  0  0
    9.6782    0.5671   23.5143 C   0  0  0  0  0  0  0  0  0  0  0  0
    8.4532    0.3482   26.0821 C   0  0  0  0  0  0  0  0  0  0  0  0
   10.4239   -1.7677   22.2230 N   0  0  0  0  0  0  0  0  0  0  0  0
    9.9468   -4.5953   20.1709 C   0  0  0  0  0  0  0  0  0  0  0  0
   10.0366   -3.0590   23.9864 N   0  0  0  0  0  0  0  0  0  0  0  0
    7.1191   -7.3636   15.7739 C   0  0  0  0  0  0  0  0  0  0  0  0
    5.9612   -8.3203   17.2732 N   0  0  0  0  0  0  0  0  0  0  0  0
    8.5296   -5.9814   17.1841 C   0  0  0  0  0  0  0  0  0  0  0  0
    9.1527   -5.2118   16.2116 C   0  0  0  0  0  0  0  0  0  0  0  0
   10.3364   -3.8368   22.9255 O   0  0  0  0  0  0  0  0  0  0  0  0
    9.6947   -4.8407   18.8534 C   0  0  0  0  0  0  0  0  0  0  0  0
    9.1596    1.7042   24.1381 C   0  0  0  0  0  0  0  0  0  0  0  0
   11.0456   -2.9774   18.2694 N   0  0  0  0  0  0  0  0  0  0  0  0
   10.4788   -3.0457   21.8593 C   0  0  0  0  0  0  0  0  0  0  0  0
    8.8693   -5.8099   18.4657 N   0  0  0  0  0  0  0  0  0  0  0  0
    8.9892   -0.7926   25.4573 C   0  0  0  0  0  0  0  0  0  0  0  0
   10.5677   -3.4462   20.5323 C   0  0  0  0  0  0  0  0  0  0  0  0
  1  8  1  0
  1 12  4  0
  1 14  4  0
  2  3  4  0
  2 18  4  0
  3 20  4  0
  3 22  4  0
  4 11  4  0
  4 21  4  0
  5  9  4  0
  5 16  4  0
  6 15  4  0
  6 16  4  0
  7 22  4  0
  7 26  4  0
  8 10  4  0
  8 25  4  0
  9 15  4  0
  9 17  1  0
 10 21  4  0
 11 25  4  0
 12 23  4  0
 13 20  4  0
 13 26  4  0
 14 19  4  0
 17 18  4  0
 17 24  4  0
 19 23  4  0
 20 24  4  0
 23 26  1  0
M  END
$$$$

 Created by Python create_sdf_string function

 26 30  0  0  0  0  0  0  0  0999 V2000
   10.0084   -1.8019   23.4945 C   0  0  0  0  0  0  0  0  0  0  0  0
   10.0005   -4.2520   16.5631 C   0  0  0  0  0  0  0  0  0  0  0  0
   10.2759   -4.0036   17.8845 C   0  0  0  0  0  0  0  0  0  0  0  0
    8.5652    1.5478   25.3778 N   0  0  0  0  0  0  0  0  0  0  0  0
    6.8048   -7.5457   17.8752 C   0  0  0  0  0  0  0  0  0  0  0  0
    6.1721   -8.2186   15.9886 N   0  0  0  0  0  0  0  0  0  0  0  0
   11.1764   -2.6600   19.5604 C   0  0  0  0  0  0  0  0  0  0  0  0
    9.5491   -0.6380   24.1912 C   0  0  0  0  0  0  0  0  0  0  0  0
    7.5337   -6.9256   16.9519 C   0  0  0  0  0  0  0  0  0  0  0  0
    9.6782    0.5671   23.5143 C   0  0  0  0  0  0  0  0  0  0  0  0
    8.4532    0.3482   26.0821 C   0  0  0  0  0  0  0  0  0  0  0  0
   10.4239   -1.7677   22.2230 N   0  0  0  0  0  0  0  0  0  0  0  0
    9.9468   -4.5953   20.1709 C   0  0  0  0  0  0  0  0  0  0  0  0
   10.0366   -3.0590   23.9864 N   0  0  0  0  0  0  0  0  0  0  0  0
    7.1191   -7.3636   15.7739 C   0  0  0  0  0  0  0  0  0  0  0  0
    5.9612   -8.3203   17.2732 N   0  0  0  0  0  0  0  0  0  0  0  0
    8.5296   -5.9814   17.1841 C   0  0  0  0  0  0  0  0  0  0  0  0
    9.1527   -5.2118   16.2116 C   0  0  0  0  0  0  0  0  0  0  0  0
   10.3364   -3.8368   22.9255 O   0  0  0  0  0  0  0  0  0  0  0  0
    9.6947   -4.8407   18.8534 C   0  0  0  0  0  0  0  0  0  0  0  0
    9.1596    1.7042   24.1381 C   0  0  0  0  0  0  0  0  0  0  0  0
   11.0456   -2.9774   18.2694 N   0  0  0  0  0  0  0  0  0  0  0  0
   10.4788   -3.0457   21.8593 C   0  0  0  0  0  0  0  0  0  0  0  0
    8.8693   -5.8099   18.4657 N   0  0  0  0  0  0  0  0  0  0  0  0
    8.9892   -0.7926   25.4573 C   0  0  0  0  0  0  0  0  0  0  0  0
   10.5677   -3.4462   20.5323 C   0  0  0  0  0  0  0  0  0  0  0  0
  1  8  1  0
  1 12  4  0
  1 14  4  0
  2  3  4  0
  2 18  4  0
  3 20  4  0
  3 22  4  0
  4 11  4  0
  4 21  4  0
  5  9  4  0
  5 16  4  0
  6 15  4  0
  6 16  4  0
  7 22  4  0
  7 26  4  0
  8 10  4  0
  8 25  4  0
  9 15  4  0
  9 17  1  0
 10 21  4  0
 11 25  4  0
 12 23  4  0
 13 20  4  0
 13 26  4  0
 14 19  4  0
 17 18  4  0
 17 24  4  0
 19 23  4  0
 20 24  4  0
 23 26  1  0
M  END
$$$$

 Created by Python create_sdf_string function

 26 30  0  0  0  0  0  0  0  0999 V2000
   10.0084   -1.8019   23.4945 C   0  0  0  0  0  0  0  0  0  0  0  0
   10.0005   -4.2520   16.5631 C   0  0  0  0  0  0  0  0  0  0  0  0
   10.2759   -4.0036   17.8845 C   0  0  0  0  0  0  0  0  0  0  0  0
    8.5652    1.5478   25.3778 N   0  0  0  0  0  0  0  0  0  0  0  0
    6.8048   -7.5457   17.8752 C   0  0  0  0  0  0  0  0  0  0  0  0
    6.1721   -8.2186   15.9886 N   0  0  0  0  0  0  0  0  0  0  0  0
   11.1764   -2.6600   19.5604 C   0  0  0  0  0  0  0  0  0  0  0  0
    9.5491   -0.6380   24.1912 C   0  0  0  0  0  0  0  0  0  0  0  0
    7.5337   -6.9256   16.9519 C   0  0  0  0  0  0  0  0  0  0  0  0
    9.6782    0.5671   23.5143 C   0  0  0  0  0  0  0  0  0  0  0  0
    8.4532    0.3482   26.0821 C   0  0  0  0  0  0  0  0  0  0  0  0
   10.4239   -1.7677   22.2230 N   0  0  0  0  0  0  0  0  0  0  0  0
    9.9468   -4.5953   20.1709 C   0  0  0  0  0  0  0  0  0  0  0  0
   10.0366   -3.0590   23.9864 N   0  0  0  0  0  0  0  0  0  0  0  0
    7.1191   -7.3636   15.7739 C   0  0  0  0  0  0  0  0  0  0  0  0
    5.9612   -8.3203   17.2732 N   0  0  0  0  0  0  0  0  0  0  0  0
    8.5296   -5.9814   17.1841 C   0  0  0  0  0  0  0  0  0  0  0  0
    9.1527   -5.2118   16.2116 C   0  0  0  0  0  0  0  0  0  0  0  0
   10.3364   -3.8368   22.9255 O   0  0  0  0  0  0  0  0  0  0  0  0
    9.6947   -4.8407   18.8534 C   0  0  0  0  0  0  0  0  0  0  0  0
    9.1596    1.7042   24.1381 C   0  0  0  0  0  0  0  0  0  0  0  0
   11.0456   -2.9774   18.2694 N   0  0  0  0  0  0  0  0  0  0  0  0
   10.4788   -3.0457   21.8593 C   0  0  0  0  0  0  0  0  0  0  0  0
    8.8693   -5.8099   18.4657 N   0  0  0  0  0  0  0  0  0  0  0  0
    8.9892   -0.7926   25.4573 C   0  0  0  0  0  0  0  0  0  0  0  0
   10.5677   -3.4462   20.5323 C   0  0  0  0  0  0  0  0  0  0  0  0
  1  8  1  0
  1 12  4  0
  1 14  4  0
  2  3  4  0
  2 18  4  0
  3 20  4  0
  3 22  4  0
  4 11  4  0
  4 21  4  0
  5  9  4  0
  5 16  4  0
  6 15  4  0
  6 16  4  0
  7 22  4  0
  7 26  4  0
  8 10  4  0
  8 25  4  0
  9 15  4  0
  9 17  1  0
 10 21  4  0
 11 25  4  0
 12 23  4  0
 13 20  4  0
 13 26  4  0
 14 19  4  0
 17 18  4  0
 17 24  4  0
 19 23  4  0
 20 24  4  0
 23 26  1  0
M  END
$$$$

 Created by Python create_sdf_string function

 26 30  0  0  0  0  0  0  0  0999 V2000
   10.0084   -1.8019   23.4945 C   0  0  0  0  0  0  0  0  0  0  0  0
   10.0005   -4.2520   16.5631 C   0  0  0  0  0  0  0  0  0  0  0  0
   10.2759   -4.0036   17.8845 C   0  0  0  0  0  0  0  0  0  0  0  0
    8.5652    1.5478   25.3778 N   0  0  0  0  0  0  0  0  0  0  0  0
    6.8048   -7.5457   17.8752 C   0  0  0  0  0  0  0  0  0  0  0  0
    6.1721   -8.2186   15.9886 N   0  0  0  0  0  0  0  0  0  0  0  0
   11.1764   -2.6600   19.5604 C   0  0  0  0  0  0  0  0  0  0  0  0
    9.5491   -0.6380   24.1912 C   0  0  0  0  0  0  0  0  0  0  0  0
    7.5337   -6.9256   16.9519 C   0  0  0  0  0  0  0  0  0  0  0  0
    9.6782    0.5671   23.5143 C   0  0  0  0  0  0  0  0  0  0  0  0
    8.4532    0.3482   26.0821 C   0  0  0  0  0  0  0  0  0  0  0  0
   10.4239   -1.7677   22.2230 N   0  0  0  0  0  0  0  0  0  0  0  0
    9.9468   -4.5953   20.1709 C   0  0  0  0  0  0  0  0  0  0  0  0
   10.0366   -3.0590   23.9864 N   0  0  0  0  0  0  0  0  0  0  0  0
    7.1191   -7.3636   15.7739 C   0  0  0  0  0  0  0  0  0  0  0  0
    5.9612   -8.3203   17.2732 N   0  0  0  0  0  0  0  0  0  0  0  0
    8.5296   -5.9814   17.1841 C   0  0  0  0  0  0  0  0  0  0  0  0
    9.1527   -5.2118   16.2116 C   0  0  0  0  0  0  0  0  0  0  0  0
   10.3364   -3.8368   22.9255 O   0  0  0  0  0  0  0  0  0  0  0  0
    9.6947   -4.8407   18.8534 C   0  0  0  0  0  0  0  0  0  0  0  0
    9.1596    1.7042   24.1381 C   0  0  0  0  0  0  0  0  0  0  0  0
   11.0456   -2.9774   18.2694 N   0  0  0  0  0  0  0  0  0  0  0  0
   10.4788   -3.0457   21.8593 C   0  0  0  0  0  0  0  0  0  0  0  0
    8.8693   -5.8099   18.4657 N   0  0  0  0  0  0  0  0  0  0  0  0
    8.9892   -0.7926   25.4573 C   0  0  0  0  0  0  0  0  0  0  0  0
   10.5677   -3.4462   20.5323 C   0  0  0  0  0  0  0  0  0  0  0  0
  1  8  1  0
  1 12  4  0
  1 14  4  0
  2  3  4  0
  2 18  4  0
  3 20  4  0
  3 22  4  0
  4 11  4  0
  4 21  4  0
  5  9  4  0
  5 16  4  0
  6 15  4  0
  6 16  4  0
  7 22  4  0
  7 26  4  0
  8 10  4  0
  8 25  4  0
  9 15  4  0
  9 17  1  0
 10 21  4  0
 11 25  4  0
 12 23  4  0
 13 20  4  0
 13 26  4  0
 14 19  4  0
 17 18  4  0
 17 24  4  0
 19 23  4  0
 20 24  4  0
 23 26  1  0
M  END
$$$$

 Created by Python create_sdf_string function

 26 30  0  0  0  0  0  0  0  0999 V2000
   10.0084   -1.8019   23.4945 C   0  0  0  0  0  0  0  0  0  0  0  0
   10.0005   -4.2520   16.5631 C   0  0  0  0  0  0  0  0  0  0  0  0
   10.2759   -4.0036   17.8845 C   0  0  0  0  0  0  0  0  0  0  0  0
    8.5652    1.5478   25.3778 N   0  0  0  0  0  0  0  0  0  0  0  0
    6.8048   -7.5457   17.8752 C   0  0  0  0  0  0  0  0  0  0  0  0
    6.1721   -8.2186   15.9886 N   0  0  0  0  0  0  0  0  0  0  0  0
   11.1764   -2.6600   19.5604 C   0  0  0  0  0  0  0  0  0  0  0  0
    9.5491   -0.6380   24.1912 C   0  0  0  0  0  0  0  0  0  0  0  0
    7.5337   -6.9256   16.9519 C   0  0  0  0  0  0  0  0  0  0  0  0
    9.6782    0.5671   23.5143 C   0  0  0  0  0  0  0  0  0  0  0  0
    8.4532    0.3482   26.0821 C   0  0  0  0  0  0  0  0  0  0  0  0
   10.4239   -1.7677   22.2230 N   0  0  0  0  0  0  0  0  0  0  0  0
    9.9468   -4.5953   20.1709 C   0  0  0  0  0  0  0  0  0  0  0  0
   10.0366   -3.0590   23.9864 N   0  0  0  0  0  0  0  0  0  0  0  0
    7.1191   -7.3636   15.7739 C   0  0  0  0  0  0  0  0  0  0  0  0
    5.9612   -8.3203   17.2732 N   0  0  0  0  0  0  0  0  0  0  0  0
    8.5296   -5.9814   17.1841 C   0  0  0  0  0  0  0  0  0  0  0  0
    9.1527   -5.2118   16.2116 C   0  0  0  0  0  0  0  0  0  0  0  0
   10.3364   -3.8368   22.9255 O   0  0  0  0  0  0  0  0  0  0  0  0
    9.6947   -4.8407   18.8534 C   0  0  0  0  0  0  0  0  0  0  0  0
    9.1596    1.7042   24.1381 C   0  0  0  0  0  0  0  0  0  0  0  0
   11.0456   -2.9774   18.2694 N   0  0  0  0  0  0  0  0  0  0  0  0
   10.4788   -3.0457   21.8593 C   0  0  0  0  0  0  0  0  0  0  0  0
    8.8693   -5.8099   18.4657 N   0  0  0  0  0  0  0  0  0  0  0  0
    8.9892   -0.7926   25.4573 C   0  0  0  0  0  0  0  0  0  0  0  0
   10.5677   -3.4462   20.5323 C   0  0  0  0  0  0  0  0  0  0  0  0
  1  8  1  0
  1 12  4  0
  1 14  4  0
  2  3  4  0
  2 18  4  0
  3 20  4  0
  3 22  4  0
  4 11  4  0
  4 21  4  0
  5  9  4  0
  5 16  4  0
  6 15  4  0
  6 16  4  0
  7 22  4  0
  7 26  4  0
  8 10  4  0
  8 25  4  0
  9 15  4  0
  9 17  1  0
 10 21  4  0
 11 25  4  0
 12 23  4  0
 13 20  4  0
 13 26  4  0
 14 19  4  0
 17 18  4  0
 17 24  4  0
 19 23  4  0
 20 24  4  0
 23 26  1  0
M  END
$$$$

 Created by Python create_sdf_string function

 26 30  0  0  0  0  0  0  0  0999 V2000
   10.0084   -1.8019   23.4945 C   0  0  0  0  0  0  0  0  0  0  0  0
   10.0005   -4.2520   16.5631 C   0  0  0  0  0  0  0  0  0  0  0  0
   10.2759   -4.0036   17.8845 C   0  0  0  0  0  0  0  0  0  0  0  0
    8.5652    1.5478   25.3778 N   0  0  0  0  0  0  0  0  0  0  0  0
    6.8048   -7.5457   17.8752 C   0  0  0  0  0  0  0  0  0  0  0  0
    6.1721   -8.2186   15.9886 N   0  0  0  0  0  0  0  0  0  0  0  0
   11.1764   -2.6600   19.5604 C   0  0  0  0  0  0  0  0  0  0  0  0
    9.5491   -0.6380   24.1912 C   0  0  0  0  0  0  0  0  0  0  0  0
    7.5337   -6.9256   16.9519 C   0  0  0  0  0  0  0  0  0  0  0  0
    9.6782    0.5671   23.5143 C   0  0  0  0  0  0  0  0  0  0  0  0
    8.4532    0.3482   26.0821 C   0  0  0  0  0  0  0  0  0  0  0  0
   10.4239   -1.7677   22.2230 N   0  0  0  0  0  0  0  0  0  0  0  0
    9.9468   -4.5953   20.1709 C   0  0  0  0  0  0  0  0  0  0  0  0
   10.0366   -3.0590   23.9864 N   0  0  0  0  0  0  0  0  0  0  0  0
    7.1191   -7.3636   15.7739 C   0  0  0  0  0  0  0  0  0  0  0  0
    5.9612   -8.3203   17.2732 N   0  0  0  0  0  0  0  0  0  0  0  0
    8.5296   -5.9814   17.1841 C   0  0  0  0  0  0  0  0  0  0  0  0
    9.1527   -5.2118   16.2116 C   0  0  0  0  0  0  0  0  0  0  0  0
   10.3364   -3.8368   22.9255 O   0  0  0  0  0  0  0  0  0  0  0  0
    9.6947   -4.8407   18.8534 C   0  0  0  0  0  0  0  0  0  0  0  0
    9.1596    1.7042   24.1381 C   0  0  0  0  0  0  0  0  0  0  0  0
   11.0456   -2.9774   18.2694 N   0  0  0  0  0  0  0  0  0  0  0  0
   10.4788   -3.0457   21.8593 C   0  0  0  0  0  0  0  0  0  0  0  0
    8.8693   -5.8099   18.4657 N   0  0  0  0  0  0  0  0  0  0  0  0
    8.9892   -0.7926   25.4573 C   0  0  0  0  0  0  0  0  0  0  0  0
   10.5677   -3.4462   20.5323 C   0  0  0  0  0  0  0  0  0  0  0  0
  1  8  1  0
  1 12  4  0
  1 14  4  0
  2  3  4  0
  2 18  4  0
  3 20  4  0
  3 22  4  0
  4 11  4  0
  4 21  4  0
  5  9  4  0
  5 16  4  0
  6 15  4  0
  6 16  4  0
  7 22  4  0
  7 26  4  0
  8 10  4  0
  8 25  4  0
  9 15  4  0
  9 17  1  0
 10 21  4  0
 11 25  4  0
 12 23  4  0
 13 20  4  0
 13 26  4  0
 14 19  4  0
 17 18  4  0
 17 24  4  0
 19 23  4  0
 20 24  4  0
 23 26  1  0
M  END
$$$$

 Created by Python create_sdf_string function

 26 30  0  0  0  0  0  0  0  0999 V2000
   10.0084   -1.8019   23.4945 C   0  0  0  0  0  0  0  0  0  0  0  0
   10.0005   -4.2520   16.5631 C   0  0  0  0  0  0  0  0  0  0  0  0
   10.2759   -4.0036   17.8845 C   0  0  0  0  0  0  0  0  0  0  0  0
    8.5652    1.5478   25.3778 N   0  0  0  0  0  0  0  0  0  0  0  0
    6.8048   -7.5457   17.8752 C   0  0  0  0  0  0  0  0  0  0  0  0
    6.1721   -8.2186   15.9886 N   0  0  0  0  0  0  0  0  0  0  0  0
   11.1764   -2.6600   19.5604 C   0  0  0  0  0  0  0  0  0  0  0  0
    9.5491   -0.6380   24.1912 C   0  0  0  0  0  0  0  0  0  0  0  0
    7.5337   -6.9256   16.9519 C   0  0  0  0  0  0  0  0  0  0  0  0
    9.6782    0.5671   23.5143 C   0  0  0  0  0  0  0  0  0  0  0  0
    8.4532    0.3482   26.0821 C   0  0  0  0  0  0  0  0  0  0  0  0
   10.4239   -1.7677   22.2230 N   0  0  0  0  0  0  0  0  0  0  0  0
    9.9468   -4.5953   20.1709 C   0  0  0  0  0  0  0  0  0  0  0  0
   10.0366   -3.0590   23.9864 N   0  0  0  0  0  0  0  0  0  0  0  0
    7.1191   -7.3636   15.7739 C   0  0  0  0  0  0  0  0  0  0  0  0
    5.9612   -8.3203   17.2732 N   0  0  0  0  0  0  0  0  0  0  0  0
    8.5296   -5.9814   17.1841 C   0  0  0  0  0  0  0  0  0  0  0  0
    9.1527   -5.2118   16.2116 C   0  0  0  0  0  0  0  0  0  0  0  0
   10.3364   -3.8368   22.9255 O   0  0  0  0  0  0  0  0  0  0  0  0
    9.6947   -4.8407   18.8534 C   0  0  0  0  0  0  0  0  0  0  0  0
    9.1596    1.7042   24.1381 C   0  0  0  0  0  0  0  0  0  0  0  0
   11.0456   -2.9774   18.2694 N   0  0  0  0  0  0  0  0  0  0  0  0
   10.4788   -3.0457   21.8593 C   0  0  0  0  0  0  0  0  0  0  0  0
    8.8693   -5.8099   18.4657 N   0  0  0  0  0  0  0  0  0  0  0  0
    8.9892   -0.7926   25.4573 C   0  0  0  0  0  0  0  0  0  0  0  0
   10.5677   -3.4462   20.5323 C   0  0  0  0  0  0  0  0  0  0  0  0
  1  8  1  0
  1 12  4  0
  1 14  4  0
  2  3  4  0
  2 18  4  0
  3 20  4  0
  3 22  4  0
  4 11  4  0
  4 21  4  0
  5  9  4  0
  5 16  4  0
  6 15  4  0
  6 16  4  0
  7 22  4  0
  7 26  4  0
  8 10  4  0
  8 25  4  0
  9 15  4  0
  9 17  1  0
 10 21  4  0
 11 25  4  0
 12 23  4  0
 13 20  4  0
 13 26  4  0
 14 19  4  0
 17 18  4  0
 17 24  4  0
 19 23  4  0
 20 24  4  0
 23 26  1  0
M  END
$$$$

 Created by Python create_sdf_string function

 26 30  0  0  0  0  0  0  0  0999 V2000
   10.0084   -1.8019   23.4945 C   0  0  0  0  0  0  0  0  0  0  0  0
   10.0005   -4.2520   16.5631 C   0  0  0  0  0  0  0  0  0  0  0  0
   10.2759   -4.0036   17.8845 C   0  0  0  0  0  0  0  0  0  0  0  0
    8.5652    1.5478   25.3778 N   0  0  0  0  0  0  0  0  0  0  0  0
    6.8048   -7.5457   17.8752 C   0  0  0  0  0  0  0  0  0  0  0  0
    6.1721   -8.2186   15.9886 N   0  0  0  0  0  0  0  0  0  0  0  0
   11.1764   -2.6600   19.5604 C   0  0  0  0  0  0  0  0  0  0  0  0
    9.5491   -0.6380   24.1912 C   0  0  0  0  0  0  0  0  0  0  0  0
    7.5337   -6.9256   16.9519 C   0  0  0  0  0  0  0  0  0  0  0  0
    9.6782    0.5671   23.5143 C   0  0  0  0  0  0  0  0  0  0  0  0
    8.4532    0.3482   26.0821 C   0  0  0  0  0  0  0  0  0  0  0  0
   10.4239   -1.7677   22.2230 N   0  0  0  0  0  0  0  0  0  0  0  0
    9.9468   -4.5953   20.1709 C   0  0  0  0  0  0  0  0  0  0  0  0
   10.0366   -3.0590   23.9864 N   0  0  0  0  0  0  0  0  0  0  0  0
    7.1191   -7.3636   15.7739 C   0  0  0  0  0  0  0  0  0  0  0  0
    5.9612   -8.3203   17.2732 N   0  0  0  0  0  0  0  0  0  0  0  0
    8.5296   -5.9814   17.1841 C   0  0  0  0  0  0  0  0  0  0  0  0
    9.1527   -5.2118   16.2116 C   0  0  0  0  0  0  0  0  0  0  0  0
   10.3364   -3.8368   22.9255 O   0  0  0  0  0  0  0  0  0  0  0  0
    9.6947   -4.8407   18.8534 C   0  0  0  0  0  0  0  0  0  0  0  0
    9.1596    1.7042   24.1381 C   0  0  0  0  0  0  0  0  0  0  0  0
   11.0456   -2.9774   18.2694 N   0  0  0  0  0  0  0  0  0  0  0  0
   10.4788   -3.0457   21.8593 C   0  0  0  0  0  0  0  0  0  0  0  0
    8.8693   -5.8099   18.4657 N   0  0  0  0  0  0  0  0  0  0  0  0
    8.9892   -0.7926   25.4573 C   0  0  0  0  0  0  0  0  0  0  0  0
   10.5677   -3.4462   20.5323 C   0  0  0  0  0  0  0  0  0  0  0  0
  1  8  1  0
  1 12  4  0
  1 14  4  0
  2  3  4  0
  2 18  4  0
  3 20  4  0
  3 22  4  0
  4 11  4  0
  4 21  4  0
  5  9  4  0
  5 16  4  0
  6 15  4  0
  6 16  4  0
  7 22  4  0
  7 26  4  0
  8 10  4  0
  8 25  4  0
  9 15  4  0
  9 17  1  0
 10 21  4  0
 11 25  4  0
 12 23  4  0
 13 20  4  0
 13 26  4  0
 14 19  4  0
 17 18  4  0
 17 24  4  0
 19 23  4  0
 20 24  4  0
 23 26  1  0
M  END
$$$$

 Created by Python create_sdf_string function

 26 30  0  0  0  0  0  0  0  0999 V2000
   10.0084   -1.8019   23.4945 C   0  0  0  0  0  0  0  0  0  0  0  0
   10.0005   -4.2520   16.5631 C   0  0  0  0  0  0  0  0  0  0  0  0
   10.2759   -4.0036   17.8845 C   0  0  0  0  0  0  0  0  0  0  0  0
    8.5652    1.5478   25.3778 N   0  0  0  0  0  0  0  0  0  0  0  0
    6.8048   -7.5457   17.8752 C   0  0  0  0  0  0  0  0  0  0  0  0
    6.1721   -8.2186   15.9886 N   0  0  0  0  0  0  0  0  0  0  0  0
   11.1764   -2.6600   19.5604 C   0  0  0  0  0  0  0  0  0  0  0  0
    9.5491   -0.6380   24.1912 C   0  0  0  0  0  0  0  0  0  0  0  0
    7.5337   -6.9256   16.9519 C   0  0  0  0  0  0  0  0  0  0  0  0
    9.6782    0.5671   23.5143 C   0  0  0  0  0  0  0  0  0  0  0  0
    8.4532    0.3482   26.0821 C   0  0  0  0  0  0  0  0  0  0  0  0
   10.4239   -1.7677   22.2230 N   0  0  0  0  0  0  0  0  0  0  0  0
    9.9468   -4.5953   20.1709 C   0  0  0  0  0  0  0  0  0  0  0  0
   10.0366   -3.0590   23.9864 N   0  0  0  0  0  0  0  0  0  0  0  0
    7.1191   -7.3636   15.7739 C   0  0  0  0  0  0  0  0  0  0  0  0
    5.9612   -8.3203   17.2732 N   0  0  0  0  0  0  0  0  0  0  0  0
    8.5296   -5.9814   17.1841 C   0  0  0  0  0  0  0  0  0  0  0  0
    9.1527   -5.2118   16.2116 C   0  0  0  0  0  0  0  0  0  0  0  0
   10.3364   -3.8368   22.9255 O   0  0  0  0  0  0  0  0  0  0  0  0
    9.6947   -4.8407   18.8534 C   0  0  0  0  0  0  0  0  0  0  0  0
    9.1596    1.7042   24.1381 C   0  0  0  0  0  0  0  0  0  0  0  0
   11.0456   -2.9774   18.2694 N   0  0  0  0  0  0  0  0  0  0  0  0
   10.4788   -3.0457   21.8593 C   0  0  0  0  0  0  0  0  0  0  0  0
    8.8693   -5.8099   18.4657 N   0  0  0  0  0  0  0  0  0  0  0  0
    8.9892   -0.7926   25.4573 C   0  0  0  0  0  0  0  0  0  0  0  0
   10.5677   -3.4462   20.5323 C   0  0  0  0  0  0  0  0  0  0  0  0
  1  8  1  0
  1 12  4  0
  1 14  4  0
  2  3  4  0
  2 18  4  0
  3 20  4  0
  3 22  4  0
  4 11  4  0
  4 21  4  0
  5  9  4  0
  5 16  4  0
  6 15  4  0
  6 16  4  0
  7 22  4  0
  7 26  4  0
  8 10  4  0
  8 25  4  0
  9 15  4  0
  9 17  1  0
 10 21  4  0
 11 25  4  0
 12 23  4  0
 13 20  4  0
 13 26  4  0
 14 19  4  0
 17 18  4  0
 17 24  4  0
 19 23  4  0
 20 24  4  0
 23 26  1  0
M  END
$$$$

 Created by Python create_sdf_string function

 26 30  0  0  0  0  0  0  0  0999 V2000
   10.0084   -1.8019   23.4945 C   0  0  0  0  0  0  0  0  0  0  0  0
   10.0005   -4.2520   16.5631 C   0  0  0  0  0  0  0  0  0  0  0  0
   10.2759   -4.0036   17.8845 C   0  0  0  0  0  0  0  0  0  0  0  0
    8.5652    1.5478   25.3778 N   0  0  0  0  0  0  0  0  0  0  0  0
    6.8048   -7.5457   17.8752 C   0  0  0  0  0  0  0  0  0  0  0  0
    6.1721   -8.2186   15.9886 N   0  0  0  0  0  0  0  0  0  0  0  0
   11.1764   -2.6600   19.5604 C   0  0  0  0  0  0  0  0  0  0  0  0
    9.5491   -0.6380   24.1912 C   0  0  0  0  0  0  0  0  0  0  0  0
    7.5337   -6.9256   16.9519 C   0  0  0  0  0  0  0  0  0  0  0  0
    9.6782    0.5671   23.5143 C   0  0  0  0  0  0  0  0  0  0  0  0
    8.4532    0.3482   26.0821 C   0  0  0  0  0  0  0  0  0  0  0  0
   10.4239   -1.7677   22.2230 N   0  0  0  0  0  0  0  0  0  0  0  0
    9.9468   -4.5953   20.1709 C   0  0  0  0  0  0  0  0  0  0  0  0
   10.0366   -3.0590   23.9864 N   0  0  0  0  0  0  0  0  0  0  0  0
    7.1191   -7.3636   15.7739 C   0  0  0  0  0  0  0  0  0  0  0  0
    5.9612   -8.3203   17.2732 N   0  0  0  0  0  0  0  0  0  0  0  0
    8.5296   -5.9814   17.1841 C   0  0  0  0  0  0  0  0  0  0  0  0
    9.1527   -5.2118   16.2116 C   0  0  0  0  0  0  0  0  0  0  0  0
   10.3364   -3.8368   22.9255 O   0  0  0  0  0  0  0  0  0  0  0  0
    9.6947   -4.8407   18.8534 C   0  0  0  0  0  0  0  0  0  0  0  0
    9.1596    1.7042   24.1381 C   0  0  0  0  0  0  0  0  0  0  0  0
   11.0456   -2.9774   18.2694 N   0  0  0  0  0  0  0  0  0  0  0  0
   10.4788   -3.0457   21.8593 C   0  0  0  0  0  0  0  0  0  0  0  0
    8.8693   -5.8099   18.4657 N   0  0  0  0  0  0  0  0  0  0  0  0
    8.9892   -0.7926   25.4573 C   0  0  0  0  0  0  0  0  0  0  0  0
   10.5677   -3.4462   20.5323 C   0  0  0  0  0  0  0  0  0  0  0  0
  1  8  1  0
  1 12  4  0
  1 14  4  0
  2  3  4  0
  2 18  4  0
  3 20  4  0
  3 22  4  0
  4 11  4  0
  4 21  4  0
  5  9  4  0
  5 16  4  0
  6 15  4  0
  6 16  4  0
  7 22  4  0
  7 26  4  0
  8 10  4  0
  8 25  4  0
  9 15  4  0
  9 17  1  0
 10 21  4  0
 11 25  4  0
 12 23  4  0
 13 20  4  0
 13 26  4  0
 14 19  4  0
 17 18  4  0
 17 24  4  0
 19 23  4  0
 20 24  4  0
 23 26  1  0
M  END
$$$$

 Created by Python create_sdf_string function

 26 30  0  0  0  0  0  0  0  0999 V2000
   10.0084   -1.8019   23.4945 C   0  0  0  0  0  0  0  0  0  0  0  0
   10.0005   -4.2520   16.5631 C   0  0  0  0  0  0  0  0  0  0  0  0
   10.2759   -4.0036   17.8845 C   0  0  0  0  0  0  0  0  0  0  0  0
    8.5652    1.5478   25.3778 N   0  0  0  0  0  0  0  0  0  0  0  0
    6.8048   -7.5457   17.8752 C   0  0  0  0  0  0  0  0  0  0  0  0
    6.1721   -8.2186   15.9886 N   0  0  0  0  0  0  0  0  0  0  0  0
   11.1764   -2.6600   19.5604 C   0  0  0  0  0  0  0  0  0  0  0  0
    9.5491   -0.6380   24.1912 C   0  0  0  0  0  0  0  0  0  0  0  0
    7.5337   -6.9256   16.9519 C   0  0  0  0  0  0  0  0  0  0  0  0
    9.6782    0.5671   23.5143 C   0  0  0  0  0  0  0  0  0  0  0  0
    8.4532    0.3482   26.0821 C   0  0  0  0  0  0  0  0  0  0  0  0
   10.4239   -1.7677   22.2230 N   0  0  0  0  0  0  0  0  0  0  0  0
    9.9468   -4.5953   20.1709 C   0  0  0  0  0  0  0  0  0  0  0  0
   10.0366   -3.0590   23.9864 N   0  0  0  0  0  0  0  0  0  0  0  0
    7.1191   -7.3636   15.7739 C   0  0  0  0  0  0  0  0  0  0  0  0
    5.9612   -8.3203   17.2732 N   0  0  0  0  0  0  0  0  0  0  0  0
    8.5296   -5.9814   17.1841 C   0  0  0  0  0  0  0  0  0  0  0  0
    9.1527   -5.2118   16.2116 C   0  0  0  0  0  0  0  0  0  0  0  0
   10.3364   -3.8368   22.9255 O   0  0  0  0  0  0  0  0  0  0  0  0
    9.6947   -4.8407   18.8534 C   0  0  0  0  0  0  0  0  0  0  0  0
    9.1596    1.7042   24.1381 C   0  0  0  0  0  0  0  0  0  0  0  0
   11.0456   -2.9774   18.2694 N   0  0  0  0  0  0  0  0  0  0  0  0
   10.4788   -3.0457   21.8593 C   0  0  0  0  0  0  0  0  0  0  0  0
    8.8693   -5.8099   18.4657 N   0  0  0  0  0  0  0  0  0  0  0  0
    8.9892   -0.7926   25.4573 C   0  0  0  0  0  0  0  0  0  0  0  0
   10.5677   -3.4462   20.5323 C   0  0  0  0  0  0  0  0  0  0  0  0
  1  8  1  0
  1 12  4  0
  1 14  4  0
  2  3  4  0
  2 18  4  0
  3 20  4  0
  3 22  4  0
  4 11  4  0
  4 21  4  0
  5  9  4  0
  5 16  4  0
  6 15  4  0
  6 16  4  0
  7 22  4  0
  7 26  4  0
  8 10  4  0
  8 25  4  0
  9 15  4  0
  9 17  1  0
 10 21  4  0
 11 25  4  0
 12 23  4  0
 13 20  4  0
 13 26  4  0
 14 19  4  0
 17 18  4  0
 17 24  4  0
 19 23  4  0
 20 24  4  0
 23 26  1  0
M  END
$$$$

 Created by Python create_sdf_string function

 26 30  0  0  0  0  0  0  0  0999 V2000
   10.0084   -1.8019   23.4945 C   0  0  0  0  0  0  0  0  0  0  0  0
   10.0005   -4.2520   16.5631 C   0  0  0  0  0  0  0  0  0  0  0  0
   10.2759   -4.0036   17.8845 C   0  0  0  0  0  0  0  0  0  0  0  0
    8.5652    1.5478   25.3778 N   0  0  0  0  0  0  0  0  0  0  0  0
    6.8048   -7.5457   17.8752 C   0  0  0  0  0  0  0  0  0  0  0  0
    6.1721   -8.2186   15.9886 N   0  0  0  0  0  0  0  0  0  0  0  0
   11.1764   -2.6600   19.5604 C   0  0  0  0  0  0  0  0  0  0  0  0
    9.5491   -0.6380   24.1912 C   0  0  0  0  0  0  0  0  0  0  0  0
    7.5337   -6.9256   16.9519 C   0  0  0  0  0  0  0  0  0  0  0  0
    9.6782    0.5671   23.5143 C   0  0  0  0  0  0  0  0  0  0  0  0
    8.4532    0.3482   26.0821 C   0  0  0  0  0  0  0  0  0  0  0  0
   10.4239   -1.7677   22.2230 N   0  0  0  0  0  0  0  0  0  0  0  0
    9.9468   -4.5953   20.1709 C   0  0  0  0  0  0  0  0  0  0  0  0
   10.0366   -3.0590   23.9864 N   0  0  0  0  0  0  0  0  0  0  0  0
    7.1191   -7.3636   15.7739 C   0  0  0  0  0  0  0  0  0  0  0  0
    5.9612   -8.3203   17.2732 N   0  0  0  0  0  0  0  0  0  0  0  0
    8.5296   -5.9814   17.1841 C   0  0  0  0  0  0  0  0  0  0  0  0
    9.1527   -5.2118   16.2116 C   0  0  0  0  0  0  0  0  0  0  0  0
   10.3364   -3.8368   22.9255 O   0  0  0  0  0  0  0  0  0  0  0  0
    9.6947   -4.8407   18.8534 C   0  0  0  0  0  0  0  0  0  0  0  0
    9.1596    1.7042   24.1381 C   0  0  0  0  0  0  0  0  0  0  0  0
   11.0456   -2.9774   18.2694 N   0  0  0  0  0  0  0  0  0  0  0  0
   10.4788   -3.0457   21.8593 C   0  0  0  0  0  0  0  0  0  0  0  0
    8.8693   -5.8099   18.4657 N   0  0  0  0  0  0  0  0  0  0  0  0
    8.9892   -0.7926   25.4573 C   0  0  0  0  0  0  0  0  0  0  0  0
   10.5677   -3.4462   20.5323 C   0  0  0  0  0  0  0  0  0  0  0  0
  1  8  1  0
  1 12  4  0
  1 14  4  0
  2  3  4  0
  2 18  4  0
  3 20  4  0
  3 22  4  0
  4 11  4  0
  4 21  4  0
  5  9  4  0
  5 16  4  0
  6 15  4  0
  6 16  4  0
  7 22  4  0
  7 26  4  0
  8 10  4  0
  8 25  4  0
  9 15  4  0
  9 17  1  0
 10 21  4  0
 11 25  4  0
 12 23  4  0
 13 20  4  0
 13 26  4  0
 14 19  4  0
 17 18  4  0
 17 24  4  0
 19 23  4  0
 20 24  4  0
 23 26  1  0
M  END
$$$$

 Created by Python create_sdf_string function

 26 30  0  0  0  0  0  0  0  0999 V2000
   10.0084   -1.8019   23.4945 C   0  0  0  0  0  0  0  0  0  0  0  0
   10.0005   -4.2520   16.5631 C   0  0  0  0  0  0  0  0  0  0  0  0
   10.2759   -4.0036   17.8845 C   0  0  0  0  0  0  0  0  0  0  0  0
    8.5652    1.5478   25.3778 N   0  0  0  0  0  0  0  0  0  0  0  0
    6.8048   -7.5457   17.8752 C   0  0  0  0  0  0  0  0  0  0  0  0
    6.1721   -8.2186   15.9886 N   0  0  0  0  0  0  0  0  0  0  0  0
   11.1764   -2.6600   19.5604 C   0  0  0  0  0  0  0  0  0  0  0  0
    9.5491   -0.6380   24.1912 C   0  0  0  0  0  0  0  0  0  0  0  0
    7.5337   -6.9256   16.9519 C   0  0  0  0  0  0  0  0  0  0  0  0
    9.6782    0.5671   23.5143 C   0  0  0  0  0  0  0  0  0  0  0  0
    8.4532    0.3482   26.0821 C   0  0  0  0  0  0  0  0  0  0  0  0
   10.4239   -1.7677   22.2230 N   0  0  0  0  0  0  0  0  0  0  0  0
    9.9468   -4.5953   20.1709 C   0  0  0  0  0  0  0  0  0  0  0  0
   10.0366   -3.0590   23.9864 N   0  0  0  0  0  0  0  0  0  0  0  0
    7.1191   -7.3636   15.7739 C   0  0  0  0  0  0  0  0  0  0  0  0
    5.9612   -8.3203   17.2732 N   0  0  0  0  0  0  0  0  0  0  0  0
    8.5296   -5.9814   17.1841 C   0  0  0  0  0  0  0  0  0  0  0  0
    9.1527   -5.2118   16.2116 C   0  0  0  0  0  0  0  0  0  0  0  0
   10.3364   -3.8368   22.9255 O   0  0  0  0  0  0  0  0  0  0  0  0
    9.6947   -4.8407   18.8534 C   0  0  0  0  0  0  0  0  0  0  0  0
    9.1596    1.7042   24.1381 C   0  0  0  0  0  0  0  0  0  0  0  0
   11.0456   -2.9774   18.2694 N   0  0  0  0  0  0  0  0  0  0  0  0
   10.4788   -3.0457   21.8593 C   0  0  0  0  0  0  0  0  0  0  0  0
    8.8693   -5.8099   18.4657 N   0  0  0  0  0  0  0  0  0  0  0  0
    8.9892   -0.7926   25.4573 C   0  0  0  0  0  0  0  0  0  0  0  0
   10.5677   -3.4462   20.5323 C   0  0  0  0  0  0  0  0  0  0  0  0
  1  8  1  0
  1 12  4  0
  1 14  4  0
  2  3  4  0
  2 18  4  0
  3 20  4  0
  3 22  4  0
  4 11  4  0
  4 21  4  0
  5  9  4  0
  5 16  4  0
  6 15  4  0
  6 16  4  0
  7 22  4  0
  7 26  4  0
  8 10  4  0
  8 25  4  0
  9 15  4  0
  9 17  1  0
 10 21  4  0
 11 25  4  0
 12 23  4  0
 13 20  4  0
 13 26  4  0
 14 19  4  0
 17 18  4  0
 17 24  4  0
 19 23  4  0
 20 24  4  0
 23 26  1  0
M  END
$$$$

 Created by Python create_sdf_string function

 26 30  0  0  0  0  0  0  0  0999 V2000
   10.0084   -1.8019   23.4945 C   0  0  0  0  0  0  0  0  0  0  0  0
   10.0005   -4.2520   16.5631 C   0  0  0  0  0  0  0  0  0  0  0  0
   10.2759   -4.0036   17.8845 C   0  0  0  0  0  0  0  0  0  0  0  0
    8.5652    1.5478   25.3778 N   0  0  0  0  0  0  0  0  0  0  0  0
    6.8048   -7.5457   17.8752 C   0  0  0  0  0  0  0  0  0  0  0  0
    6.1721   -8.2186   15.9886 N   0  0  0  0  0  0  0  0  0  0  0  0
   11.1764   -2.6600   19.5604 C   0  0  0  0  0  0  0  0  0  0  0  0
    9.5491   -0.6380   24.1912 C   0  0  0  0  0  0  0  0  0  0  0  0
    7.5337   -6.9256   16.9519 C   0  0  0  0  0  0  0  0  0  0  0  0
    9.6782    0.5671   23.5143 C   0  0  0  0  0  0  0  0  0  0  0  0
    8.4532    0.3482   26.0821 C   0  0  0  0  0  0  0  0  0  0  0  0
   10.4239   -1.7677   22.2230 N   0  0  0  0  0  0  0  0  0  0  0  0
    9.9468   -4.5953   20.1709 C   0  0  0  0  0  0  0  0  0  0  0  0
   10.0366   -3.0590   23.9864 N   0  0  0  0  0  0  0  0  0  0  0  0
    7.1191   -7.3636   15.7739 C   0  0  0  0  0  0  0  0  0  0  0  0
    5.9612   -8.3203   17.2732 N   0  0  0  0  0  0  0  0  0  0  0  0
    8.5296   -5.9814   17.1841 C   0  0  0  0  0  0  0  0  0  0  0  0
    9.1527   -5.2118   16.2116 C   0  0  0  0  0  0  0  0  0  0  0  0
   10.3364   -3.8368   22.9255 O   0  0  0  0  0  0  0  0  0  0  0  0
    9.6947   -4.8407   18.8534 C   0  0  0  0  0  0  0  0  0  0  0  0
    9.1596    1.7042   24.1381 C   0  0  0  0  0  0  0  0  0  0  0  0
   11.0456   -2.9774   18.2694 N   0  0  0  0  0  0  0  0  0  0  0  0
   10.4788   -3.0457   21.8593 C   0  0  0  0  0  0  0  0  0  0  0  0
    8.8693   -5.8099   18.4657 N   0  0  0  0  0  0  0  0  0  0  0  0
    8.9892   -0.7926   25.4573 C   0  0  0  0  0  0  0  0  0  0  0  0
   10.5677   -3.4462   20.5323 C   0  0  0  0  0  0  0  0  0  0  0  0
  1  8  1  0
  1 12  4  0
  1 14  4  0
  2  3  4  0
  2 18  4  0
  3 20  4  0
  3 22  4  0
  4 11  4  0
  4 21  4  0
  5  9  4  0
  5 16  4  0
  6 15  4  0
  6 16  4  0
  7 22  4  0
  7 26  4  0
  8 10  4  0
  8 25  4  0
  9 15  4  0
  9 17  1  0
 10 21  4  0
 11 25  4  0
 12 23  4  0
 13 20  4  0
 13 26  4  0
 14 19  4  0
 17 18  4  0
 17 24  4  0
 19 23  4  0
 20 24  4  0
 23 26  1  0
M  END
$$$$

 Created by Python create_sdf_string function

 26 30  0  0  0  0  0  0  0  0999 V2000
   10.0084   -1.8019   23.4945 C   0  0  0  0  0  0  0  0  0  0  0  0
   10.0005   -4.2520   16.5631 C   0  0  0  0  0  0  0  0  0  0  0  0
   10.2759   -4.0036   17.8845 C   0  0  0  0  0  0  0  0  0  0  0  0
    8.5652    1.5478   25.3778 N   0  0  0  0  0  0  0  0  0  0  0  0
    6.8048   -7.5457   17.8752 C   0  0  0  0  0  0  0  0  0  0  0  0
    6.1721   -8.2186   15.9886 N   0  0  0  0  0  0  0  0  0  0  0  0
   11.1764   -2.6600   19.5604 C   0  0  0  0  0  0  0  0  0  0  0  0
    9.5491   -0.6380   24.1912 C   0  0  0  0  0  0  0  0  0  0  0  0
    7.5337   -6.9256   16.9519 C   0  0  0  0  0  0  0  0  0  0  0  0
    9.6782    0.5671   23.5143 C   0  0  0  0  0  0  0  0  0  0  0  0
    8.4532    0.3482   26.0821 C   0  0  0  0  0  0  0  0  0  0  0  0
   10.4239   -1.7677   22.2230 N   0  0  0  0  0  0  0  0  0  0  0  0
    9.9468   -4.5953   20.1709 C   0  0  0  0  0  0  0  0  0  0  0  0
   10.0366   -3.0590   23.9864 N   0  0  0  0  0  0  0  0  0  0  0  0
    7.1191   -7.3636   15.7739 C   0  0  0  0  0  0  0  0  0  0  0  0
    5.9612   -8.3203   17.2732 N   0  0  0  0  0  0  0  0  0  0  0  0
    8.5296   -5.9814   17.1841 C   0  0  0  0  0  0  0  0  0  0  0  0
    9.1527   -5.2118   16.2116 C   0  0  0  0  0  0  0  0  0  0  0  0
   10.3364   -3.8368   22.9255 O   0  0  0  0  0  0  0  0  0  0  0  0
    9.6947   -4.8407   18.8534 C   0  0  0  0  0  0  0  0  0  0  0  0
    9.1596    1.7042   24.1381 C   0  0  0  0  0  0  0  0  0  0  0  0
   11.0456   -2.9774   18.2694 N   0  0  0  0  0  0  0  0  0  0  0  0
   10.4788   -3.0457   21.8593 C   0  0  0  0  0  0  0  0  0  0  0  0
    8.8693   -5.8099   18.4657 N   0  0  0  0  0  0  0  0  0  0  0  0
    8.9892   -0.7926   25.4573 C   0  0  0  0  0  0  0  0  0  0  0  0
   10.5677   -3.4462   20.5323 C   0  0  0  0  0  0  0  0  0  0  0  0
  1  8  1  0
  1 12  4  0
  1 14  4  0
  2  3  4  0
  2 18  4  0
  3 20  4  0
  3 22  4  0
  4 11  4  0
  4 21  4  0
  5  9  4  0
  5 16  4  0
  6 15  4  0
  6 16  4  0
  7 22  4  0
  7 26  4  0
  8 10  4  0
  8 25  4  0
  9 15  4  0
  9 17  1  0
 10 21  4  0
 11 25  4  0
 12 23  4  0
 13 20  4  0
 13 26  4  0
 14 19  4  0
 17 18  4  0
 17 24  4  0
 19 23  4  0
 20 24  4  0
 23 26  1  0
M  END
$$$$

 Created by Python create_sdf_string function

 26 30  0  0  0  0  0  0  0  0999 V2000
   10.0084   -1.8019   23.4945 C   0  0  0  0  0  0  0  0  0  0  0  0
   10.0005   -4.2520   16.5631 C   0  0  0  0  0  0  0  0  0  0  0  0
   10.2759   -4.0036   17.8845 C   0  0  0  0  0  0  0  0  0  0  0  0
    8.5652    1.5478   25.3778 N   0  0  0  0  0  0  0  0  0  0  0  0
    6.8048   -7.5457   17.8752 C   0  0  0  0  0  0  0  0  0  0  0  0
    6.1721   -8.2186   15.9886 N   0  0  0  0  0  0  0  0  0  0  0  0
   11.1764   -2.6600   19.5604 C   0  0  0  0  0  0  0  0  0  0  0  0
    9.5491   -0.6380   24.1912 C   0  0  0  0  0  0  0  0  0  0  0  0
    7.5337   -6.9256   16.9519 C   0  0  0  0  0  0  0  0  0  0  0  0
    9.6782    0.5671   23.5143 C   0  0  0  0  0  0  0  0  0  0  0  0
    8.4532    0.3482   26.0821 C   0  0  0  0  0  0  0  0  0  0  0  0
   10.4239   -1.7677   22.2230 N   0  0  0  0  0  0  0  0  0  0  0  0
    9.9468   -4.5953   20.1709 C   0  0  0  0  0  0  0  0  0  0  0  0
   10.0366   -3.0590   23.9864 N   0  0  0  0  0  0  0  0  0  0  0  0
    7.1191   -7.3636   15.7739 C   0  0  0  0  0  0  0  0  0  0  0  0
    5.9612   -8.3203   17.2732 N   0  0  0  0  0  0  0  0  0  0  0  0
    8.5296   -5.9814   17.1841 C   0  0  0  0  0  0  0  0  0  0  0  0
    9.1527   -5.2118   16.2116 C   0  0  0  0  0  0  0  0  0  0  0  0
   10.3364   -3.8368   22.9255 O   0  0  0  0  0  0  0  0  0  0  0  0
    9.6947   -4.8407   18.8534 C   0  0  0  0  0  0  0  0  0  0  0  0
    9.1596    1.7042   24.1381 C   0  0  0  0  0  0  0  0  0  0  0  0
   11.0456   -2.9774   18.2694 N   0  0  0  0  0  0  0  0  0  0  0  0
   10.4788   -3.0457   21.8593 C   0  0  0  0  0  0  0  0  0  0  0  0
    8.8693   -5.8099   18.4657 N   0  0  0  0  0  0  0  0  0  0  0  0
    8.9892   -0.7926   25.4573 C   0  0  0  0  0  0  0  0  0  0  0  0
   10.5677   -3.4462   20.5323 C   0  0  0  0  0  0  0  0  0  0  0  0
  1  8  1  0
  1 12  4  0
  1 14  4  0
  2  3  4  0
  2 18  4  0
  3 20  4  0
  3 22  4  0
  4 11  4  0
  4 21  4  0
  5  9  4  0
  5 16  4  0
  6 15  4  0
  6 16  4  0
  7 22  4  0
  7 26  4  0
  8 10  4  0
  8 25  4  0
  9 15  4  0
  9 17  1  0
 10 21  4  0
 11 25  4  0
 12 23  4  0
 13 20  4  0
 13 26  4  0
 14 19  4  0
 17 18  4  0
 17 24  4  0
 19 23  4  0
 20 24  4  0
 23 26  1  0
M  END
$$$$

 Created by Python create_sdf_string function

 26 30  0  0  0  0  0  0  0  0999 V2000
   10.0084   -1.8019   23.4945 C   0  0  0  0  0  0  0  0  0  0  0  0
   10.0005   -4.2520   16.5631 C   0  0  0  0  0  0  0  0  0  0  0  0
   10.2759   -4.0036   17.8845 C   0  0  0  0  0  0  0  0  0  0  0  0
    8.5652    1.5478   25.3778 N   0  0  0  0  0  0  0  0  0  0  0  0
    6.8048   -7.5457   17.8752 C   0  0  0  0  0  0  0  0  0  0  0  0
    6.1721   -8.2186   15.9886 N   0  0  0  0  0  0  0  0  0  0  0  0
   11.1764   -2.6600   19.5604 C   0  0  0  0  0  0  0  0  0  0  0  0
    9.5491   -0.6380   24.1912 C   0  0  0  0  0  0  0  0  0  0  0  0
    7.5337   -6.9256   16.9519 C   0  0  0  0  0  0  0  0  0  0  0  0
    9.6782    0.5671   23.5143 C   0  0  0  0  0  0  0  0  0  0  0  0
    8.4532    0.3482   26.0821 C   0  0  0  0  0  0  0  0  0  0  0  0
   10.4239   -1.7677   22.2230 N   0  0  0  0  0  0  0  0  0  0  0  0
    9.9468   -4.5953   20.1709 C   0  0  0  0  0  0  0  0  0  0  0  0
   10.0366   -3.0590   23.9864 N   0  0  0  0  0  0  0  0  0  0  0  0
    7.1191   -7.3636   15.7739 C   0  0  0  0  0  0  0  0  0  0  0  0
    5.9612   -8.3203   17.2732 N   0  0  0  0  0  0  0  0  0  0  0  0
    8.5296   -5.9814   17.1841 C   0  0  0  0  0  0  0  0  0  0  0  0
    9.1527   -5.2118   16.2116 C   0  0  0  0  0  0  0  0  0  0  0  0
   10.3364   -3.8368   22.9255 O   0  0  0  0  0  0  0  0  0  0  0  0
    9.6947   -4.8407   18.8534 C   0  0  0  0  0  0  0  0  0  0  0  0
    9.1596    1.7042   24.1381 C   0  0  0  0  0  0  0  0  0  0  0  0
   11.0456   -2.9774   18.2694 N   0  0  0  0  0  0  0  0  0  0  0  0
   10.4788   -3.0457   21.8593 C   0  0  0  0  0  0  0  0  0  0  0  0
    8.8693   -5.8099   18.4657 N   0  0  0  0  0  0  0  0  0  0  0  0
    8.9892   -0.7926   25.4573 C   0  0  0  0  0  0  0  0  0  0  0  0
   10.5677   -3.4462   20.5323 C   0  0  0  0  0  0  0  0  0  0  0  0
  1  8  1  0
  1 12  4  0
  1 14  4  0
  2  3  4  0
  2 18  4  0
  3 20  4  0
  3 22  4  0
  4 11  4  0
  4 21  4  0
  5  9  4  0
  5 16  4  0
  6 15  4  0
  6 16  4  0
  7 22  4  0
  7 26  4  0
  8 10  4  0
  8 25  4  0
  9 15  4  0
  9 17  1  0
 10 21  4  0
 11 25  4  0
 12 23  4  0
 13 20  4  0
 13 26  4  0
 14 19  4  0
 17 18  4  0
 17 24  4  0
 19 23  4  0
 20 24  4  0
 23 26  1  0
M  END
$$$$

 Created by Python create_sdf_string function

 26 30  0  0  0  0  0  0  0  0999 V2000
   10.0084   -1.8019   23.4945 C   0  0  0  0  0  0  0  0  0  0  0  0
   10.0005   -4.2520   16.5631 C   0  0  0  0  0  0  0  0  0  0  0  0
   10.2759   -4.0036   17.8845 C   0  0  0  0  0  0  0  0  0  0  0  0
    8.5652    1.5478   25.3778 N   0  0  0  0  0  0  0  0  0  0  0  0
    6.8048   -7.5457   17.8752 C   0  0  0  0  0  0  0  0  0  0  0  0
    6.1721   -8.2186   15.9886 N   0  0  0  0  0  0  0  0  0  0  0  0
   11.1764   -2.6600   19.5604 C   0  0  0  0  0  0  0  0  0  0  0  0
    9.5491   -0.6380   24.1912 C   0  0  0  0  0  0  0  0  0  0  0  0
    7.5337   -6.9256   16.9519 C   0  0  0  0  0  0  0  0  0  0  0  0
    9.6782    0.5671   23.5143 C   0  0  0  0  0  0  0  0  0  0  0  0
    8.4532    0.3482   26.0821 C   0  0  0  0  0  0  0  0  0  0  0  0
   10.4239   -1.7677   22.2230 N   0  0  0  0  0  0  0  0  0  0  0  0
    9.9468   -4.5953   20.1709 C   0  0  0  0  0  0  0  0  0  0  0  0
   10.0366   -3.0590   23.9864 N   0  0  0  0  0  0  0  0  0  0  0  0
    7.1191   -7.3636   15.7739 C   0  0  0  0  0  0  0  0  0  0  0  0
    5.9612   -8.3203   17.2732 N   0  0  0  0  0  0  0  0  0  0  0  0
    8.5296   -5.9814   17.1841 C   0  0  0  0  0  0  0  0  0  0  0  0
    9.1527   -5.2118   16.2116 C   0  0  0  0  0  0  0  0  0  0  0  0
   10.3364   -3.8368   22.9255 O   0  0  0  0  0  0  0  0  0  0  0  0
    9.6947   -4.8407   18.8534 C   0  0  0  0  0  0  0  0  0  0  0  0
    9.1596    1.7042   24.1381 C   0  0  0  0  0  0  0  0  0  0  0  0
   11.0456   -2.9774   18.2694 N   0  0  0  0  0  0  0  0  0  0  0  0
   10.4788   -3.0457   21.8593 C   0  0  0  0  0  0  0  0  0  0  0  0
    8.8693   -5.8099   18.4657 N   0  0  0  0  0  0  0  0  0  0  0  0
    8.9892   -0.7926   25.4573 C   0  0  0  0  0  0  0  0  0  0  0  0
   10.5677   -3.4462   20.5323 C   0  0  0  0  0  0  0  0  0  0  0  0
  1  8  1  0
  1 12  4  0
  1 14  4  0
  2  3  4  0
  2 18  4  0
  3 20  4  0
  3 22  4  0
  4 11  4  0
  4 21  4  0
  5  9  4  0
  5 16  4  0
  6 15  4  0
  6 16  4  0
  7 22  4  0
  7 26  4  0
  8 10  4  0
  8 25  4  0
  9 15  4  0
  9 17  1  0
 10 21  4  0
 11 25  4  0
 12 23  4  0
 13 20  4  0
 13 26  4  0
 14 19  4  0
 17 18  4  0
 17 24  4  0
 19 23  4  0
 20 24  4  0
 23 26  1  0
M  END
$$$$

 Created by Python create_sdf_string function

 26 30  0  0  0  0  0  0  0  0999 V2000
   10.0084   -1.8019   23.4945 C   0  0  0  0  0  0  0  0  0  0  0  0
   10.0005   -4.2520   16.5631 C   0  0  0  0  0  0  0  0  0  0  0  0
   10.2759   -4.0036   17.8845 C   0  0  0  0  0  0  0  0  0  0  0  0
    8.5652    1.5478   25.3778 N   0  0  0  0  0  0  0  0  0  0  0  0
    6.8048   -7.5457   17.8752 C   0  0  0  0  0  0  0  0  0  0  0  0
    6.1721   -8.2186   15.9886 N   0  0  0  0  0  0  0  0  0  0  0  0
   11.1764   -2.6600   19.5604 C   0  0  0  0  0  0  0  0  0  0  0  0
    9.5491   -0.6380   24.1912 C   0  0  0  0  0  0  0  0  0  0  0  0
    7.5337   -6.9256   16.9519 C   0  0  0  0  0  0  0  0  0  0  0  0
    9.6782    0.5671   23.5143 C   0  0  0  0  0  0  0  0  0  0  0  0
    8.4532    0.3482   26.0821 C   0  0  0  0  0  0  0  0  0  0  0  0
   10.4239   -1.7677   22.2230 N   0  0  0  0  0  0  0  0  0  0  0  0
    9.9468   -4.5953   20.1709 C   0  0  0  0  0  0  0  0  0  0  0  0
   10.0366   -3.0590   23.9864 N   0  0  0  0  0  0  0  0  0  0  0  0
    7.1191   -7.3636   15.7739 C   0  0  0  0  0  0  0  0  0  0  0  0
    5.9612   -8.3203   17.2732 N   0  0  0  0  0  0  0  0  0  0  0  0
    8.5296   -5.9814   17.1841 C   0  0  0  0  0  0  0  0  0  0  0  0
    9.1527   -5.2118   16.2116 C   0  0  0  0  0  0  0  0  0  0  0  0
   10.3364   -3.8368   22.9255 O   0  0  0  0  0  0  0  0  0  0  0  0
    9.6947   -4.8407   18.8534 C   0  0  0  0  0  0  0  0  0  0  0  0
    9.1596    1.7042   24.1381 C   0  0  0  0  0  0  0  0  0  0  0  0
   11.0456   -2.9774   18.2694 N   0  0  0  0  0  0  0  0  0  0  0  0
   10.4788   -3.0457   21.8593 C   0  0  0  0  0  0  0  0  0  0  0  0
    8.8693   -5.8099   18.4657 N   0  0  0  0  0  0  0  0  0  0  0  0
    8.9892   -0.7926   25.4573 C   0  0  0  0  0  0  0  0  0  0  0  0
   10.5677   -3.4462   20.5323 C   0  0  0  0  0  0  0  0  0  0  0  0
  1  8  1  0
  1 12  4  0
  1 14  4  0
  2  3  4  0
  2 18  4  0
  3 20  4  0
  3 22  4  0
  4 11  4  0
  4 21  4  0
  5  9  4  0
  5 16  4  0
  6 15  4  0
  6 16  4  0
  7 22  4  0
  7 26  4  0
  8 10  4  0
  8 25  4  0
  9 15  4  0
  9 17  1  0
 10 21  4  0
 11 25  4  0
 12 23  4  0
 13 20  4  0
 13 26  4  0
 14 19  4  0
 17 18  4  0
 17 24  4  0
 19 23  4  0
 20 24  4  0
 23 26  1  0
M  END
$$$$

 Created by Python create_sdf_string function

 26 30  0  0  0  0  0  0  0  0999 V2000
   10.0084   -1.8019   23.4945 C   0  0  0  0  0  0  0  0  0  0  0  0
   10.0005   -4.2520   16.5631 C   0  0  0  0  0  0  0  0  0  0  0  0
   10.2759   -4.0036   17.8845 C   0  0  0  0  0  0  0  0  0  0  0  0
    8.5652    1.5478   25.3778 N   0  0  0  0  0  0  0  0  0  0  0  0
    6.8048   -7.5457   17.8752 C   0  0  0  0  0  0  0  0  0  0  0  0
    6.1721   -8.2186   15.9886 N   0  0  0  0  0  0  0  0  0  0  0  0
   11.1764   -2.6600   19.5604 C   0  0  0  0  0  0  0  0  0  0  0  0
    9.5491   -0.6380   24.1912 C   0  0  0  0  0  0  0  0  0  0  0  0
    7.5337   -6.9256   16.9519 C   0  0  0  0  0  0  0  0  0  0  0  0
    9.6782    0.5671   23.5143 C   0  0  0  0  0  0  0  0  0  0  0  0
    8.4532    0.3482   26.0821 C   0  0  0  0  0  0  0  0  0  0  0  0
   10.4239   -1.7677   22.2230 N   0  0  0  0  0  0  0  0  0  0  0  0
    9.9468   -4.5953   20.1709 C   0  0  0  0  0  0  0  0  0  0  0  0
   10.0366   -3.0590   23.9864 N   0  0  0  0  0  0  0  0  0  0  0  0
    7.1191   -7.3636   15.7739 C   0  0  0  0  0  0  0  0  0  0  0  0
    5.9612   -8.3203   17.2732 N   0  0  0  0  0  0  0  0  0  0  0  0
    8.5296   -5.9814   17.1841 C   0  0  0  0  0  0  0  0  0  0  0  0
    9.1527   -5.2118   16.2116 C   0  0  0  0  0  0  0  0  0  0  0  0
   10.3364   -3.8368   22.9255 O   0  0  0  0  0  0  0  0  0  0  0  0
    9.6947   -4.8407   18.8534 C   0  0  0  0  0  0  0  0  0  0  0  0
    9.1596    1.7042   24.1381 C   0  0  0  0  0  0  0  0  0  0  0  0
   11.0456   -2.9774   18.2694 N   0  0  0  0  0  0  0  0  0  0  0  0
   10.4788   -3.0457   21.8593 C   0  0  0  0  0  0  0  0  0  0  0  0
    8.8693   -5.8099   18.4657 N   0  0  0  0  0  0  0  0  0  0  0  0
    8.9892   -0.7926   25.4573 C   0  0  0  0  0  0  0  0  0  0  0  0
   10.5677   -3.4462   20.5323 C   0  0  0  0  0  0  0  0  0  0  0  0
  1  8  1  0
  1 12  4  0
  1 14  4  0
  2  3  4  0
  2 18  4  0
  3 20  4  0
  3 22  4  0
  4 11  4  0
  4 21  4  0
  5  9  4  0
  5 16  4  0
  6 15  4  0
  6 16  4  0
  7 22  4  0
  7 26  4  0
  8 10  4  0
  8 25  4  0
  9 15  4  0
  9 17  1  0
 10 21  4  0
 11 25  4  0
 12 23  4  0
 13 20  4  0
 13 26  4  0
 14 19  4  0
 17 18  4  0
 17 24  4  0
 19 23  4  0
 20 24  4  0
 23 26  1  0
M  END
$$$$

 Created by Python create_sdf_string function

 26 30  0  0  0  0  0  0  0  0999 V2000
   10.0084   -1.8019   23.4945 C   0  0  0  0  0  0  0  0  0  0  0  0
   10.0005   -4.2520   16.5631 C   0  0  0  0  0  0  0  0  0  0  0  0
   10.2759   -4.0036   17.8845 C   0  0  0  0  0  0  0  0  0  0  0  0
    8.5652    1.5478   25.3778 N   0  0  0  0  0  0  0  0  0  0  0  0
    6.8048   -7.5457   17.8752 C   0  0  0  0  0  0  0  0  0  0  0  0
    6.1721   -8.2186   15.9886 N   0  0  0  0  0  0  0  0  0  0  0  0
   11.1764   -2.6600   19.5604 C   0  0  0  0  0  0  0  0  0  0  0  0
    9.5491   -0.6380   24.1912 C   0  0  0  0  0  0  0  0  0  0  0  0
    7.5337   -6.9256   16.9519 C   0  0  0  0  0  0  0  0  0  0  0  0
    9.6782    0.5671   23.5143 C   0  0  0  0  0  0  0  0  0  0  0  0
    8.4532    0.3482   26.0821 C   0  0  0  0  0  0  0  0  0  0  0  0
   10.4239   -1.7677   22.2230 N   0  0  0  0  0  0  0  0  0  0  0  0
    9.9468   -4.5953   20.1709 C   0  0  0  0  0  0  0  0  0  0  0  0
   10.0366   -3.0590   23.9864 N   0  0  0  0  0  0  0  0  0  0  0  0
    7.1191   -7.3636   15.7739 C   0  0  0  0  0  0  0  0  0  0  0  0
    5.9612   -8.3203   17.2732 N   0  0  0  0  0  0  0  0  0  0  0  0
    8.5296   -5.9814   17.1841 C   0  0  0  0  0  0  0  0  0  0  0  0
    9.1527   -5.2118   16.2116 C   0  0  0  0  0  0  0  0  0  0  0  0
   10.3364   -3.8368   22.9255 O   0  0  0  0  0  0  0  0  0  0  0  0
    9.6947   -4.8407   18.8534 C   0  0  0  0  0  0  0  0  0  0  0  0
    9.1596    1.7042   24.1381 C   0  0  0  0  0  0  0  0  0  0  0  0
   11.0456   -2.9774   18.2694 N   0  0  0  0  0  0  0  0  0  0  0  0
   10.4788   -3.0457   21.8593 C   0  0  0  0  0  0  0  0  0  0  0  0
    8.8693   -5.8099   18.4657 N   0  0  0  0  0  0  0  0  0  0  0  0
    8.9892   -0.7926   25.4573 C   0  0  0  0  0  0  0  0  0  0  0  0
   10.5677   -3.4462   20.5323 C   0  0  0  0  0  0  0  0  0  0  0  0
  1  8  1  0
  1 12  4  0
  1 14  4  0
  2  3  4  0
  2 18  4  0
  3 20  4  0
  3 22  4  0
  4 11  4  0
  4 21  4  0
  5  9  4  0
  5 16  4  0
  6 15  4  0
  6 16  4  0
  7 22  4  0
  7 26  4  0
  8 10  4  0
  8 25  4  0
  9 15  4  0
  9 17  1  0
 10 21  4  0
 11 25  4  0
 12 23  4  0
 13 20  4  0
 13 26  4  0
 14 19  4  0
 17 18  4  0
 17 24  4  0
 19 23  4  0
 20 24  4  0
 23 26  1  0
M  END
$$$$

 Created by Python create_sdf_string function

 26 30  0  0  0  0  0  0  0  0999 V2000
   10.0084   -1.8019   23.4945 C   0  0  0  0  0  0  0  0  0  0  0  0
   10.0005   -4.2520   16.5631 C   0  0  0  0  0  0  0  0  0  0  0  0
   10.2759   -4.0036   17.8845 C   0  0  0  0  0  0  0  0  0  0  0  0
    8.5652    1.5478   25.3778 N   0  0  0  0  0  0  0  0  0  0  0  0
    6.8048   -7.5457   17.8752 C   0  0  0  0  0  0  0  0  0  0  0  0
    6.1721   -8.2186   15.9886 N   0  0  0  0  0  0  0  0  0  0  0  0
   11.1764   -2.6600   19.5604 C   0  0  0  0  0  0  0  0  0  0  0  0
    9.5491   -0.6380   24.1912 C   0  0  0  0  0  0  0  0  0  0  0  0
    7.5337   -6.9256   16.9519 C   0  0  0  0  0  0  0  0  0  0  0  0
    9.6782    0.5671   23.5143 C   0  0  0  0  0  0  0  0  0  0  0  0
    8.4532    0.3482   26.0821 C   0  0  0  0  0  0  0  0  0  0  0  0
   10.4239   -1.7677   22.2230 N   0  0  0  0  0  0  0  0  0  0  0  0
    9.9468   -4.5953   20.1709 C   0  0  0  0  0  0  0  0  0  0  0  0
   10.0366   -3.0590   23.9864 N   0  0  0  0  0  0  0  0  0  0  0  0
    7.1191   -7.3636   15.7739 C   0  0  0  0  0  0  0  0  0  0  0  0
    5.9612   -8.3203   17.2732 N   0  0  0  0  0  0  0  0  0  0  0  0
    8.5296   -5.9814   17.1841 C   0  0  0  0  0  0  0  0  0  0  0  0
    9.1527   -5.2118   16.2116 C   0  0  0  0  0  0  0  0  0  0  0  0
   10.3364   -3.8368   22.9255 O   0  0  0  0  0  0  0  0  0  0  0  0
    9.6947   -4.8407   18.8534 C   0  0  0  0  0  0  0  0  0  0  0  0
    9.1596    1.7042   24.1381 C   0  0  0  0  0  0  0  0  0  0  0  0
   11.0456   -2.9774   18.2694 N   0  0  0  0  0  0  0  0  0  0  0  0
   10.4788   -3.0457   21.8593 C   0  0  0  0  0  0  0  0  0  0  0  0
    8.8693   -5.8099   18.4657 N   0  0  0  0  0  0  0  0  0  0  0  0
    8.9892   -0.7926   25.4573 C   0  0  0  0  0  0  0  0  0  0  0  0
   10.5677   -3.4462   20.5323 C   0  0  0  0  0  0  0  0  0  0  0  0
  1  8  1  0
  1 12  4  0
  1 14  4  0
  2  3  4  0
  2 18  4  0
  3 20  4  0
  3 22  4  0
  4 11  4  0
  4 21  4  0
  5  9  4  0
  5 16  4  0
  6 15  4  0
  6 16  4  0
  7 22  4  0
  7 26  4  0
  8 10  4  0
  8 25  4  0
  9 15  4  0
  9 17  1  0
 10 21  4  0
 11 25  4  0
 12 23  4  0
 13 20  4  0
 13 26  4  0
 14 19  4  0
 17 18  4  0
 17 24  4  0
 19 23  4  0
 20 24  4  0
 23 26  1  0
M  END
$$$$

 Created by Python create_sdf_string function

 26 30  0  0  0  0  0  0  0  0999 V2000
   10.0084   -1.8019   23.4945 C   0  0  0  0  0  0  0  0  0  0  0  0
   10.0005   -4.2520   16.5631 C   0  0  0  0  0  0  0  0  0  0  0  0
   10.2759   -4.0036   17.8845 C   0  0  0  0  0  0  0  0  0  0  0  0
    8.5652    1.5478   25.3778 N   0  0  0  0  0  0  0  0  0  0  0  0
    6.8048   -7.5457   17.8752 C   0  0  0  0  0  0  0  0  0  0  0  0
    6.1721   -8.2186   15.9886 N   0  0  0  0  0  0  0  0  0  0  0  0
   11.1764   -2.6600   19.5604 C   0  0  0  0  0  0  0  0  0  0  0  0
    9.5491   -0.6380   24.1912 C   0  0  0  0  0  0  0  0  0  0  0  0
    7.5337   -6.9256   16.9519 C   0  0  0  0  0  0  0  0  0  0  0  0
    9.6782    0.5671   23.5143 C   0  0  0  0  0  0  0  0  0  0  0  0
    8.4532    0.3482   26.0821 C   0  0  0  0  0  0  0  0  0  0  0  0
   10.4239   -1.7677   22.2230 N   0  0  0  0  0  0  0  0  0  0  0  0
    9.9468   -4.5953   20.1709 C   0  0  0  0  0  0  0  0  0  0  0  0
   10.0366   -3.0590   23.9864 N   0  0  0  0  0  0  0  0  0  0  0  0
    7.1191   -7.3636   15.7739 C   0  0  0  0  0  0  0  0  0  0  0  0
    5.9612   -8.3203   17.2732 N   0  0  0  0  0  0  0  0  0  0  0  0
    8.5296   -5.9814   17.1841 C   0  0  0  0  0  0  0  0  0  0  0  0
    9.1527   -5.2118   16.2116 C   0  0  0  0  0  0  0  0  0  0  0  0
   10.3364   -3.8368   22.9255 O   0  0  0  0  0  0  0  0  0  0  0  0
    9.6947   -4.8407   18.8534 C   0  0  0  0  0  0  0  0  0  0  0  0
    9.1596    1.7042   24.1381 C   0  0  0  0  0  0  0  0  0  0  0  0
   11.0456   -2.9774   18.2694 N   0  0  0  0  0  0  0  0  0  0  0  0
   10.4788   -3.0457   21.8593 C   0  0  0  0  0  0  0  0  0  0  0  0
    8.8693   -5.8099   18.4657 N   0  0  0  0  0  0  0  0  0  0  0  0
    8.9892   -0.7926   25.4573 C   0  0  0  0  0  0  0  0  0  0  0  0
   10.5677   -3.4462   20.5323 C   0  0  0  0  0  0  0  0  0  0  0  0
  1  8  1  0
  1 12  4  0
  1 14  4  0
  2  3  4  0
  2 18  4  0
  3 20  4  0
  3 22  4  0
  4 11  4  0
  4 21  4  0
  5  9  4  0
  5 16  4  0
  6 15  4  0
  6 16  4  0
  7 22  4  0
  7 26  4  0
  8 10  4  0
  8 25  4  0
  9 15  4  0
  9 17  1  0
 10 21  4  0
 11 25  4  0
 12 23  4  0
 13 20  4  0
 13 26  4  0
 14 19  4  0
 17 18  4  0
 17 24  4  0
 19 23  4  0
 20 24  4  0
 23 26  1  0
M  END
$$$$

 Created by Python create_sdf_string function

 26 30  0  0  0  0  0  0  0  0999 V2000
   10.0084   -1.8019   23.4945 C   0  0  0  0  0  0  0  0  0  0  0  0
   10.0005   -4.2520   16.5631 C   0  0  0  0  0  0  0  0  0  0  0  0
   10.2759   -4.0036   17.8845 C   0  0  0  0  0  0  0  0  0  0  0  0
    8.5652    1.5478   25.3778 N   0  0  0  0  0  0  0  0  0  0  0  0
    6.8048   -7.5457   17.8752 C   0  0  0  0  0  0  0  0  0  0  0  0
    6.1721   -8.2186   15.9886 N   0  0  0  0  0  0  0  0  0  0  0  0
   11.1764   -2.6600   19.5604 C   0  0  0  0  0  0  0  0  0  0  0  0
    9.5491   -0.6380   24.1912 C   0  0  0  0  0  0  0  0  0  0  0  0
    7.5337   -6.9256   16.9519 C   0  0  0  0  0  0  0  0  0  0  0  0
    9.6782    0.5671   23.5143 C   0  0  0  0  0  0  0  0  0  0  0  0
    8.4532    0.3482   26.0821 C   0  0  0  0  0  0  0  0  0  0  0  0
   10.4239   -1.7677   22.2230 N   0  0  0  0  0  0  0  0  0  0  0  0
    9.9468   -4.5953   20.1709 C   0  0  0  0  0  0  0  0  0  0  0  0
   10.0366   -3.0590   23.9864 N   0  0  0  0  0  0  0  0  0  0  0  0
    7.1191   -7.3636   15.7739 C   0  0  0  0  0  0  0  0  0  0  0  0
    5.9612   -8.3203   17.2732 N   0  0  0  0  0  0  0  0  0  0  0  0
    8.5296   -5.9814   17.1841 C   0  0  0  0  0  0  0  0  0  0  0  0
    9.1527   -5.2118   16.2116 C   0  0  0  0  0  0  0  0  0  0  0  0
   10.3364   -3.8368   22.9255 O   0  0  0  0  0  0  0  0  0  0  0  0
    9.6947   -4.8407   18.8534 C   0  0  0  0  0  0  0  0  0  0  0  0
    9.1596    1.7042   24.1381 C   0  0  0  0  0  0  0  0  0  0  0  0
   11.0456   -2.9774   18.2694 N   0  0  0  0  0  0  0  0  0  0  0  0
   10.4788   -3.0457   21.8593 C   0  0  0  0  0  0  0  0  0  0  0  0
    8.8693   -5.8099   18.4657 N   0  0  0  0  0  0  0  0  0  0  0  0
    8.9892   -0.7926   25.4573 C   0  0  0  0  0  0  0  0  0  0  0  0
   10.5677   -3.4462   20.5323 C   0  0  0  0  0  0  0  0  0  0  0  0
  1  8  1  0
  1 12  4  0
  1 14  4  0
  2  3  4  0
  2 18  4  0
  3 20  4  0
  3 22  4  0
  4 11  4  0
  4 21  4  0
  5  9  4  0
  5 16  4  0
  6 15  4  0
  6 16  4  0
  7 22  4  0
  7 26  4  0
  8 10  4  0
  8 25  4  0
  9 15  4  0
  9 17  1  0
 10 21  4  0
 11 25  4  0
 12 23  4  0
 13 20  4  0
 13 26  4  0
 14 19  4  0
 17 18  4  0
 17 24  4  0
 19 23  4  0
 20 24  4  0
 23 26  1  0
M  END
$$$$

 Created by Python create_sdf_string function

 26 30  0  0  0  0  0  0  0  0999 V2000
   10.0084   -1.8019   23.4945 C   0  0  0  0  0  0  0  0  0  0  0  0
   10.0005   -4.2520   16.5631 C   0  0  0  0  0  0  0  0  0  0  0  0
   10.2759   -4.0036   17.8845 C   0  0  0  0  0  0  0  0  0  0  0  0
    8.5652    1.5478   25.3778 N   0  0  0  0  0  0  0  0  0  0  0  0
    6.8048   -7.5457   17.8752 C   0  0  0  0  0  0  0  0  0  0  0  0
    6.1721   -8.2186   15.9886 N   0  0  0  0  0  0  0  0  0  0  0  0
   11.1764   -2.6600   19.5604 C   0  0  0  0  0  0  0  0  0  0  0  0
    9.5491   -0.6380   24.1912 C   0  0  0  0  0  0  0  0  0  0  0  0
    7.5337   -6.9256   16.9519 C   0  0  0  0  0  0  0  0  0  0  0  0
    9.6782    0.5671   23.5143 C   0  0  0  0  0  0  0  0  0  0  0  0
    8.4532    0.3482   26.0821 C   0  0  0  0  0  0  0  0  0  0  0  0
   10.4239   -1.7677   22.2230 N   0  0  0  0  0  0  0  0  0  0  0  0
    9.9468   -4.5953   20.1709 C   0  0  0  0  0  0  0  0  0  0  0  0
   10.0366   -3.0590   23.9864 N   0  0  0  0  0  0  0  0  0  0  0  0
    7.1191   -7.3636   15.7739 C   0  0  0  0  0  0  0  0  0  0  0  0
    5.9612   -8.3203   17.2732 N   0  0  0  0  0  0  0  0  0  0  0  0
    8.5296   -5.9814   17.1841 C   0  0  0  0  0  0  0  0  0  0  0  0
    9.1527   -5.2118   16.2116 C   0  0  0  0  0  0  0  0  0  0  0  0
   10.3364   -3.8368   22.9255 O   0  0  0  0  0  0  0  0  0  0  0  0
    9.6947   -4.8407   18.8534 C   0  0  0  0  0  0  0  0  0  0  0  0
    9.1596    1.7042   24.1381 C   0  0  0  0  0  0  0  0  0  0  0  0
   11.0456   -2.9774   18.2694 N   0  0  0  0  0  0  0  0  0  0  0  0
   10.4788   -3.0457   21.8593 C   0  0  0  0  0  0  0  0  0  0  0  0
    8.8693   -5.8099   18.4657 N   0  0  0  0  0  0  0  0  0  0  0  0
    8.9892   -0.7926   25.4573 C   0  0  0  0  0  0  0  0  0  0  0  0
   10.5677   -3.4462   20.5323 C   0  0  0  0  0  0  0  0  0  0  0  0
  1  8  1  0
  1 12  4  0
  1 14  4  0
  2  3  4  0
  2 18  4  0
  3 20  4  0
  3 22  4  0
  4 11  4  0
  4 21  4  0
  5  9  4  0
  5 16  4  0
  6 15  4  0
  6 16  4  0
  7 22  4  0
  7 26  4  0
  8 10  4  0
  8 25  4  0
  9 15  4  0
  9 17  1  0
 10 21  4  0
 11 25  4  0
 12 23  4  0
 13 20  4  0
 13 26  4  0
 14 19  4  0
 17 18  4  0
 17 24  4  0
 19 23  4  0
 20 24  4  0
 23 26  1  0
M  END
$$$$

 Created by Python create_sdf_string function

 26 30  0  0  0  0  0  0  0  0999 V2000
   10.0084   -1.8019   23.4945 C   0  0  0  0  0  0  0  0  0  0  0  0
   10.0005   -4.2520   16.5631 C   0  0  0  0  0  0  0  0  0  0  0  0
   10.2759   -4.0036   17.8845 C   0  0  0  0  0  0  0  0  0  0  0  0
    8.5652    1.5478   25.3778 N   0  0  0  0  0  0  0  0  0  0  0  0
    6.8048   -7.5457   17.8752 C   0  0  0  0  0  0  0  0  0  0  0  0
    6.1721   -8.2186   15.9886 N   0  0  0  0  0  0  0  0  0  0  0  0
   11.1764   -2.6600   19.5604 C   0  0  0  0  0  0  0  0  0  0  0  0
    9.5491   -0.6380   24.1912 C   0  0  0  0  0  0  0  0  0  0  0  0
    7.5337   -6.9256   16.9519 C   0  0  0  0  0  0  0  0  0  0  0  0
    9.6782    0.5671   23.5143 C   0  0  0  0  0  0  0  0  0  0  0  0
    8.4532    0.3482   26.0821 C   0  0  0  0  0  0  0  0  0  0  0  0
   10.4239   -1.7677   22.2230 N   0  0  0  0  0  0  0  0  0  0  0  0
    9.9468   -4.5953   20.1709 C   0  0  0  0  0  0  0  0  0  0  0  0
   10.0366   -3.0590   23.9864 N   0  0  0  0  0  0  0  0  0  0  0  0
    7.1191   -7.3636   15.7739 C   0  0  0  0  0  0  0  0  0  0  0  0
    5.9612   -8.3203   17.2732 N   0  0  0  0  0  0  0  0  0  0  0  0
    8.5296   -5.9814   17.1841 C   0  0  0  0  0  0  0  0  0  0  0  0
    9.1527   -5.2118   16.2116 C   0  0  0  0  0  0  0  0  0  0  0  0
   10.3364   -3.8368   22.9255 O   0  0  0  0  0  0  0  0  0  0  0  0
    9.6947   -4.8407   18.8534 C   0  0  0  0  0  0  0  0  0  0  0  0
    9.1596    1.7042   24.1381 C   0  0  0  0  0  0  0  0  0  0  0  0
   11.0456   -2.9774   18.2694 N   0  0  0  0  0  0  0  0  0  0  0  0
   10.4788   -3.0457   21.8593 C   0  0  0  0  0  0  0  0  0  0  0  0
    8.8693   -5.8099   18.4657 N   0  0  0  0  0  0  0  0  0  0  0  0
    8.9892   -0.7926   25.4573 C   0  0  0  0  0  0  0  0  0  0  0  0
   10.5677   -3.4462   20.5323 C   0  0  0  0  0  0  0  0  0  0  0  0
  1  8  1  0
  1 12  4  0
  1 14  4  0
  2  3  4  0
  2 18  4  0
  3 20  4  0
  3 22  4  0
  4 11  4  0
  4 21  4  0
  5  9  4  0
  5 16  4  0
  6 15  4  0
  6 16  4  0
  7 22  4  0
  7 26  4  0
  8 10  4  0
  8 25  4  0
  9 15  4  0
  9 17  1  0
 10 21  4  0
 11 25  4  0
 12 23  4  0
 13 20  4  0
 13 26  4  0
 14 19  4  0
 17 18  4  0
 17 24  4  0
 19 23  4  0
 20 24  4  0
 23 26  1  0
M  END
$$$$

 Created by Python create_sdf_string function

 26 30  0  0  0  0  0  0  0  0999 V2000
   10.0084   -1.8019   23.4945 C   0  0  0  0  0  0  0  0  0  0  0  0
   10.0005   -4.2520   16.5631 C   0  0  0  0  0  0  0  0  0  0  0  0
   10.2759   -4.0036   17.8845 C   0  0  0  0  0  0  0  0  0  0  0  0
    8.5652    1.5478   25.3778 N   0  0  0  0  0  0  0  0  0  0  0  0
    6.8048   -7.5457   17.8752 C   0  0  0  0  0  0  0  0  0  0  0  0
    6.1721   -8.2186   15.9886 N   0  0  0  0  0  0  0  0  0  0  0  0
   11.1764   -2.6600   19.5604 C   0  0  0  0  0  0  0  0  0  0  0  0
    9.5491   -0.6380   24.1912 C   0  0  0  0  0  0  0  0  0  0  0  0
    7.5337   -6.9256   16.9519 C   0  0  0  0  0  0  0  0  0  0  0  0
    9.6782    0.5671   23.5143 C   0  0  0  0  0  0  0  0  0  0  0  0
    8.4532    0.3482   26.0821 C   0  0  0  0  0  0  0  0  0  0  0  0
   10.4239   -1.7677   22.2230 N   0  0  0  0  0  0  0  0  0  0  0  0
    9.9468   -4.5953   20.1709 C   0  0  0  0  0  0  0  0  0  0  0  0
   10.0366   -3.0590   23.9864 N   0  0  0  0  0  0  0  0  0  0  0  0
    7.1191   -7.3636   15.7739 C   0  0  0  0  0  0  0  0  0  0  0  0
    5.9612   -8.3203   17.2732 N   0  0  0  0  0  0  0  0  0  0  0  0
    8.5296   -5.9814   17.1841 C   0  0  0  0  0  0  0  0  0  0  0  0
    9.1527   -5.2118   16.2116 C   0  0  0  0  0  0  0  0  0  0  0  0
   10.3364   -3.8368   22.9255 O   0  0  0  0  0  0  0  0  0  0  0  0
    9.6947   -4.8407   18.8534 C   0  0  0  0  0  0  0  0  0  0  0  0
    9.1596    1.7042   24.1381 C   0  0  0  0  0  0  0  0  0  0  0  0
   11.0456   -2.9774   18.2694 N   0  0  0  0  0  0  0  0  0  0  0  0
   10.4788   -3.0457   21.8593 C   0  0  0  0  0  0  0  0  0  0  0  0
    8.8693   -5.8099   18.4657 N   0  0  0  0  0  0  0  0  0  0  0  0
    8.9892   -0.7926   25.4573 C   0  0  0  0  0  0  0  0  0  0  0  0
   10.5677   -3.4462   20.5323 C   0  0  0  0  0  0  0  0  0  0  0  0
  1  8  1  0
  1 12  4  0
  1 14  4  0
  2  3  4  0
  2 18  4  0
  3 20  4  0
  3 22  4  0
  4 11  4  0
  4 21  4  0
  5  9  4  0
  5 16  4  0
  6 15  4  0
  6 16  4  0
  7 22  4  0
  7 26  4  0
  8 10  4  0
  8 25  4  0
  9 15  4  0
  9 17  1  0
 10 21  4  0
 11 25  4  0
 12 23  4  0
 13 20  4  0
 13 26  4  0
 14 19  4  0
 17 18  4  0
 17 24  4  0
 19 23  4  0
 20 24  4  0
 23 26  1  0
M  END
$$$$

 Created by Python create_sdf_string function

 26 30  0  0  0  0  0  0  0  0999 V2000
   10.0084   -1.8019   23.4945 C   0  0  0  0  0  0  0  0  0  0  0  0
   10.0005   -4.2520   16.5631 C   0  0  0  0  0  0  0  0  0  0  0  0
   10.2759   -4.0036   17.8845 C   0  0  0  0  0  0  0  0  0  0  0  0
    8.5652    1.5478   25.3778 N   0  0  0  0  0  0  0  0  0  0  0  0
    6.8048   -7.5457   17.8752 C   0  0  0  0  0  0  0  0  0  0  0  0
    6.1721   -8.2186   15.9886 N   0  0  0  0  0  0  0  0  0  0  0  0
   11.1764   -2.6600   19.5604 C   0  0  0  0  0  0  0  0  0  0  0  0
    9.5491   -0.6380   24.1912 C   0  0  0  0  0  0  0  0  0  0  0  0
    7.5337   -6.9256   16.9519 C   0  0  0  0  0  0  0  0  0  0  0  0
    9.6782    0.5671   23.5143 C   0  0  0  0  0  0  0  0  0  0  0  0
    8.4532    0.3482   26.0821 C   0  0  0  0  0  0  0  0  0  0  0  0
   10.4239   -1.7677   22.2230 N   0  0  0  0  0  0  0  0  0  0  0  0
    9.9468   -4.5953   20.1709 C   0  0  0  0  0  0  0  0  0  0  0  0
   10.0366   -3.0590   23.9864 N   0  0  0  0  0  0  0  0  0  0  0  0
    7.1191   -7.3636   15.7739 C   0  0  0  0  0  0  0  0  0  0  0  0
    5.9612   -8.3203   17.2732 N   0  0  0  0  0  0  0  0  0  0  0  0
    8.5296   -5.9814   17.1841 C   0  0  0  0  0  0  0  0  0  0  0  0
    9.1527   -5.2118   16.2116 C   0  0  0  0  0  0  0  0  0  0  0  0
   10.3364   -3.8368   22.9255 O   0  0  0  0  0  0  0  0  0  0  0  0
    9.6947   -4.8407   18.8534 C   0  0  0  0  0  0  0  0  0  0  0  0
    9.1596    1.7042   24.1381 C   0  0  0  0  0  0  0  0  0  0  0  0
   11.0456   -2.9774   18.2694 N   0  0  0  0  0  0  0  0  0  0  0  0
   10.4788   -3.0457   21.8593 C   0  0  0  0  0  0  0  0  0  0  0  0
    8.8693   -5.8099   18.4657 N   0  0  0  0  0  0  0  0  0  0  0  0
    8.9892   -0.7926   25.4573 C   0  0  0  0  0  0  0  0  0  0  0  0
   10.5677   -3.4462   20.5323 C   0  0  0  0  0  0  0  0  0  0  0  0
  1  8  1  0
  1 12  4  0
  1 14  4  0
  2  3  4  0
  2 18  4  0
  3 20  4  0
  3 22  4  0
  4 11  4  0
  4 21  4  0
  5  9  4  0
  5 16  4  0
  6 15  4  0
  6 16  4  0
  7 22  4  0
  7 26  4  0
  8 10  4  0
  8 25  4  0
  9 15  4  0
  9 17  1  0
 10 21  4  0
 11 25  4  0
 12 23  4  0
 13 20  4  0
 13 26  4  0
 14 19  4  0
 17 18  4  0
 17 24  4  0
 19 23  4  0
 20 24  4  0
 23 26  1  0
M  END
$$$$

 Created by Python create_sdf_string function

 26 30  0  0  0  0  0  0  0  0999 V2000
   10.0084   -1.8019   23.4945 C   0  0  0  0  0  0  0  0  0  0  0  0
   10.0005   -4.2520   16.5631 C   0  0  0  0  0  0  0  0  0  0  0  0
   10.2759   -4.0036   17.8845 C   0  0  0  0  0  0  0  0  0  0  0  0
    8.5652    1.5478   25.3778 N   0  0  0  0  0  0  0  0  0  0  0  0
    6.8048   -7.5457   17.8752 C   0  0  0  0  0  0  0  0  0  0  0  0
    6.1721   -8.2186   15.9886 N   0  0  0  0  0  0  0  0  0  0  0  0
   11.1764   -2.6600   19.5604 C   0  0  0  0  0  0  0  0  0  0  0  0
    9.5491   -0.6380   24.1912 C   0  0  0  0  0  0  0  0  0  0  0  0
    7.5337   -6.9256   16.9519 C   0  0  0  0  0  0  0  0  0  0  0  0
    9.6782    0.5671   23.5143 C   0  0  0  0  0  0  0  0  0  0  0  0
    8.4532    0.3482   26.0821 C   0  0  0  0  0  0  0  0  0  0  0  0
   10.4239   -1.7677   22.2230 N   0  0  0  0  0  0  0  0  0  0  0  0
    9.9468   -4.5953   20.1709 C   0  0  0  0  0  0  0  0  0  0  0  0
   10.0366   -3.0590   23.9864 N   0  0  0  0  0  0  0  0  0  0  0  0
    7.1191   -7.3636   15.7739 C   0  0  0  0  0  0  0  0  0  0  0  0
    5.9612   -8.3203   17.2732 N   0  0  0  0  0  0  0  0  0  0  0  0
    8.5296   -5.9814   17.1841 C   0  0  0  0  0  0  0  0  0  0  0  0
    9.1527   -5.2118   16.2116 C   0  0  0  0  0  0  0  0  0  0  0  0
   10.3364   -3.8368   22.9255 O   0  0  0  0  0  0  0  0  0  0  0  0
    9.6947   -4.8407   18.8534 C   0  0  0  0  0  0  0  0  0  0  0  0
    9.1596    1.7042   24.1381 C   0  0  0  0  0  0  0  0  0  0  0  0
   11.0456   -2.9774   18.2694 N   0  0  0  0  0  0  0  0  0  0  0  0
   10.4788   -3.0457   21.8593 C   0  0  0  0  0  0  0  0  0  0  0  0
    8.8693   -5.8099   18.4657 N   0  0  0  0  0  0  0  0  0  0  0  0
    8.9892   -0.7926   25.4573 C   0  0  0  0  0  0  0  0  0  0  0  0
   10.5677   -3.4462   20.5323 C   0  0  0  0  0  0  0  0  0  0  0  0
  1  8  1  0
  1 12  4  0
  1 14  4  0
  2  3  4  0
  2 18  4  0
  3 20  4  0
  3 22  4  0
  4 11  4  0
  4 21  4  0
  5  9  4  0
  5 16  4  0
  6 15  4  0
  6 16  4  0
  7 22  4  0
  7 26  4  0
  8 10  4  0
  8 25  4  0
  9 15  4  0
  9 17  1  0
 10 21  4  0
 11 25  4  0
 12 23  4  0
 13 20  4  0
 13 26  4  0
 14 19  4  0
 17 18  4  0
 17 24  4  0
 19 23  4  0
 20 24  4  0
 23 26  1  0
M  END
$$$$

 Created by Python create_sdf_string function

 26 30  0  0  0  0  0  0  0  0999 V2000
   10.0084   -1.8019   23.4945 C   0  0  0  0  0  0  0  0  0  0  0  0
   10.0005   -4.2520   16.5631 C   0  0  0  0  0  0  0  0  0  0  0  0
   10.2759   -4.0036   17.8845 C   0  0  0  0  0  0  0  0  0  0  0  0
    8.5652    1.5478   25.3778 N   0  0  0  0  0  0  0  0  0  0  0  0
    6.8048   -7.5457   17.8752 C   0  0  0  0  0  0  0  0  0  0  0  0
    6.1721   -8.2186   15.9886 N   0  0  0  0  0  0  0  0  0  0  0  0
   11.1764   -2.6600   19.5604 C   0  0  0  0  0  0  0  0  0  0  0  0
    9.5491   -0.6380   24.1912 C   0  0  0  0  0  0  0  0  0  0  0  0
    7.5337   -6.9256   16.9519 C   0  0  0  0  0  0  0  0  0  0  0  0
    9.6782    0.5671   23.5143 C   0  0  0  0  0  0  0  0  0  0  0  0
    8.4532    0.3482   26.0821 C   0  0  0  0  0  0  0  0  0  0  0  0
   10.4239   -1.7677   22.2230 N   0  0  0  0  0  0  0  0  0  0  0  0
    9.9468   -4.5953   20.1709 C   0  0  0  0  0  0  0  0  0  0  0  0
   10.0366   -3.0590   23.9864 N   0  0  0  0  0  0  0  0  0  0  0  0
    7.1191   -7.3636   15.7739 C   0  0  0  0  0  0  0  0  0  0  0  0
    5.9612   -8.3203   17.2732 N   0  0  0  0  0  0  0  0  0  0  0  0
    8.5296   -5.9814   17.1841 C   0  0  0  0  0  0  0  0  0  0  0  0
    9.1527   -5.2118   16.2116 C   0  0  0  0  0  0  0  0  0  0  0  0
   10.3364   -3.8368   22.9255 O   0  0  0  0  0  0  0  0  0  0  0  0
    9.6947   -4.8407   18.8534 C   0  0  0  0  0  0  0  0  0  0  0  0
    9.1596    1.7042   24.1381 C   0  0  0  0  0  0  0  0  0  0  0  0
   11.0456   -2.9774   18.2694 N   0  0  0  0  0  0  0  0  0  0  0  0
   10.4788   -3.0457   21.8593 C   0  0  0  0  0  0  0  0  0  0  0  0
    8.8693   -5.8099   18.4657 N   0  0  0  0  0  0  0  0  0  0  0  0
    8.9892   -0.7926   25.4573 C   0  0  0  0  0  0  0  0  0  0  0  0
   10.5677   -3.4462   20.5323 C   0  0  0  0  0  0  0  0  0  0  0  0
  1  8  1  0
  1 12  4  0
  1 14  4  0
  2  3  4  0
  2 18  4  0
  3 20  4  0
  3 22  4  0
  4 11  4  0
  4 21  4  0
  5  9  4  0
  5 16  4  0
  6 15  4  0
  6 16  4  0
  7 22  4  0
  7 26  4  0
  8 10  4  0
  8 25  4  0
  9 15  4  0
  9 17  1  0
 10 21  4  0
 11 25  4  0
 12 23  4  0
 13 20  4  0
 13 26  4  0
 14 19  4  0
 17 18  4  0
 17 24  4  0
 19 23  4  0
 20 24  4  0
 23 26  1  0
M  END
$$$$

 Created by Python create_sdf_string function

 26 30  0  0  0  0  0  0  0  0999 V2000
   10.0084   -1.8019   23.4945 C   0  0  0  0  0  0  0  0  0  0  0  0
   10.0005   -4.2520   16.5631 C   0  0  0  0  0  0  0  0  0  0  0  0
   10.2759   -4.0036   17.8845 C   0  0  0  0  0  0  0  0  0  0  0  0
    8.5652    1.5478   25.3778 N   0  0  0  0  0  0  0  0  0  0  0  0
    6.8048   -7.5457   17.8752 C   0  0  0  0  0  0  0  0  0  0  0  0
    6.1721   -8.2186   15.9886 N   0  0  0  0  0  0  0  0  0  0  0  0
   11.1764   -2.6600   19.5604 C   0  0  0  0  0  0  0  0  0  0  0  0
    9.5491   -0.6380   24.1912 C   0  0  0  0  0  0  0  0  0  0  0  0
    7.5337   -6.9256   16.9519 C   0  0  0  0  0  0  0  0  0  0  0  0
    9.6782    0.5671   23.5143 C   0  0  0  0  0  0  0  0  0  0  0  0
    8.4532    0.3482   26.0821 C   0  0  0  0  0  0  0  0  0  0  0  0
   10.4239   -1.7677   22.2230 N   0  0  0  0  0  0  0  0  0  0  0  0
    9.9468   -4.5953   20.1709 C   0  0  0  0  0  0  0  0  0  0  0  0
   10.0366   -3.0590   23.9864 N   0  0  0  0  0  0  0  0  0  0  0  0
    7.1191   -7.3636   15.7739 C   0  0  0  0  0  0  0  0  0  0  0  0
    5.9612   -8.3203   17.2732 N   0  0  0  0  0  0  0  0  0  0  0  0
    8.5296   -5.9814   17.1841 C   0  0  0  0  0  0  0  0  0  0  0  0
    9.1527   -5.2118   16.2116 C   0  0  0  0  0  0  0  0  0  0  0  0
   10.3364   -3.8368   22.9255 O   0  0  0  0  0  0  0  0  0  0  0  0
    9.6947   -4.8407   18.8534 C   0  0  0  0  0  0  0  0  0  0  0  0
    9.1596    1.7042   24.1381 C   0  0  0  0  0  0  0  0  0  0  0  0
   11.0456   -2.9774   18.2694 N   0  0  0  0  0  0  0  0  0  0  0  0
   10.4788   -3.0457   21.8593 C   0  0  0  0  0  0  0  0  0  0  0  0
    8.8693   -5.8099   18.4657 N   0  0  0  0  0  0  0  0  0  0  0  0
    8.9892   -0.7926   25.4573 C   0  0  0  0  0  0  0  0  0  0  0  0
   10.5677   -3.4462   20.5323 C   0  0  0  0  0  0  0  0  0  0  0  0
  1  8  1  0
  1 12  4  0
  1 14  4  0
  2  3  4  0
  2 18  4  0
  3 20  4  0
  3 22  4  0
  4 11  4  0
  4 21  4  0
  5  9  4  0
  5 16  4  0
  6 15  4  0
  6 16  4  0
  7 22  4  0
  7 26  4  0
  8 10  4  0
  8 25  4  0
  9 15  4  0
  9 17  1  0
 10 21  4  0
 11 25  4  0
 12 23  4  0
 13 20  4  0
 13 26  4  0
 14 19  4  0
 17 18  4  0
 17 24  4  0
 19 23  4  0
 20 24  4  0
 23 26  1  0
M  END
$$$$

 Created by Python create_sdf_string function

 26 30  0  0  0  0  0  0  0  0999 V2000
   10.0084   -1.8019   23.4945 C   0  0  0  0  0  0  0  0  0  0  0  0
   10.0005   -4.2520   16.5631 C   0  0  0  0  0  0  0  0  0  0  0  0
   10.2759   -4.0036   17.8845 C   0  0  0  0  0  0  0  0  0  0  0  0
    8.5652    1.5478   25.3778 N   0  0  0  0  0  0  0  0  0  0  0  0
    6.8048   -7.5457   17.8752 C   0  0  0  0  0  0  0  0  0  0  0  0
    6.1721   -8.2186   15.9886 N   0  0  0  0  0  0  0  0  0  0  0  0
   11.1764   -2.6600   19.5604 C   0  0  0  0  0  0  0  0  0  0  0  0
    9.5491   -0.6380   24.1912 C   0  0  0  0  0  0  0  0  0  0  0  0
    7.5337   -6.9256   16.9519 C   0  0  0  0  0  0  0  0  0  0  0  0
    9.6782    0.5671   23.5143 C   0  0  0  0  0  0  0  0  0  0  0  0
    8.4532    0.3482   26.0821 C   0  0  0  0  0  0  0  0  0  0  0  0
   10.4239   -1.7677   22.2230 N   0  0  0  0  0  0  0  0  0  0  0  0
    9.9468   -4.5953   20.1709 C   0  0  0  0  0  0  0  0  0  0  0  0
   10.0366   -3.0590   23.9864 N   0  0  0  0  0  0  0  0  0  0  0  0
    7.1191   -7.3636   15.7739 C   0  0  0  0  0  0  0  0  0  0  0  0
    5.9612   -8.3203   17.2732 N   0  0  0  0  0  0  0  0  0  0  0  0
    8.5296   -5.9814   17.1841 C   0  0  0  0  0  0  0  0  0  0  0  0
    9.1527   -5.2118   16.2116 C   0  0  0  0  0  0  0  0  0  0  0  0
   10.3364   -3.8368   22.9255 O   0  0  0  0  0  0  0  0  0  0  0  0
    9.6947   -4.8407   18.8534 C   0  0  0  0  0  0  0  0  0  0  0  0
    9.1596    1.7042   24.1381 C   0  0  0  0  0  0  0  0  0  0  0  0
   11.0456   -2.9774   18.2694 N   0  0  0  0  0  0  0  0  0  0  0  0
   10.4788   -3.0457   21.8593 C   0  0  0  0  0  0  0  0  0  0  0  0
    8.8693   -5.8099   18.4657 N   0  0  0  0  0  0  0  0  0  0  0  0
    8.9892   -0.7926   25.4573 C   0  0  0  0  0  0  0  0  0  0  0  0
   10.5677   -3.4462   20.5323 C   0  0  0  0  0  0  0  0  0  0  0  0
  1  8  1  0
  1 12  4  0
  1 14  4  0
  2  3  4  0
  2 18  4  0
  3 20  4  0
  3 22  4  0
  4 11  4  0
  4 21  4  0
  5  9  4  0
  5 16  4  0
  6 15  4  0
  6 16  4  0
  7 22  4  0
  7 26  4  0
  8 10  4  0
  8 25  4  0
  9 15  4  0
  9 17  1  0
 10 21  4  0
 11 25  4  0
 12 23  4  0
 13 20  4  0
 13 26  4  0
 14 19  4  0
 17 18  4  0
 17 24  4  0
 19 23  4  0
 20 24  4  0
 23 26  1  0
M  END
$$$$

 Created by Python create_sdf_string function

 26 30  0  0  0  0  0  0  0  0999 V2000
   10.0084   -1.8019   23.4945 C   0  0  0  0  0  0  0  0  0  0  0  0
   10.0005   -4.2520   16.5631 C   0  0  0  0  0  0  0  0  0  0  0  0
   10.2759   -4.0036   17.8845 C   0  0  0  0  0  0  0  0  0  0  0  0
    8.5652    1.5478   25.3778 N   0  0  0  0  0  0  0  0  0  0  0  0
    6.8048   -7.5457   17.8752 C   0  0  0  0  0  0  0  0  0  0  0  0
    6.1721   -8.2186   15.9886 N   0  0  0  0  0  0  0  0  0  0  0  0
   11.1764   -2.6600   19.5604 C   0  0  0  0  0  0  0  0  0  0  0  0
    9.5491   -0.6380   24.1912 C   0  0  0  0  0  0  0  0  0  0  0  0
    7.5337   -6.9256   16.9519 C   0  0  0  0  0  0  0  0  0  0  0  0
    9.6782    0.5671   23.5143 C   0  0  0  0  0  0  0  0  0  0  0  0
    8.4532    0.3482   26.0821 C   0  0  0  0  0  0  0  0  0  0  0  0
   10.4239   -1.7677   22.2230 N   0  0  0  0  0  0  0  0  0  0  0  0
    9.9468   -4.5953   20.1709 C   0  0  0  0  0  0  0  0  0  0  0  0
   10.0366   -3.0590   23.9864 N   0  0  0  0  0  0  0  0  0  0  0  0
    7.1191   -7.3636   15.7739 C   0  0  0  0  0  0  0  0  0  0  0  0
    5.9612   -8.3203   17.2732 N   0  0  0  0  0  0  0  0  0  0  0  0
    8.5296   -5.9814   17.1841 C   0  0  0  0  0  0  0  0  0  0  0  0
    9.1527   -5.2118   16.2116 C   0  0  0  0  0  0  0  0  0  0  0  0
   10.3364   -3.8368   22.9255 O   0  0  0  0  0  0  0  0  0  0  0  0
    9.6947   -4.8407   18.8534 C   0  0  0  0  0  0  0  0  0  0  0  0
    9.1596    1.7042   24.1381 C   0  0  0  0  0  0  0  0  0  0  0  0
   11.0456   -2.9774   18.2694 N   0  0  0  0  0  0  0  0  0  0  0  0
   10.4788   -3.0457   21.8593 C   0  0  0  0  0  0  0  0  0  0  0  0
    8.8693   -5.8099   18.4657 N   0  0  0  0  0  0  0  0  0  0  0  0
    8.9892   -0.7926   25.4573 C   0  0  0  0  0  0  0  0  0  0  0  0
   10.5677   -3.4462   20.5323 C   0  0  0  0  0  0  0  0  0  0  0  0
  1  8  1  0
  1 12  4  0
  1 14  4  0
  2  3  4  0
  2 18  4  0
  3 20  4  0
  3 22  4  0
  4 11  4  0
  4 21  4  0
  5  9  4  0
  5 16  4  0
  6 15  4  0
  6 16  4  0
  7 22  4  0
  7 26  4  0
  8 10  4  0
  8 25  4  0
  9 15  4  0
  9 17  1  0
 10 21  4  0
 11 25  4  0
 12 23  4  0
 13 20  4  0
 13 26  4  0
 14 19  4  0
 17 18  4  0
 17 24  4  0
 19 23  4  0
 20 24  4  0
 23 26  1  0
M  END
$$$$

 Created by Python create_sdf_string function

 26 30  0  0  0  0  0  0  0  0999 V2000
   10.0084   -1.8019   23.4945 C   0  0  0  0  0  0  0  0  0  0  0  0
   10.0005   -4.2520   16.5631 C   0  0  0  0  0  0  0  0  0  0  0  0
   10.2759   -4.0036   17.8845 C   0  0  0  0  0  0  0  0  0  0  0  0
    8.5652    1.5478   25.3778 N   0  0  0  0  0  0  0  0  0  0  0  0
    6.8048   -7.5457   17.8752 C   0  0  0  0  0  0  0  0  0  0  0  0
    6.1721   -8.2186   15.9886 N   0  0  0  0  0  0  0  0  0  0  0  0
   11.1764   -2.6600   19.5604 C   0  0  0  0  0  0  0  0  0  0  0  0
    9.5491   -0.6380   24.1912 C   0  0  0  0  0  0  0  0  0  0  0  0
    7.5337   -6.9256   16.9519 C   0  0  0  0  0  0  0  0  0  0  0  0
    9.6782    0.5671   23.5143 C   0  0  0  0  0  0  0  0  0  0  0  0
    8.4532    0.3482   26.0821 C   0  0  0  0  0  0  0  0  0  0  0  0
   10.4239   -1.7677   22.2230 N   0  0  0  0  0  0  0  0  0  0  0  0
    9.9468   -4.5953   20.1709 C   0  0  0  0  0  0  0  0  0  0  0  0
   10.0366   -3.0590   23.9864 N   0  0  0  0  0  0  0  0  0  0  0  0
    7.1191   -7.3636   15.7739 C   0  0  0  0  0  0  0  0  0  0  0  0
    5.9612   -8.3203   17.2732 N   0  0  0  0  0  0  0  0  0  0  0  0
    8.5296   -5.9814   17.1841 C   0  0  0  0  0  0  0  0  0  0  0  0
    9.1527   -5.2118   16.2116 C   0  0  0  0  0  0  0  0  0  0  0  0
   10.3364   -3.8368   22.9255 O   0  0  0  0  0  0  0  0  0  0  0  0
    9.6947   -4.8407   18.8534 C   0  0  0  0  0  0  0  0  0  0  0  0
    9.1596    1.7042   24.1381 C   0  0  0  0  0  0  0  0  0  0  0  0
   11.0456   -2.9774   18.2694 N   0  0  0  0  0  0  0  0  0  0  0  0
   10.4788   -3.0457   21.8593 C   0  0  0  0  0  0  0  0  0  0  0  0
    8.8693   -5.8099   18.4657 N   0  0  0  0  0  0  0  0  0  0  0  0
    8.9892   -0.7926   25.4573 C   0  0  0  0  0  0  0  0  0  0  0  0
   10.5677   -3.4462   20.5323 C   0  0  0  0  0  0  0  0  0  0  0  0
  1  8  1  0
  1 12  4  0
  1 14  4  0
  2  3  4  0
  2 18  4  0
  3 20  4  0
  3 22  4  0
  4 11  4  0
  4 21  4  0
  5  9  4  0
  5 16  4  0
  6 15  4  0
  6 16  4  0
  7 22  4  0
  7 26  4  0
  8 10  4  0
  8 25  4  0
  9 15  4  0
  9 17  1  0
 10 21  4  0
 11 25  4  0
 12 23  4  0
 13 20  4  0
 13 26  4  0
 14 19  4  0
 17 18  4  0
 17 24  4  0
 19 23  4  0
 20 24  4  0
 23 26  1  0
M  END
$$$$

 Created by Python create_sdf_string function

 26 30  0  0  0  0  0  0  0  0999 V2000
   10.0084   -1.8019   23.4945 C   0  0  0  0  0  0  0  0  0  0  0  0
   10.0005   -4.2520   16.5631 C   0  0  0  0  0  0  0  0  0  0  0  0
   10.2759   -4.0036   17.8845 C   0  0  0  0  0  0  0  0  0  0  0  0
    8.5652    1.5478   25.3778 N   0  0  0  0  0  0  0  0  0  0  0  0
    6.8048   -7.5457   17.8752 C   0  0  0  0  0  0  0  0  0  0  0  0
    6.1721   -8.2186   15.9886 N   0  0  0  0  0  0  0  0  0  0  0  0
   11.1764   -2.6600   19.5604 C   0  0  0  0  0  0  0  0  0  0  0  0
    9.5491   -0.6380   24.1912 C   0  0  0  0  0  0  0  0  0  0  0  0
    7.5337   -6.9256   16.9519 C   0  0  0  0  0  0  0  0  0  0  0  0
    9.6782    0.5671   23.5143 C   0  0  0  0  0  0  0  0  0  0  0  0
    8.4532    0.3482   26.0821 C   0  0  0  0  0  0  0  0  0  0  0  0
   10.4239   -1.7677   22.2230 N   0  0  0  0  0  0  0  0  0  0  0  0
    9.9468   -4.5953   20.1709 C   0  0  0  0  0  0  0  0  0  0  0  0
   10.0366   -3.0590   23.9864 N   0  0  0  0  0  0  0  0  0  0  0  0
    7.1191   -7.3636   15.7739 C   0  0  0  0  0  0  0  0  0  0  0  0
    5.9612   -8.3203   17.2732 N   0  0  0  0  0  0  0  0  0  0  0  0
    8.5296   -5.9814   17.1841 C   0  0  0  0  0  0  0  0  0  0  0  0
    9.1527   -5.2118   16.2116 C   0  0  0  0  0  0  0  0  0  0  0  0
   10.3364   -3.8368   22.9255 O   0  0  0  0  0  0  0  0  0  0  0  0
    9.6947   -4.8407   18.8534 C   0  0  0  0  0  0  0  0  0  0  0  0
    9.1596    1.7042   24.1381 C   0  0  0  0  0  0  0  0  0  0  0  0
   11.0456   -2.9774   18.2694 N   0  0  0  0  0  0  0  0  0  0  0  0
   10.4788   -3.0457   21.8593 C   0  0  0  0  0  0  0  0  0  0  0  0
    8.8693   -5.8099   18.4657 N   0  0  0  0  0  0  0  0  0  0  0  0
    8.9892   -0.7926   25.4573 C   0  0  0  0  0  0  0  0  0  0  0  0
   10.5677   -3.4462   20.5323 C   0  0  0  0  0  0  0  0  0  0  0  0
  1  8  1  0
  1 12  4  0
  1 14  4  0
  2  3  4  0
  2 18  4  0
  3 20  4  0
  3 22  4  0
  4 11  4  0
  4 21  4  0
  5  9  4  0
  5 16  4  0
  6 15  4  0
  6 16  4  0
  7 22  4  0
  7 26  4  0
  8 10  4  0
  8 25  4  0
  9 15  4  0
  9 17  1  0
 10 21  4  0
 11 25  4  0
 12 23  4  0
 13 20  4  0
 13 26  4  0
 14 19  4  0
 17 18  4  0
 17 24  4  0
 19 23  4  0
 20 24  4  0
 23 26  1  0
M  END
$$$$

 Created by Python create_sdf_string function

 26 30  0  0  0  0  0  0  0  0999 V2000
   10.0084   -1.8019   23.4945 C   0  0  0  0  0  0  0  0  0  0  0  0
   10.0005   -4.2520   16.5631 C   0  0  0  0  0  0  0  0  0  0  0  0
   10.2759   -4.0036   17.8845 C   0  0  0  0  0  0  0  0  0  0  0  0
    8.5652    1.5478   25.3778 N   0  0  0  0  0  0  0  0  0  0  0  0
    6.8048   -7.5457   17.8752 C   0  0  0  0  0  0  0  0  0  0  0  0
    6.1721   -8.2186   15.9886 N   0  0  0  0  0  0  0  0  0  0  0  0
   11.1764   -2.6600   19.5604 C   0  0  0  0  0  0  0  0  0  0  0  0
    9.5491   -0.6380   24.1912 C   0  0  0  0  0  0  0  0  0  0  0  0
    7.5337   -6.9256   16.9519 C   0  0  0  0  0  0  0  0  0  0  0  0
    9.6782    0.5671   23.5143 C   0  0  0  0  0  0  0  0  0  0  0  0
    8.4532    0.3482   26.0821 C   0  0  0  0  0  0  0  0  0  0  0  0
   10.4239   -1.7677   22.2230 N   0  0  0  0  0  0  0  0  0  0  0  0
    9.9468   -4.5953   20.1709 C   0  0  0  0  0  0  0  0  0  0  0  0
   10.0366   -3.0590   23.9864 N   0  0  0  0  0  0  0  0  0  0  0  0
    7.1191   -7.3636   15.7739 C   0  0  0  0  0  0  0  0  0  0  0  0
    5.9612   -8.3203   17.2732 N   0  0  0  0  0  0  0  0  0  0  0  0
    8.5296   -5.9814   17.1841 C   0  0  0  0  0  0  0  0  0  0  0  0
    9.1527   -5.2118   16.2116 C   0  0  0  0  0  0  0  0  0  0  0  0
   10.3364   -3.8368   22.9255 O   0  0  0  0  0  0  0  0  0  0  0  0
    9.6947   -4.8407   18.8534 C   0  0  0  0  0  0  0  0  0  0  0  0
    9.1596    1.7042   24.1381 C   0  0  0  0  0  0  0  0  0  0  0  0
   11.0456   -2.9774   18.2694 N   0  0  0  0  0  0  0  0  0  0  0  0
   10.4788   -3.0457   21.8593 C   0  0  0  0  0  0  0  0  0  0  0  0
    8.8693   -5.8099   18.4657 N   0  0  0  0  0  0  0  0  0  0  0  0
    8.9892   -0.7926   25.4573 C   0  0  0  0  0  0  0  0  0  0  0  0
   10.5677   -3.4462   20.5323 C   0  0  0  0  0  0  0  0  0  0  0  0
  1  8  1  0
  1 12  4  0
  1 14  4  0
  2  3  4  0
  2 18  4  0
  3 20  4  0
  3 22  4  0
  4 11  4  0
  4 21  4  0
  5  9  4  0
  5 16  4  0
  6 15  4  0
  6 16  4  0
  7 22  4  0
  7 26  4  0
  8 10  4  0
  8 25  4  0
  9 15  4  0
  9 17  1  0
 10 21  4  0
 11 25  4  0
 12 23  4  0
 13 20  4  0
 13 26  4  0
 14 19  4  0
 17 18  4  0
 17 24  4  0
 19 23  4  0
 20 24  4  0
 23 26  1  0
M  END
$$$$

 Created by Python create_sdf_string function

 26 30  0  0  0  0  0  0  0  0999 V2000
   10.0084   -1.8019   23.4945 C   0  0  0  0  0  0  0  0  0  0  0  0
   10.0005   -4.2520   16.5631 C   0  0  0  0  0  0  0  0  0  0  0  0
   10.2759   -4.0036   17.8845 C   0  0  0  0  0  0  0  0  0  0  0  0
    8.5652    1.5478   25.3778 N   0  0  0  0  0  0  0  0  0  0  0  0
    6.8048   -7.5457   17.8752 C   0  0  0  0  0  0  0  0  0  0  0  0
    6.1721   -8.2186   15.9886 N   0  0  0  0  0  0  0  0  0  0  0  0
   11.1764   -2.6600   19.5604 C   0  0  0  0  0  0  0  0  0  0  0  0
    9.5491   -0.6380   24.1912 C   0  0  0  0  0  0  0  0  0  0  0  0
    7.5337   -6.9256   16.9519 C   0  0  0  0  0  0  0  0  0  0  0  0
    9.6782    0.5671   23.5143 C   0  0  0  0  0  0  0  0  0  0  0  0
    8.4532    0.3482   26.0821 C   0  0  0  0  0  0  0  0  0  0  0  0
   10.4239   -1.7677   22.2230 N   0  0  0  0  0  0  0  0  0  0  0  0
    9.9468   -4.5953   20.1709 C   0  0  0  0  0  0  0  0  0  0  0  0
   10.0366   -3.0590   23.9864 N   0  0  0  0  0  0  0  0  0  0  0  0
    7.1191   -7.3636   15.7739 C   0  0  0  0  0  0  0  0  0  0  0  0
    5.9612   -8.3203   17.2732 N   0  0  0  0  0  0  0  0  0  0  0  0
    8.5296   -5.9814   17.1841 C   0  0  0  0  0  0  0  0  0  0  0  0
    9.1527   -5.2118   16.2116 C   0  0  0  0  0  0  0  0  0  0  0  0
   10.3364   -3.8368   22.9255 O   0  0  0  0  0  0  0  0  0  0  0  0
    9.6947   -4.8407   18.8534 C   0  0  0  0  0  0  0  0  0  0  0  0
    9.1596    1.7042   24.1381 C   0  0  0  0  0  0  0  0  0  0  0  0
   11.0456   -2.9774   18.2694 N   0  0  0  0  0  0  0  0  0  0  0  0
   10.4788   -3.0457   21.8593 C   0  0  0  0  0  0  0  0  0  0  0  0
    8.8693   -5.8099   18.4657 N   0  0  0  0  0  0  0  0  0  0  0  0
    8.9892   -0.7926   25.4573 C   0  0  0  0  0  0  0  0  0  0  0  0
   10.5677   -3.4462   20.5323 C   0  0  0  0  0  0  0  0  0  0  0  0
  1  8  1  0
  1 12  4  0
  1 14  4  0
  2  3  4  0
  2 18  4  0
  3 20  4  0
  3 22  4  0
  4 11  4  0
  4 21  4  0
  5  9  4  0
  5 16  4  0
  6 15  4  0
  6 16  4  0
  7 22  4  0
  7 26  4  0
  8 10  4  0
  8 25  4  0
  9 15  4  0
  9 17  1  0
 10 21  4  0
 11 25  4  0
 12 23  4  0
 13 20  4  0
 13 26  4  0
 14 19  4  0
 17 18  4  0
 17 24  4  0
 19 23  4  0
 20 24  4  0
 23 26  1  0
M  END
$$$$

 Created by Python create_sdf_string function

 26 30  0  0  0  0  0  0  0  0999 V2000
   10.0084   -1.8019   23.4945 C   0  0  0  0  0  0  0  0  0  0  0  0
   10.0005   -4.2520   16.5631 C   0  0  0  0  0  0  0  0  0  0  0  0
   10.2759   -4.0036   17.8845 C   0  0  0  0  0  0  0  0  0  0  0  0
    8.5652    1.5478   25.3778 N   0  0  0  0  0  0  0  0  0  0  0  0
    6.8048   -7.5457   17.8752 C   0  0  0  0  0  0  0  0  0  0  0  0
    6.1721   -8.2186   15.9886 N   0  0  0  0  0  0  0  0  0  0  0  0
   11.1764   -2.6600   19.5604 C   0  0  0  0  0  0  0  0  0  0  0  0
    9.5491   -0.6380   24.1912 C   0  0  0  0  0  0  0  0  0  0  0  0
    7.5337   -6.9256   16.9519 C   0  0  0  0  0  0  0  0  0  0  0  0
    9.6782    0.5671   23.5143 C   0  0  0  0  0  0  0  0  0  0  0  0
    8.4532    0.3482   26.0821 C   0  0  0  0  0  0  0  0  0  0  0  0
   10.4239   -1.7677   22.2230 N   0  0  0  0  0  0  0  0  0  0  0  0
    9.9468   -4.5953   20.1709 C   0  0  0  0  0  0  0  0  0  0  0  0
   10.0366   -3.0590   23.9864 N   0  0  0  0  0  0  0  0  0  0  0  0
    7.1191   -7.3636   15.7739 C   0  0  0  0  0  0  0  0  0  0  0  0
    5.9612   -8.3203   17.2732 N   0  0  0  0  0  0  0  0  0  0  0  0
    8.5296   -5.9814   17.1841 C   0  0  0  0  0  0  0  0  0  0  0  0
    9.1527   -5.2118   16.2116 C   0  0  0  0  0  0  0  0  0  0  0  0
   10.3364   -3.8368   22.9255 O   0  0  0  0  0  0  0  0  0  0  0  0
    9.6947   -4.8407   18.8534 C   0  0  0  0  0  0  0  0  0  0  0  0
    9.1596    1.7042   24.1381 C   0  0  0  0  0  0  0  0  0  0  0  0
   11.0456   -2.9774   18.2694 N   0  0  0  0  0  0  0  0  0  0  0  0
   10.4788   -3.0457   21.8593 C   0  0  0  0  0  0  0  0  0  0  0  0
    8.8693   -5.8099   18.4657 N   0  0  0  0  0  0  0  0  0  0  0  0
    8.9892   -0.7926   25.4573 C   0  0  0  0  0  0  0  0  0  0  0  0
   10.5677   -3.4462   20.5323 C   0  0  0  0  0  0  0  0  0  0  0  0
  1  8  1  0
  1 12  4  0
  1 14  4  0
  2  3  4  0
  2 18  4  0
  3 20  4  0
  3 22  4  0
  4 11  4  0
  4 21  4  0
  5  9  4  0
  5 16  4  0
  6 15  4  0
  6 16  4  0
  7 22  4  0
  7 26  4  0
  8 10  4  0
  8 25  4  0
  9 15  4  0
  9 17  1  0
 10 21  4  0
 11 25  4  0
 12 23  4  0
 13 20  4  0
 13 26  4  0
 14 19  4  0
 17 18  4  0
 17 24  4  0
 19 23  4  0
 20 24  4  0
 23 26  1  0
M  END
$$$$

 Created by Python create_sdf_string function

 26 30  0  0  0  0  0  0  0  0999 V2000
   10.0084   -1.8019   23.4945 C   0  0  0  0  0  0  0  0  0  0  0  0
   10.0005   -4.2520   16.5631 C   0  0  0  0  0  0  0  0  0  0  0  0
   10.2759   -4.0036   17.8845 C   0  0  0  0  0  0  0  0  0  0  0  0
    8.5652    1.5478   25.3778 N   0  0  0  0  0  0  0  0  0  0  0  0
    6.8048   -7.5457   17.8752 C   0  0  0  0  0  0  0  0  0  0  0  0
    6.1721   -8.2186   15.9886 N   0  0  0  0  0  0  0  0  0  0  0  0
   11.1764   -2.6600   19.5604 C   0  0  0  0  0  0  0  0  0  0  0  0
    9.5491   -0.6380   24.1912 C   0  0  0  0  0  0  0  0  0  0  0  0
    7.5337   -6.9256   16.9519 C   0  0  0  0  0  0  0  0  0  0  0  0
    9.6782    0.5671   23.5143 C   0  0  0  0  0  0  0  0  0  0  0  0
    8.4532    0.3482   26.0821 C   0  0  0  0  0  0  0  0  0  0  0  0
   10.4239   -1.7677   22.2230 N   0  0  0  0  0  0  0  0  0  0  0  0
    9.9468   -4.5953   20.1709 C   0  0  0  0  0  0  0  0  0  0  0  0
   10.0366   -3.0590   23.9864 N   0  0  0  0  0  0  0  0  0  0  0  0
    7.1191   -7.3636   15.7739 C   0  0  0  0  0  0  0  0  0  0  0  0
    5.9612   -8.3203   17.2732 N   0  0  0  0  0  0  0  0  0  0  0  0
    8.5296   -5.9814   17.1841 C   0  0  0  0  0  0  0  0  0  0  0  0
    9.1527   -5.2118   16.2116 C   0  0  0  0  0  0  0  0  0  0  0  0
   10.3364   -3.8368   22.9255 O   0  0  0  0  0  0  0  0  0  0  0  0
    9.6947   -4.8407   18.8534 C   0  0  0  0  0  0  0  0  0  0  0  0
    9.1596    1.7042   24.1381 C   0  0  0  0  0  0  0  0  0  0  0  0
   11.0456   -2.9774   18.2694 N   0  0  0  0  0  0  0  0  0  0  0  0
   10.4788   -3.0457   21.8593 C   0  0  0  0  0  0  0  0  0  0  0  0
    8.8693   -5.8099   18.4657 N   0  0  0  0  0  0  0  0  0  0  0  0
    8.9892   -0.7926   25.4573 C   0  0  0  0  0  0  0  0  0  0  0  0
   10.5677   -3.4462   20.5323 C   0  0  0  0  0  0  0  0  0  0  0  0
  1  8  1  0
  1 12  4  0
  1 14  4  0
  2  3  4  0
  2 18  4  0
  3 20  4  0
  3 22  4  0
  4 11  4  0
  4 21  4  0
  5  9  4  0
  5 16  4  0
  6 15  4  0
  6 16  4  0
  7 22  4  0
  7 26  4  0
  8 10  4  0
  8 25  4  0
  9 15  4  0
  9 17  1  0
 10 21  4  0
 11 25  4  0
 12 23  4  0
 13 20  4  0
 13 26  4  0
 14 19  4  0
 17 18  4  0
 17 24  4  0
 19 23  4  0
 20 24  4  0
 23 26  1  0
M  END
$$$$

 Created by Python create_sdf_string function

 26 30  0  0  0  0  0  0  0  0999 V2000
   10.0084   -1.8019   23.4945 C   0  0  0  0  0  0  0  0  0  0  0  0
   10.0005   -4.2520   16.5631 C   0  0  0  0  0  0  0  0  0  0  0  0
   10.2759   -4.0036   17.8845 C   0  0  0  0  0  0  0  0  0  0  0  0
    8.5652    1.5478   25.3778 N   0  0  0  0  0  0  0  0  0  0  0  0
    6.8048   -7.5457   17.8752 C   0  0  0  0  0  0  0  0  0  0  0  0
    6.1721   -8.2186   15.9886 N   0  0  0  0  0  0  0  0  0  0  0  0
   11.1764   -2.6600   19.5604 C   0  0  0  0  0  0  0  0  0  0  0  0
    9.5491   -0.6380   24.1912 C   0  0  0  0  0  0  0  0  0  0  0  0
    7.5337   -6.9256   16.9519 C   0  0  0  0  0  0  0  0  0  0  0  0
    9.6782    0.5671   23.5143 C   0  0  0  0  0  0  0  0  0  0  0  0
    8.4532    0.3482   26.0821 C   0  0  0  0  0  0  0  0  0  0  0  0
   10.4239   -1.7677   22.2230 N   0  0  0  0  0  0  0  0  0  0  0  0
    9.9468   -4.5953   20.1709 C   0  0  0  0  0  0  0  0  0  0  0  0
   10.0366   -3.0590   23.9864 N   0  0  0  0  0  0  0  0  0  0  0  0
    7.1191   -7.3636   15.7739 C   0  0  0  0  0  0  0  0  0  0  0  0
    5.9612   -8.3203   17.2732 N   0  0  0  0  0  0  0  0  0  0  0  0
    8.5296   -5.9814   17.1841 C   0  0  0  0  0  0  0  0  0  0  0  0
    9.1527   -5.2118   16.2116 C   0  0  0  0  0  0  0  0  0  0  0  0
   10.3364   -3.8368   22.9255 O   0  0  0  0  0  0  0  0  0  0  0  0
    9.6947   -4.8407   18.8534 C   0  0  0  0  0  0  0  0  0  0  0  0
    9.1596    1.7042   24.1381 C   0  0  0  0  0  0  0  0  0  0  0  0
   11.0456   -2.9774   18.2694 N   0  0  0  0  0  0  0  0  0  0  0  0
   10.4788   -3.0457   21.8593 C   0  0  0  0  0  0  0  0  0  0  0  0
    8.8693   -5.8099   18.4657 N   0  0  0  0  0  0  0  0  0  0  0  0
    8.9892   -0.7926   25.4573 C   0  0  0  0  0  0  0  0  0  0  0  0
   10.5677   -3.4462   20.5323 C   0  0  0  0  0  0  0  0  0  0  0  0
  1  8  1  0
  1 12  4  0
  1 14  4  0
  2  3  4  0
  2 18  4  0
  3 20  4  0
  3 22  4  0
  4 11  4  0
  4 21  4  0
  5  9  4  0
  5 16  4  0
  6 15  4  0
  6 16  4  0
  7 22  4  0
  7 26  4  0
  8 10  4  0
  8 25  4  0
  9 15  4  0
  9 17  1  0
 10 21  4  0
 11 25  4  0
 12 23  4  0
 13 20  4  0
 13 26  4  0
 14 19  4  0
 17 18  4  0
 17 24  4  0
 19 23  4  0
 20 24  4  0
 23 26  1  0
M  END
$$$$

 Created by Python create_sdf_string function

 26 30  0  0  0  0  0  0  0  0999 V2000
   10.0084   -1.8019   23.4945 C   0  0  0  0  0  0  0  0  0  0  0  0
   10.0005   -4.2520   16.5631 C   0  0  0  0  0  0  0  0  0  0  0  0
   10.2759   -4.0036   17.8845 C   0  0  0  0  0  0  0  0  0  0  0  0
    8.5652    1.5478   25.3778 N   0  0  0  0  0  0  0  0  0  0  0  0
    6.8048   -7.5457   17.8752 C   0  0  0  0  0  0  0  0  0  0  0  0
    6.1721   -8.2186   15.9886 N   0  0  0  0  0  0  0  0  0  0  0  0
   11.1764   -2.6600   19.5604 C   0  0  0  0  0  0  0  0  0  0  0  0
    9.5491   -0.6380   24.1912 C   0  0  0  0  0  0  0  0  0  0  0  0
    7.5337   -6.9256   16.9519 C   0  0  0  0  0  0  0  0  0  0  0  0
    9.6782    0.5671   23.5143 C   0  0  0  0  0  0  0  0  0  0  0  0
    8.4532    0.3482   26.0821 C   0  0  0  0  0  0  0  0  0  0  0  0
   10.4239   -1.7677   22.2230 N   0  0  0  0  0  0  0  0  0  0  0  0
    9.9468   -4.5953   20.1709 C   0  0  0  0  0  0  0  0  0  0  0  0
   10.0366   -3.0590   23.9864 N   0  0  0  0  0  0  0  0  0  0  0  0
    7.1191   -7.3636   15.7739 C   0  0  0  0  0  0  0  0  0  0  0  0
    5.9612   -8.3203   17.2732 N   0  0  0  0  0  0  0  0  0  0  0  0
    8.5296   -5.9814   17.1841 C   0  0  0  0  0  0  0  0  0  0  0  0
    9.1527   -5.2118   16.2116 C   0  0  0  0  0  0  0  0  0  0  0  0
   10.3364   -3.8368   22.9255 O   0  0  0  0  0  0  0  0  0  0  0  0
    9.6947   -4.8407   18.8534 C   0  0  0  0  0  0  0  0  0  0  0  0
    9.1596    1.7042   24.1381 C   0  0  0  0  0  0  0  0  0  0  0  0
   11.0456   -2.9774   18.2694 N   0  0  0  0  0  0  0  0  0  0  0  0
   10.4788   -3.0457   21.8593 C   0  0  0  0  0  0  0  0  0  0  0  0
    8.8693   -5.8099   18.4657 N   0  0  0  0  0  0  0  0  0  0  0  0
    8.9892   -0.7926   25.4573 C   0  0  0  0  0  0  0  0  0  0  0  0
   10.5677   -3.4462   20.5323 C   0  0  0  0  0  0  0  0  0  0  0  0
  1  8  1  0
  1 12  4  0
  1 14  4  0
  2  3  4  0
  2 18  4  0
  3 20  4  0
  3 22  4  0
  4 11  4  0
  4 21  4  0
  5  9  4  0
  5 16  4  0
  6 15  4  0
  6 16  4  0
  7 22  4  0
  7 26  4  0
  8 10  4  0
  8 25  4  0
  9 15  4  0
  9 17  1  0
 10 21  4  0
 11 25  4  0
 12 23  4  0
 13 20  4  0
 13 26  4  0
 14 19  4  0
 17 18  4  0
 17 24  4  0
 19 23  4  0
 20 24  4  0
 23 26  1  0
M  END
$$$$

 Created by Python create_sdf_string function

 26 30  0  0  0  0  0  0  0  0999 V2000
   10.0084   -1.8019   23.4945 C   0  0  0  0  0  0  0  0  0  0  0  0
   10.0005   -4.2520   16.5631 C   0  0  0  0  0  0  0  0  0  0  0  0
   10.2759   -4.0036   17.8845 C   0  0  0  0  0  0  0  0  0  0  0  0
    8.5652    1.5478   25.3778 N   0  0  0  0  0  0  0  0  0  0  0  0
    6.8048   -7.5457   17.8752 C   0  0  0  0  0  0  0  0  0  0  0  0
    6.1721   -8.2186   15.9886 N   0  0  0  0  0  0  0  0  0  0  0  0
   11.1764   -2.6600   19.5604 C   0  0  0  0  0  0  0  0  0  0  0  0
    9.5491   -0.6380   24.1912 C   0  0  0  0  0  0  0  0  0  0  0  0
    7.5337   -6.9256   16.9519 C   0  0  0  0  0  0  0  0  0  0  0  0
    9.6782    0.5671   23.5143 C   0  0  0  0  0  0  0  0  0  0  0  0
    8.4532    0.3482   26.0821 C   0  0  0  0  0  0  0  0  0  0  0  0
   10.4239   -1.7677   22.2230 N   0  0  0  0  0  0  0  0  0  0  0  0
    9.9468   -4.5953   20.1709 C   0  0  0  0  0  0  0  0  0  0  0  0
   10.0366   -3.0590   23.9864 N   0  0  0  0  0  0  0  0  0  0  0  0
    7.1191   -7.3636   15.7739 C   0  0  0  0  0  0  0  0  0  0  0  0
    5.9612   -8.3203   17.2732 N   0  0  0  0  0  0  0  0  0  0  0  0
    8.5296   -5.9814   17.1841 C   0  0  0  0  0  0  0  0  0  0  0  0
    9.1527   -5.2118   16.2116 C   0  0  0  0  0  0  0  0  0  0  0  0
   10.3364   -3.8368   22.9255 O   0  0  0  0  0  0  0  0  0  0  0  0
    9.6947   -4.8407   18.8534 C   0  0  0  0  0  0  0  0  0  0  0  0
    9.1596    1.7042   24.1381 C   0  0  0  0  0  0  0  0  0  0  0  0
   11.0456   -2.9774   18.2694 N   0  0  0  0  0  0  0  0  0  0  0  0
   10.4788   -3.0457   21.8593 C   0  0  0  0  0  0  0  0  0  0  0  0
    8.8693   -5.8099   18.4657 N   0  0  0  0  0  0  0  0  0  0  0  0
    8.9892   -0.7926   25.4573 C   0  0  0  0  0  0  0  0  0  0  0  0
   10.5677   -3.4462   20.5323 C   0  0  0  0  0  0  0  0  0  0  0  0
  1  8  1  0
  1 12  4  0
  1 14  4  0
  2  3  4  0
  2 18  4  0
  3 20  4  0
  3 22  4  0
  4 11  4  0
  4 21  4  0
  5  9  4  0
  5 16  4  0
  6 15  4  0
  6 16  4  0
  7 22  4  0
  7 26  4  0
  8 10  4  0
  8 25  4  0
  9 15  4  0
  9 17  1  0
 10 21  4  0
 11 25  4  0
 12 23  4  0
 13 20  4  0
 13 26  4  0
 14 19  4  0
 17 18  4  0
 17 24  4  0
 19 23  4  0
 20 24  4  0
 23 26  1  0
M  END
$$$$

 Created by Python create_sdf_string function

 26 30  0  0  0  0  0  0  0  0999 V2000
   10.0084   -1.8019   23.4945 C   0  0  0  0  0  0  0  0  0  0  0  0
   10.0005   -4.2520   16.5631 C   0  0  0  0  0  0  0  0  0  0  0  0
   10.2759   -4.0036   17.8845 C   0  0  0  0  0  0  0  0  0  0  0  0
    8.5652    1.5478   25.3778 N   0  0  0  0  0  0  0  0  0  0  0  0
    6.8048   -7.5457   17.8752 C   0  0  0  0  0  0  0  0  0  0  0  0
    6.1721   -8.2186   15.9886 N   0  0  0  0  0  0  0  0  0  0  0  0
   11.1764   -2.6600   19.5604 C   0  0  0  0  0  0  0  0  0  0  0  0
    9.5491   -0.6380   24.1912 C   0  0  0  0  0  0  0  0  0  0  0  0
    7.5337   -6.9256   16.9519 C   0  0  0  0  0  0  0  0  0  0  0  0
    9.6782    0.5671   23.5143 C   0  0  0  0  0  0  0  0  0  0  0  0
    8.4532    0.3482   26.0821 C   0  0  0  0  0  0  0  0  0  0  0  0
   10.4239   -1.7677   22.2230 N   0  0  0  0  0  0  0  0  0  0  0  0
    9.9468   -4.5953   20.1709 C   0  0  0  0  0  0  0  0  0  0  0  0
   10.0366   -3.0590   23.9864 N   0  0  0  0  0  0  0  0  0  0  0  0
    7.1191   -7.3636   15.7739 C   0  0  0  0  0  0  0  0  0  0  0  0
    5.9612   -8.3203   17.2732 N   0  0  0  0  0  0  0  0  0  0  0  0
    8.5296   -5.9814   17.1841 C   0  0  0  0  0  0  0  0  0  0  0  0
    9.1527   -5.2118   16.2116 C   0  0  0  0  0  0  0  0  0  0  0  0
   10.3364   -3.8368   22.9255 O   0  0  0  0  0  0  0  0  0  0  0  0
    9.6947   -4.8407   18.8534 C   0  0  0  0  0  0  0  0  0  0  0  0
    9.1596    1.7042   24.1381 C   0  0  0  0  0  0  0  0  0  0  0  0
   11.0456   -2.9774   18.2694 N   0  0  0  0  0  0  0  0  0  0  0  0
   10.4788   -3.0457   21.8593 C   0  0  0  0  0  0  0  0  0  0  0  0
    8.8693   -5.8099   18.4657 N   0  0  0  0  0  0  0  0  0  0  0  0
    8.9892   -0.7926   25.4573 C   0  0  0  0  0  0  0  0  0  0  0  0
   10.5677   -3.4462   20.5323 C   0  0  0  0  0  0  0  0  0  0  0  0
  1  8  1  0
  1 12  4  0
  1 14  4  0
  2  3  4  0
  2 18  4  0
  3 20  4  0
  3 22  4  0
  4 11  4  0
  4 21  4  0
  5  9  4  0
  5 16  4  0
  6 15  4  0
  6 16  4  0
  7 22  4  0
  7 26  4  0
  8 10  4  0
  8 25  4  0
  9 15  4  0
  9 17  1  0
 10 21  4  0
 11 25  4  0
 12 23  4  0
 13 20  4  0
 13 26  4  0
 14 19  4  0
 17 18  4  0
 17 24  4  0
 19 23  4  0
 20 24  4  0
 23 26  1  0
M  END
$$$$

 Created by Python create_sdf_string function

 26 30  0  0  0  0  0  0  0  0999 V2000
   10.0084   -1.8019   23.4945 C   0  0  0  0  0  0  0  0  0  0  0  0
   10.0005   -4.2520   16.5631 C   0  0  0  0  0  0  0  0  0  0  0  0
   10.2759   -4.0036   17.8845 C   0  0  0  0  0  0  0  0  0  0  0  0
    8.5652    1.5478   25.3778 N   0  0  0  0  0  0  0  0  0  0  0  0
    6.8048   -7.5457   17.8752 C   0  0  0  0  0  0  0  0  0  0  0  0
    6.1721   -8.2186   15.9886 N   0  0  0  0  0  0  0  0  0  0  0  0
   11.1764   -2.6600   19.5604 C   0  0  0  0  0  0  0  0  0  0  0  0
    9.5491   -0.6380   24.1912 C   0  0  0  0  0  0  0  0  0  0  0  0
    7.5337   -6.9256   16.9519 C   0  0  0  0  0  0  0  0  0  0  0  0
    9.6782    0.5671   23.5143 C   0  0  0  0  0  0  0  0  0  0  0  0
    8.4532    0.3482   26.0821 C   0  0  0  0  0  0  0  0  0  0  0  0
   10.4239   -1.7677   22.2230 N   0  0  0  0  0  0  0  0  0  0  0  0
    9.9468   -4.5953   20.1709 C   0  0  0  0  0  0  0  0  0  0  0  0
   10.0366   -3.0590   23.9864 N   0  0  0  0  0  0  0  0  0  0  0  0
    7.1191   -7.3636   15.7739 C   0  0  0  0  0  0  0  0  0  0  0  0
    5.9612   -8.3203   17.2732 N   0  0  0  0  0  0  0  0  0  0  0  0
    8.5296   -5.9814   17.1841 C   0  0  0  0  0  0  0  0  0  0  0  0
    9.1527   -5.2118   16.2116 C   0  0  0  0  0  0  0  0  0  0  0  0
   10.3364   -3.8368   22.9255 O   0  0  0  0  0  0  0  0  0  0  0  0
    9.6947   -4.8407   18.8534 C   0  0  0  0  0  0  0  0  0  0  0  0
    9.1596    1.7042   24.1381 C   0  0  0  0  0  0  0  0  0  0  0  0
   11.0456   -2.9774   18.2694 N   0  0  0  0  0  0  0  0  0  0  0  0
   10.4788   -3.0457   21.8593 C   0  0  0  0  0  0  0  0  0  0  0  0
    8.8693   -5.8099   18.4657 N   0  0  0  0  0  0  0  0  0  0  0  0
    8.9892   -0.7926   25.4573 C   0  0  0  0  0  0  0  0  0  0  0  0
   10.5677   -3.4462   20.5323 C   0  0  0  0  0  0  0  0  0  0  0  0
  1  8  1  0
  1 12  4  0
  1 14  4  0
  2  3  4  0
  2 18  4  0
  3 20  4  0
  3 22  4  0
  4 11  4  0
  4 21  4  0
  5  9  4  0
  5 16  4  0
  6 15  4  0
  6 16  4  0
  7 22  4  0
  7 26  4  0
  8 10  4  0
  8 25  4  0
  9 15  4  0
  9 17  1  0
 10 21  4  0
 11 25  4  0
 12 23  4  0
 13 20  4  0
 13 26  4  0
 14 19  4  0
 17 18  4  0
 17 24  4  0
 19 23  4  0
 20 24  4  0
 23 26  1  0
M  END
$$$$

 Created by Python create_sdf_string function

 26 30  0  0  0  0  0  0  0  0999 V2000
   10.0084   -1.8019   23.4945 C   0  0  0  0  0  0  0  0  0  0  0  0
   10.0005   -4.2520   16.5631 C   0  0  0  0  0  0  0  0  0  0  0  0
   10.2759   -4.0036   17.8845 C   0  0  0  0  0  0  0  0  0  0  0  0
    8.5652    1.5478   25.3778 N   0  0  0  0  0  0  0  0  0  0  0  0
    6.8048   -7.5457   17.8752 C   0  0  0  0  0  0  0  0  0  0  0  0
    6.1721   -8.2186   15.9886 N   0  0  0  0  0  0  0  0  0  0  0  0
   11.1764   -2.6600   19.5604 C   0  0  0  0  0  0  0  0  0  0  0  0
    9.5491   -0.6380   24.1912 C   0  0  0  0  0  0  0  0  0  0  0  0
    7.5337   -6.9256   16.9519 C   0  0  0  0  0  0  0  0  0  0  0  0
    9.6782    0.5671   23.5143 C   0  0  0  0  0  0  0  0  0  0  0  0
    8.4532    0.3482   26.0821 C   0  0  0  0  0  0  0  0  0  0  0  0
   10.4239   -1.7677   22.2230 N   0  0  0  0  0  0  0  0  0  0  0  0
    9.9468   -4.5953   20.1709 C   0  0  0  0  0  0  0  0  0  0  0  0
   10.0366   -3.0590   23.9864 N   0  0  0  0  0  0  0  0  0  0  0  0
    7.1191   -7.3636   15.7739 C   0  0  0  0  0  0  0  0  0  0  0  0
    5.9612   -8.3203   17.2732 N   0  0  0  0  0  0  0  0  0  0  0  0
    8.5296   -5.9814   17.1841 C   0  0  0  0  0  0  0  0  0  0  0  0
    9.1527   -5.2118   16.2116 C   0  0  0  0  0  0  0  0  0  0  0  0
   10.3364   -3.8368   22.9255 O   0  0  0  0  0  0  0  0  0  0  0  0
    9.6947   -4.8407   18.8534 C   0  0  0  0  0  0  0  0  0  0  0  0
    9.1596    1.7042   24.1381 C   0  0  0  0  0  0  0  0  0  0  0  0
   11.0456   -2.9774   18.2694 N   0  0  0  0  0  0  0  0  0  0  0  0
   10.4788   -3.0457   21.8593 C   0  0  0  0  0  0  0  0  0  0  0  0
    8.8693   -5.8099   18.4657 N   0  0  0  0  0  0  0  0  0  0  0  0
    8.9892   -0.7926   25.4573 C   0  0  0  0  0  0  0  0  0  0  0  0
   10.5677   -3.4462   20.5323 C   0  0  0  0  0  0  0  0  0  0  0  0
  1  8  1  0
  1 12  4  0
  1 14  4  0
  2  3  4  0
  2 18  4  0
  3 20  4  0
  3 22  4  0
  4 11  4  0
  4 21  4  0
  5  9  4  0
  5 16  4  0
  6 15  4  0
  6 16  4  0
  7 22  4  0
  7 26  4  0
  8 10  4  0
  8 25  4  0
  9 15  4  0
  9 17  1  0
 10 21  4  0
 11 25  4  0
 12 23  4  0
 13 20  4  0
 13 26  4  0
 14 19  4  0
 17 18  4  0
 17 24  4  0
 19 23  4  0
 20 24  4  0
 23 26  1  0
M  END
$$$$

 Created by Python create_sdf_string function

 26 30  0  0  0  0  0  0  0  0999 V2000
   10.0084   -1.8019   23.4945 C   0  0  0  0  0  0  0  0  0  0  0  0
   10.0005   -4.2520   16.5631 C   0  0  0  0  0  0  0  0  0  0  0  0
   10.2759   -4.0036   17.8845 C   0  0  0  0  0  0  0  0  0  0  0  0
    8.5652    1.5478   25.3778 N   0  0  0  0  0  0  0  0  0  0  0  0
    6.8048   -7.5457   17.8752 C   0  0  0  0  0  0  0  0  0  0  0  0
    6.1721   -8.2186   15.9886 N   0  0  0  0  0  0  0  0  0  0  0  0
   11.1764   -2.6600   19.5604 C   0  0  0  0  0  0  0  0  0  0  0  0
    9.5491   -0.6380   24.1912 C   0  0  0  0  0  0  0  0  0  0  0  0
    7.5337   -6.9256   16.9519 C   0  0  0  0  0  0  0  0  0  0  0  0
    9.6782    0.5671   23.5143 C   0  0  0  0  0  0  0  0  0  0  0  0
    8.4532    0.3482   26.0821 C   0  0  0  0  0  0  0  0  0  0  0  0
   10.4239   -1.7677   22.2230 N   0  0  0  0  0  0  0  0  0  0  0  0
    9.9468   -4.5953   20.1709 C   0  0  0  0  0  0  0  0  0  0  0  0
   10.0366   -3.0590   23.9864 N   0  0  0  0  0  0  0  0  0  0  0  0
    7.1191   -7.3636   15.7739 C   0  0  0  0  0  0  0  0  0  0  0  0
    5.9612   -8.3203   17.2732 N   0  0  0  0  0  0  0  0  0  0  0  0
    8.5296   -5.9814   17.1841 C   0  0  0  0  0  0  0  0  0  0  0  0
    9.1527   -5.2118   16.2116 C   0  0  0  0  0  0  0  0  0  0  0  0
   10.3364   -3.8368   22.9255 O   0  0  0  0  0  0  0  0  0  0  0  0
    9.6947   -4.8407   18.8534 C   0  0  0  0  0  0  0  0  0  0  0  0
    9.1596    1.7042   24.1381 C   0  0  0  0  0  0  0  0  0  0  0  0
   11.0456   -2.9774   18.2694 N   0  0  0  0  0  0  0  0  0  0  0  0
   10.4788   -3.0457   21.8593 C   0  0  0  0  0  0  0  0  0  0  0  0
    8.8693   -5.8099   18.4657 N   0  0  0  0  0  0  0  0  0  0  0  0
    8.9892   -0.7926   25.4573 C   0  0  0  0  0  0  0  0  0  0  0  0
   10.5677   -3.4462   20.5323 C   0  0  0  0  0  0  0  0  0  0  0  0
  1  8  1  0
  1 12  4  0
  1 14  4  0
  2  3  4  0
  2 18  4  0
  3 20  4  0
  3 22  4  0
  4 11  4  0
  4 21  4  0
  5  9  4  0
  5 16  4  0
  6 15  4  0
  6 16  4  0
  7 22  4  0
  7 26  4  0
  8 10  4  0
  8 25  4  0
  9 15  4  0
  9 17  1  0
 10 21  4  0
 11 25  4  0
 12 23  4  0
 13 20  4  0
 13 26  4  0
 14 19  4  0
 17 18  4  0
 17 24  4  0
 19 23  4  0
 20 24  4  0
 23 26  1  0
M  END
$$$$

 Created by Python create_sdf_string function

 26 30  0  0  0  0  0  0  0  0999 V2000
   10.0084   -1.8019   23.4945 C   0  0  0  0  0  0  0  0  0  0  0  0
   10.0005   -4.2520   16.5631 C   0  0  0  0  0  0  0  0  0  0  0  0
   10.2759   -4.0036   17.8845 C   0  0  0  0  0  0  0  0  0  0  0  0
    8.5652    1.5478   25.3778 N   0  0  0  0  0  0  0  0  0  0  0  0
    6.8048   -7.5457   17.8752 C   0  0  0  0  0  0  0  0  0  0  0  0
    6.1721   -8.2186   15.9886 N   0  0  0  0  0  0  0  0  0  0  0  0
   11.1764   -2.6600   19.5604 C   0  0  0  0  0  0  0  0  0  0  0  0
    9.5491   -0.6380   24.1912 C   0  0  0  0  0  0  0  0  0  0  0  0
    7.5337   -6.9256   16.9519 C   0  0  0  0  0  0  0  0  0  0  0  0
    9.6782    0.5671   23.5143 C   0  0  0  0  0  0  0  0  0  0  0  0
    8.4532    0.3482   26.0821 C   0  0  0  0  0  0  0  0  0  0  0  0
   10.4239   -1.7677   22.2230 N   0  0  0  0  0  0  0  0  0  0  0  0
    9.9468   -4.5953   20.1709 C   0  0  0  0  0  0  0  0  0  0  0  0
   10.0366   -3.0590   23.9864 N   0  0  0  0  0  0  0  0  0  0  0  0
    7.1191   -7.3636   15.7739 C   0  0  0  0  0  0  0  0  0  0  0  0
    5.9612   -8.3203   17.2732 N   0  0  0  0  0  0  0  0  0  0  0  0
    8.5296   -5.9814   17.1841 C   0  0  0  0  0  0  0  0  0  0  0  0
    9.1527   -5.2118   16.2116 C   0  0  0  0  0  0  0  0  0  0  0  0
   10.3364   -3.8368   22.9255 O   0  0  0  0  0  0  0  0  0  0  0  0
    9.6947   -4.8407   18.8534 C   0  0  0  0  0  0  0  0  0  0  0  0
    9.1596    1.7042   24.1381 C   0  0  0  0  0  0  0  0  0  0  0  0
   11.0456   -2.9774   18.2694 N   0  0  0  0  0  0  0  0  0  0  0  0
   10.4788   -3.0457   21.8593 C   0  0  0  0  0  0  0  0  0  0  0  0
    8.8693   -5.8099   18.4657 N   0  0  0  0  0  0  0  0  0  0  0  0
    8.9892   -0.7926   25.4573 C   0  0  0  0  0  0  0  0  0  0  0  0
   10.5677   -3.4462   20.5323 C   0  0  0  0  0  0  0  0  0  0  0  0
  1  8  1  0
  1 12  4  0
  1 14  4  0
  2  3  4  0
  2 18  4  0
  3 20  4  0
  3 22  4  0
  4 11  4  0
  4 21  4  0
  5  9  4  0
  5 16  4  0
  6 15  4  0
  6 16  4  0
  7 22  4  0
  7 26  4  0
  8 10  4  0
  8 25  4  0
  9 15  4  0
  9 17  1  0
 10 21  4  0
 11 25  4  0
 12 23  4  0
 13 20  4  0
 13 26  4  0
 14 19  4  0
 17 18  4  0
 17 24  4  0
 19 23  4  0
 20 24  4  0
 23 26  1  0
M  END
$$$$

 Created by Python create_sdf_string function

 26 30  0  0  0  0  0  0  0  0999 V2000
   10.0084   -1.8019   23.4945 C   0  0  0  0  0  0  0  0  0  0  0  0
   10.0005   -4.2520   16.5631 C   0  0  0  0  0  0  0  0  0  0  0  0
   10.2759   -4.0036   17.8845 C   0  0  0  0  0  0  0  0  0  0  0  0
    8.5652    1.5478   25.3778 N   0  0  0  0  0  0  0  0  0  0  0  0
    6.8048   -7.5457   17.8752 C   0  0  0  0  0  0  0  0  0  0  0  0
    6.1721   -8.2186   15.9886 N   0  0  0  0  0  0  0  0  0  0  0  0
   11.1764   -2.6600   19.5604 C   0  0  0  0  0  0  0  0  0  0  0  0
    9.5491   -0.6380   24.1912 C   0  0  0  0  0  0  0  0  0  0  0  0
    7.5337   -6.9256   16.9519 C   0  0  0  0  0  0  0  0  0  0  0  0
    9.6782    0.5671   23.5143 C   0  0  0  0  0  0  0  0  0  0  0  0
    8.4532    0.3482   26.0821 C   0  0  0  0  0  0  0  0  0  0  0  0
   10.4239   -1.7677   22.2230 N   0  0  0  0  0  0  0  0  0  0  0  0
    9.9468   -4.5953   20.1709 C   0  0  0  0  0  0  0  0  0  0  0  0
   10.0366   -3.0590   23.9864 N   0  0  0  0  0  0  0  0  0  0  0  0
    7.1191   -7.3636   15.7739 C   0  0  0  0  0  0  0  0  0  0  0  0
    5.9612   -8.3203   17.2732 N   0  0  0  0  0  0  0  0  0  0  0  0
    8.5296   -5.9814   17.1841 C   0  0  0  0  0  0  0  0  0  0  0  0
    9.1527   -5.2118   16.2116 C   0  0  0  0  0  0  0  0  0  0  0  0
   10.3364   -3.8368   22.9255 O   0  0  0  0  0  0  0  0  0  0  0  0
    9.6947   -4.8407   18.8534 C   0  0  0  0  0  0  0  0  0  0  0  0
    9.1596    1.7042   24.1381 C   0  0  0  0  0  0  0  0  0  0  0  0
   11.0456   -2.9774   18.2694 N   0  0  0  0  0  0  0  0  0  0  0  0
   10.4788   -3.0457   21.8593 C   0  0  0  0  0  0  0  0  0  0  0  0
    8.8693   -5.8099   18.4657 N   0  0  0  0  0  0  0  0  0  0  0  0
    8.9892   -0.7926   25.4573 C   0  0  0  0  0  0  0  0  0  0  0  0
   10.5677   -3.4462   20.5323 C   0  0  0  0  0  0  0  0  0  0  0  0
  1  8  1  0
  1 12  4  0
  1 14  4  0
  2  3  4  0
  2 18  4  0
  3 20  4  0
  3 22  4  0
  4 11  4  0
  4 21  4  0
  5  9  4  0
  5 16  4  0
  6 15  4  0
  6 16  4  0
  7 22  4  0
  7 26  4  0
  8 10  4  0
  8 25  4  0
  9 15  4  0
  9 17  1  0
 10 21  4  0
 11 25  4  0
 12 23  4  0
 13 20  4  0
 13 26  4  0
 14 19  4  0
 17 18  4  0
 17 24  4  0
 19 23  4  0
 20 24  4  0
 23 26  1  0
M  END
$$$$

 Created by Python create_sdf_string function

 26 30  0  0  0  0  0  0  0  0999 V2000
   10.0084   -1.8019   23.4945 C   0  0  0  0  0  0  0  0  0  0  0  0
   10.0005   -4.2520   16.5631 C   0  0  0  0  0  0  0  0  0  0  0  0
   10.2759   -4.0036   17.8845 C   0  0  0  0  0  0  0  0  0  0  0  0
    8.5652    1.5478   25.3778 N   0  0  0  0  0  0  0  0  0  0  0  0
    6.8048   -7.5457   17.8752 C   0  0  0  0  0  0  0  0  0  0  0  0
    6.1721   -8.2186   15.9886 N   0  0  0  0  0  0  0  0  0  0  0  0
   11.1764   -2.6600   19.5604 C   0  0  0  0  0  0  0  0  0  0  0  0
    9.5491   -0.6380   24.1912 C   0  0  0  0  0  0  0  0  0  0  0  0
    7.5337   -6.9256   16.9519 C   0  0  0  0  0  0  0  0  0  0  0  0
    9.6782    0.5671   23.5143 C   0  0  0  0  0  0  0  0  0  0  0  0
    8.4532    0.3482   26.0821 C   0  0  0  0  0  0  0  0  0  0  0  0
   10.4239   -1.7677   22.2230 N   0  0  0  0  0  0  0  0  0  0  0  0
    9.9468   -4.5953   20.1709 C   0  0  0  0  0  0  0  0  0  0  0  0
   10.0366   -3.0590   23.9864 N   0  0  0  0  0  0  0  0  0  0  0  0
    7.1191   -7.3636   15.7739 C   0  0  0  0  0  0  0  0  0  0  0  0
    5.9612   -8.3203   17.2732 N   0  0  0  0  0  0  0  0  0  0  0  0
    8.5296   -5.9814   17.1841 C   0  0  0  0  0  0  0  0  0  0  0  0
    9.1527   -5.2118   16.2116 C   0  0  0  0  0  0  0  0  0  0  0  0
   10.3364   -3.8368   22.9255 O   0  0  0  0  0  0  0  0  0  0  0  0
    9.6947   -4.8407   18.8534 C   0  0  0  0  0  0  0  0  0  0  0  0
    9.1596    1.7042   24.1381 C   0  0  0  0  0  0  0  0  0  0  0  0
   11.0456   -2.9774   18.2694 N   0  0  0  0  0  0  0  0  0  0  0  0
   10.4788   -3.0457   21.8593 C   0  0  0  0  0  0  0  0  0  0  0  0
    8.8693   -5.8099   18.4657 N   0  0  0  0  0  0  0  0  0  0  0  0
    8.9892   -0.7926   25.4573 C   0  0  0  0  0  0  0  0  0  0  0  0
   10.5677   -3.4462   20.5323 C   0  0  0  0  0  0  0  0  0  0  0  0
  1  8  1  0
  1 12  4  0
  1 14  4  0
  2  3  4  0
  2 18  4  0
  3 20  4  0
  3 22  4  0
  4 11  4  0
  4 21  4  0
  5  9  4  0
  5 16  4  0
  6 15  4  0
  6 16  4  0
  7 22  4  0
  7 26  4  0
  8 10  4  0
  8 25  4  0
  9 15  4  0
  9 17  1  0
 10 21  4  0
 11 25  4  0
 12 23  4  0
 13 20  4  0
 13 26  4  0
 14 19  4  0
 17 18  4  0
 17 24  4  0
 19 23  4  0
 20 24  4  0
 23 26  1  0
M  END
$$$$

 Created by Python create_sdf_string function

 26 30  0  0  0  0  0  0  0  0999 V2000
   10.0084   -1.8019   23.4945 C   0  0  0  0  0  0  0  0  0  0  0  0
   10.0005   -4.2520   16.5631 C   0  0  0  0  0  0  0  0  0  0  0  0
   10.2759   -4.0036   17.8845 C   0  0  0  0  0  0  0  0  0  0  0  0
    8.5652    1.5478   25.3778 N   0  0  0  0  0  0  0  0  0  0  0  0
    6.8048   -7.5457   17.8752 C   0  0  0  0  0  0  0  0  0  0  0  0
    6.1721   -8.2186   15.9886 N   0  0  0  0  0  0  0  0  0  0  0  0
   11.1764   -2.6600   19.5604 C   0  0  0  0  0  0  0  0  0  0  0  0
    9.5491   -0.6380   24.1912 C   0  0  0  0  0  0  0  0  0  0  0  0
    7.5337   -6.9256   16.9519 C   0  0  0  0  0  0  0  0  0  0  0  0
    9.6782    0.5671   23.5143 C   0  0  0  0  0  0  0  0  0  0  0  0
    8.4532    0.3482   26.0821 C   0  0  0  0  0  0  0  0  0  0  0  0
   10.4239   -1.7677   22.2230 N   0  0  0  0  0  0  0  0  0  0  0  0
    9.9468   -4.5953   20.1709 C   0  0  0  0  0  0  0  0  0  0  0  0
   10.0366   -3.0590   23.9864 N   0  0  0  0  0  0  0  0  0  0  0  0
    7.1191   -7.3636   15.7739 C   0  0  0  0  0  0  0  0  0  0  0  0
    5.9612   -8.3203   17.2732 N   0  0  0  0  0  0  0  0  0  0  0  0
    8.5296   -5.9814   17.1841 C   0  0  0  0  0  0  0  0  0  0  0  0
    9.1527   -5.2118   16.2116 C   0  0  0  0  0  0  0  0  0  0  0  0
   10.3364   -3.8368   22.9255 O   0  0  0  0  0  0  0  0  0  0  0  0
    9.6947   -4.8407   18.8534 C   0  0  0  0  0  0  0  0  0  0  0  0
    9.1596    1.7042   24.1381 C   0  0  0  0  0  0  0  0  0  0  0  0
   11.0456   -2.9774   18.2694 N   0  0  0  0  0  0  0  0  0  0  0  0
   10.4788   -3.0457   21.8593 C   0  0  0  0  0  0  0  0  0  0  0  0
    8.8693   -5.8099   18.4657 N   0  0  0  0  0  0  0  0  0  0  0  0
    8.9892   -0.7926   25.4573 C   0  0  0  0  0  0  0  0  0  0  0  0
   10.5677   -3.4462   20.5323 C   0  0  0  0  0  0  0  0  0  0  0  0
  1  8  1  0
  1 12  4  0
  1 14  4  0
  2  3  4  0
  2 18  4  0
  3 20  4  0
  3 22  4  0
  4 11  4  0
  4 21  4  0
  5  9  4  0
  5 16  4  0
  6 15  4  0
  6 16  4  0
  7 22  4  0
  7 26  4  0
  8 10  4  0
  8 25  4  0
  9 15  4  0
  9 17  1  0
 10 21  4  0
 11 25  4  0
 12 23  4  0
 13 20  4  0
 13 26  4  0
 14 19  4  0
 17 18  4  0
 17 24  4  0
 19 23  4  0
 20 24  4  0
 23 26  1  0
M  END
$$$$

 Created by Python create_sdf_string function

 26 30  0  0  0  0  0  0  0  0999 V2000
   10.0084   -1.8019   23.4945 C   0  0  0  0  0  0  0  0  0  0  0  0
   10.0005   -4.2520   16.5631 C   0  0  0  0  0  0  0  0  0  0  0  0
   10.2759   -4.0036   17.8845 C   0  0  0  0  0  0  0  0  0  0  0  0
    8.5652    1.5478   25.3778 N   0  0  0  0  0  0  0  0  0  0  0  0
    6.8048   -7.5457   17.8752 C   0  0  0  0  0  0  0  0  0  0  0  0
    6.1721   -8.2186   15.9886 N   0  0  0  0  0  0  0  0  0  0  0  0
   11.1764   -2.6600   19.5604 C   0  0  0  0  0  0  0  0  0  0  0  0
    9.5491   -0.6380   24.1912 C   0  0  0  0  0  0  0  0  0  0  0  0
    7.5337   -6.9256   16.9519 C   0  0  0  0  0  0  0  0  0  0  0  0
    9.6782    0.5671   23.5143 C   0  0  0  0  0  0  0  0  0  0  0  0
    8.4532    0.3482   26.0821 C   0  0  0  0  0  0  0  0  0  0  0  0
   10.4239   -1.7677   22.2230 N   0  0  0  0  0  0  0  0  0  0  0  0
    9.9468   -4.5953   20.1709 C   0  0  0  0  0  0  0  0  0  0  0  0
   10.0366   -3.0590   23.9864 N   0  0  0  0  0  0  0  0  0  0  0  0
    7.1191   -7.3636   15.7739 C   0  0  0  0  0  0  0  0  0  0  0  0
    5.9612   -8.3203   17.2732 N   0  0  0  0  0  0  0  0  0  0  0  0
    8.5296   -5.9814   17.1841 C   0  0  0  0  0  0  0  0  0  0  0  0
    9.1527   -5.2118   16.2116 C   0  0  0  0  0  0  0  0  0  0  0  0
   10.3364   -3.8368   22.9255 O   0  0  0  0  0  0  0  0  0  0  0  0
    9.6947   -4.8407   18.8534 C   0  0  0  0  0  0  0  0  0  0  0  0
    9.1596    1.7042   24.1381 C   0  0  0  0  0  0  0  0  0  0  0  0
   11.0456   -2.9774   18.2694 N   0  0  0  0  0  0  0  0  0  0  0  0
   10.4788   -3.0457   21.8593 C   0  0  0  0  0  0  0  0  0  0  0  0
    8.8693   -5.8099   18.4657 N   0  0  0  0  0  0  0  0  0  0  0  0
    8.9892   -0.7926   25.4573 C   0  0  0  0  0  0  0  0  0  0  0  0
   10.5677   -3.4462   20.5323 C   0  0  0  0  0  0  0  0  0  0  0  0
  1  8  1  0
  1 12  4  0
  1 14  4  0
  2  3  4  0
  2 18  4  0
  3 20  4  0
  3 22  4  0
  4 11  4  0
  4 21  4  0
  5  9  4  0
  5 16  4  0
  6 15  4  0
  6 16  4  0
  7 22  4  0
  7 26  4  0
  8 10  4  0
  8 25  4  0
  9 15  4  0
  9 17  1  0
 10 21  4  0
 11 25  4  0
 12 23  4  0
 13 20  4  0
 13 26  4  0
 14 19  4  0
 17 18  4  0
 17 24  4  0
 19 23  4  0
 20 24  4  0
 23 26  1  0
M  END
$$$$

 Created by Python create_sdf_string function

 26 30  0  0  0  0  0  0  0  0999 V2000
   10.0084   -1.8019   23.4945 C   0  0  0  0  0  0  0  0  0  0  0  0
   10.0005   -4.2520   16.5631 C   0  0  0  0  0  0  0  0  0  0  0  0
   10.2759   -4.0036   17.8845 C   0  0  0  0  0  0  0  0  0  0  0  0
    8.5652    1.5478   25.3778 N   0  0  0  0  0  0  0  0  0  0  0  0
    6.8048   -7.5457   17.8752 C   0  0  0  0  0  0  0  0  0  0  0  0
    6.1721   -8.2186   15.9886 N   0  0  0  0  0  0  0  0  0  0  0  0
   11.1764   -2.6600   19.5604 C   0  0  0  0  0  0  0  0  0  0  0  0
    9.5491   -0.6380   24.1912 C   0  0  0  0  0  0  0  0  0  0  0  0
    7.5337   -6.9256   16.9519 C   0  0  0  0  0  0  0  0  0  0  0  0
    9.6782    0.5671   23.5143 C   0  0  0  0  0  0  0  0  0  0  0  0
    8.4532    0.3482   26.0821 C   0  0  0  0  0  0  0  0  0  0  0  0
   10.4239   -1.7677   22.2230 N   0  0  0  0  0  0  0  0  0  0  0  0
    9.9468   -4.5953   20.1709 C   0  0  0  0  0  0  0  0  0  0  0  0
   10.0366   -3.0590   23.9864 N   0  0  0  0  0  0  0  0  0  0  0  0
    7.1191   -7.3636   15.7739 C   0  0  0  0  0  0  0  0  0  0  0  0
    5.9612   -8.3203   17.2732 N   0  0  0  0  0  0  0  0  0  0  0  0
    8.5296   -5.9814   17.1841 C   0  0  0  0  0  0  0  0  0  0  0  0
    9.1527   -5.2118   16.2116 C   0  0  0  0  0  0  0  0  0  0  0  0
   10.3364   -3.8368   22.9255 O   0  0  0  0  0  0  0  0  0  0  0  0
    9.6947   -4.8407   18.8534 C   0  0  0  0  0  0  0  0  0  0  0  0
    9.1596    1.7042   24.1381 C   0  0  0  0  0  0  0  0  0  0  0  0
   11.0456   -2.9774   18.2694 N   0  0  0  0  0  0  0  0  0  0  0  0
   10.4788   -3.0457   21.8593 C   0  0  0  0  0  0  0  0  0  0  0  0
    8.8693   -5.8099   18.4657 N   0  0  0  0  0  0  0  0  0  0  0  0
    8.9892   -0.7926   25.4573 C   0  0  0  0  0  0  0  0  0  0  0  0
   10.5677   -3.4462   20.5323 C   0  0  0  0  0  0  0  0  0  0  0  0
  1  8  1  0
  1 12  4  0
  1 14  4  0
  2  3  4  0
  2 18  4  0
  3 20  4  0
  3 22  4  0
  4 11  4  0
  4 21  4  0
  5  9  4  0
  5 16  4  0
  6 15  4  0
  6 16  4  0
  7 22  4  0
  7 26  4  0
  8 10  4  0
  8 25  4  0
  9 15  4  0
  9 17  1  0
 10 21  4  0
 11 25  4  0
 12 23  4  0
 13 20  4  0
 13 26  4  0
 14 19  4  0
 17 18  4  0
 17 24  4  0
 19 23  4  0
 20 24  4  0
 23 26  1  0
M  END
$$$$

 Created by Python create_sdf_string function

 26 30  0  0  0  0  0  0  0  0999 V2000
   10.0084   -1.8019   23.4945 C   0  0  0  0  0  0  0  0  0  0  0  0
   10.0005   -4.2520   16.5631 C   0  0  0  0  0  0  0  0  0  0  0  0
   10.2759   -4.0036   17.8845 C   0  0  0  0  0  0  0  0  0  0  0  0
    8.5652    1.5478   25.3778 N   0  0  0  0  0  0  0  0  0  0  0  0
    6.8048   -7.5457   17.8752 C   0  0  0  0  0  0  0  0  0  0  0  0
    6.1721   -8.2186   15.9886 N   0  0  0  0  0  0  0  0  0  0  0  0
   11.1764   -2.6600   19.5604 C   0  0  0  0  0  0  0  0  0  0  0  0
    9.5491   -0.6380   24.1912 C   0  0  0  0  0  0  0  0  0  0  0  0
    7.5337   -6.9256   16.9519 C   0  0  0  0  0  0  0  0  0  0  0  0
    9.6782    0.5671   23.5143 C   0  0  0  0  0  0  0  0  0  0  0  0
    8.4532    0.3482   26.0821 C   0  0  0  0  0  0  0  0  0  0  0  0
   10.4239   -1.7677   22.2230 N   0  0  0  0  0  0  0  0  0  0  0  0
    9.9468   -4.5953   20.1709 C   0  0  0  0  0  0  0  0  0  0  0  0
   10.0366   -3.0590   23.9864 N   0  0  0  0  0  0  0  0  0  0  0  0
    7.1191   -7.3636   15.7739 C   0  0  0  0  0  0  0  0  0  0  0  0
    5.9612   -8.3203   17.2732 N   0  0  0  0  0  0  0  0  0  0  0  0
    8.5296   -5.9814   17.1841 C   0  0  0  0  0  0  0  0  0  0  0  0
    9.1527   -5.2118   16.2116 C   0  0  0  0  0  0  0  0  0  0  0  0
   10.3364   -3.8368   22.9255 O   0  0  0  0  0  0  0  0  0  0  0  0
    9.6947   -4.8407   18.8534 C   0  0  0  0  0  0  0  0  0  0  0  0
    9.1596    1.7042   24.1381 C   0  0  0  0  0  0  0  0  0  0  0  0
   11.0456   -2.9774   18.2694 N   0  0  0  0  0  0  0  0  0  0  0  0
   10.4788   -3.0457   21.8593 C   0  0  0  0  0  0  0  0  0  0  0  0
    8.8693   -5.8099   18.4657 N   0  0  0  0  0  0  0  0  0  0  0  0
    8.9892   -0.7926   25.4573 C   0  0  0  0  0  0  0  0  0  0  0  0
   10.5677   -3.4462   20.5323 C   0  0  0  0  0  0  0  0  0  0  0  0
  1  8  1  0
  1 12  4  0
  1 14  4  0
  2  3  4  0
  2 18  4  0
  3 20  4  0
  3 22  4  0
  4 11  4  0
  4 21  4  0
  5  9  4  0
  5 16  4  0
  6 15  4  0
  6 16  4  0
  7 22  4  0
  7 26  4  0
  8 10  4  0
  8 25  4  0
  9 15  4  0
  9 17  1  0
 10 21  4  0
 11 25  4  0
 12 23  4  0
 13 20  4  0
 13 26  4  0
 14 19  4  0
 17 18  4  0
 17 24  4  0
 19 23  4  0
 20 24  4  0
 23 26  1  0
M  END
$$$$

 Created by Python create_sdf_string function

 26 30  0  0  0  0  0  0  0  0999 V2000
   10.0084   -1.8019   23.4945 C   0  0  0  0  0  0  0  0  0  0  0  0
   10.0005   -4.2520   16.5631 C   0  0  0  0  0  0  0  0  0  0  0  0
   10.2759   -4.0036   17.8845 C   0  0  0  0  0  0  0  0  0  0  0  0
    8.5652    1.5478   25.3778 N   0  0  0  0  0  0  0  0  0  0  0  0
    6.8048   -7.5457   17.8752 C   0  0  0  0  0  0  0  0  0  0  0  0
    6.1721   -8.2186   15.9886 N   0  0  0  0  0  0  0  0  0  0  0  0
   11.1764   -2.6600   19.5604 C   0  0  0  0  0  0  0  0  0  0  0  0
    9.5491   -0.6380   24.1912 C   0  0  0  0  0  0  0  0  0  0  0  0
    7.5337   -6.9256   16.9519 C   0  0  0  0  0  0  0  0  0  0  0  0
    9.6782    0.5671   23.5143 C   0  0  0  0  0  0  0  0  0  0  0  0
    8.4532    0.3482   26.0821 C   0  0  0  0  0  0  0  0  0  0  0  0
   10.4239   -1.7677   22.2230 N   0  0  0  0  0  0  0  0  0  0  0  0
    9.9468   -4.5953   20.1709 C   0  0  0  0  0  0  0  0  0  0  0  0
   10.0366   -3.0590   23.9864 N   0  0  0  0  0  0  0  0  0  0  0  0
    7.1191   -7.3636   15.7739 C   0  0  0  0  0  0  0  0  0  0  0  0
    5.9612   -8.3203   17.2732 N   0  0  0  0  0  0  0  0  0  0  0  0
    8.5296   -5.9814   17.1841 C   0  0  0  0  0  0  0  0  0  0  0  0
    9.1527   -5.2118   16.2116 C   0  0  0  0  0  0  0  0  0  0  0  0
   10.3364   -3.8368   22.9255 O   0  0  0  0  0  0  0  0  0  0  0  0
    9.6947   -4.8407   18.8534 C   0  0  0  0  0  0  0  0  0  0  0  0
    9.1596    1.7042   24.1381 C   0  0  0  0  0  0  0  0  0  0  0  0
   11.0456   -2.9774   18.2694 N   0  0  0  0  0  0  0  0  0  0  0  0
   10.4788   -3.0457   21.8593 C   0  0  0  0  0  0  0  0  0  0  0  0
    8.8693   -5.8099   18.4657 N   0  0  0  0  0  0  0  0  0  0  0  0
    8.9892   -0.7926   25.4573 C   0  0  0  0  0  0  0  0  0  0  0  0
   10.5677   -3.4462   20.5323 C   0  0  0  0  0  0  0  0  0  0  0  0
  1  8  1  0
  1 12  4  0
  1 14  4  0
  2  3  4  0
  2 18  4  0
  3 20  4  0
  3 22  4  0
  4 11  4  0
  4 21  4  0
  5  9  4  0
  5 16  4  0
  6 15  4  0
  6 16  4  0
  7 22  4  0
  7 26  4  0
  8 10  4  0
  8 25  4  0
  9 15  4  0
  9 17  1  0
 10 21  4  0
 11 25  4  0
 12 23  4  0
 13 20  4  0
 13 26  4  0
 14 19  4  0
 17 18  4  0
 17 24  4  0
 19 23  4  0
 20 24  4  0
 23 26  1  0
M  END
$$$$

 Created by Python create_sdf_string function

 26 30  0  0  0  0  0  0  0  0999 V2000
   10.0084   -1.8019   23.4945 C   0  0  0  0  0  0  0  0  0  0  0  0
   10.0005   -4.2520   16.5631 C   0  0  0  0  0  0  0  0  0  0  0  0
   10.2759   -4.0036   17.8845 C   0  0  0  0  0  0  0  0  0  0  0  0
    8.5652    1.5478   25.3778 N   0  0  0  0  0  0  0  0  0  0  0  0
    6.8048   -7.5457   17.8752 C   0  0  0  0  0  0  0  0  0  0  0  0
    6.1721   -8.2186   15.9886 N   0  0  0  0  0  0  0  0  0  0  0  0
   11.1764   -2.6600   19.5604 C   0  0  0  0  0  0  0  0  0  0  0  0
    9.5491   -0.6380   24.1912 C   0  0  0  0  0  0  0  0  0  0  0  0
    7.5337   -6.9256   16.9519 C   0  0  0  0  0  0  0  0  0  0  0  0
    9.6782    0.5671   23.5143 C   0  0  0  0  0  0  0  0  0  0  0  0
    8.4532    0.3482   26.0821 C   0  0  0  0  0  0  0  0  0  0  0  0
   10.4239   -1.7677   22.2230 N   0  0  0  0  0  0  0  0  0  0  0  0
    9.9468   -4.5953   20.1709 C   0  0  0  0  0  0  0  0  0  0  0  0
   10.0366   -3.0590   23.9864 N   0  0  0  0  0  0  0  0  0  0  0  0
    7.1191   -7.3636   15.7739 C   0  0  0  0  0  0  0  0  0  0  0  0
    5.9612   -8.3203   17.2732 N   0  0  0  0  0  0  0  0  0  0  0  0
    8.5296   -5.9814   17.1841 C   0  0  0  0  0  0  0  0  0  0  0  0
    9.1527   -5.2118   16.2116 C   0  0  0  0  0  0  0  0  0  0  0  0
   10.3364   -3.8368   22.9255 O   0  0  0  0  0  0  0  0  0  0  0  0
    9.6947   -4.8407   18.8534 C   0  0  0  0  0  0  0  0  0  0  0  0
    9.1596    1.7042   24.1381 C   0  0  0  0  0  0  0  0  0  0  0  0
   11.0456   -2.9774   18.2694 N   0  0  0  0  0  0  0  0  0  0  0  0
   10.4788   -3.0457   21.8593 C   0  0  0  0  0  0  0  0  0  0  0  0
    8.8693   -5.8099   18.4657 N   0  0  0  0  0  0  0  0  0  0  0  0
    8.9892   -0.7926   25.4573 C   0  0  0  0  0  0  0  0  0  0  0  0
   10.5677   -3.4462   20.5323 C   0  0  0  0  0  0  0  0  0  0  0  0
  1  8  1  0
  1 12  4  0
  1 14  4  0
  2  3  4  0
  2 18  4  0
  3 20  4  0
  3 22  4  0
  4 11  4  0
  4 21  4  0
  5  9  4  0
  5 16  4  0
  6 15  4  0
  6 16  4  0
  7 22  4  0
  7 26  4  0
  8 10  4  0
  8 25  4  0
  9 15  4  0
  9 17  1  0
 10 21  4  0
 11 25  4  0
 12 23  4  0
 13 20  4  0
 13 26  4  0
 14 19  4  0
 17 18  4  0
 17 24  4  0
 19 23  4  0
 20 24  4  0
 23 26  1  0
M  END
$$$$

 Created by Python create_sdf_string function

 26 30  0  0  0  0  0  0  0  0999 V2000
   10.0084   -1.8019   23.4945 C   0  0  0  0  0  0  0  0  0  0  0  0
   10.0005   -4.2520   16.5631 C   0  0  0  0  0  0  0  0  0  0  0  0
   10.2759   -4.0036   17.8845 C   0  0  0  0  0  0  0  0  0  0  0  0
    8.5652    1.5478   25.3778 N   0  0  0  0  0  0  0  0  0  0  0  0
    6.8048   -7.5457   17.8752 C   0  0  0  0  0  0  0  0  0  0  0  0
    6.1721   -8.2186   15.9886 N   0  0  0  0  0  0  0  0  0  0  0  0
   11.1764   -2.6600   19.5604 C   0  0  0  0  0  0  0  0  0  0  0  0
    9.5491   -0.6380   24.1912 C   0  0  0  0  0  0  0  0  0  0  0  0
    7.5337   -6.9256   16.9519 C   0  0  0  0  0  0  0  0  0  0  0  0
    9.6782    0.5671   23.5143 C   0  0  0  0  0  0  0  0  0  0  0  0
    8.4532    0.3482   26.0821 C   0  0  0  0  0  0  0  0  0  0  0  0
   10.4239   -1.7677   22.2230 N   0  0  0  0  0  0  0  0  0  0  0  0
    9.9468   -4.5953   20.1709 C   0  0  0  0  0  0  0  0  0  0  0  0
   10.0366   -3.0590   23.9864 N   0  0  0  0  0  0  0  0  0  0  0  0
    7.1191   -7.3636   15.7739 C   0  0  0  0  0  0  0  0  0  0  0  0
    5.9612   -8.3203   17.2732 N   0  0  0  0  0  0  0  0  0  0  0  0
    8.5296   -5.9814   17.1841 C   0  0  0  0  0  0  0  0  0  0  0  0
    9.1527   -5.2118   16.2116 C   0  0  0  0  0  0  0  0  0  0  0  0
   10.3364   -3.8368   22.9255 O   0  0  0  0  0  0  0  0  0  0  0  0
    9.6947   -4.8407   18.8534 C   0  0  0  0  0  0  0  0  0  0  0  0
    9.1596    1.7042   24.1381 C   0  0  0  0  0  0  0  0  0  0  0  0
   11.0456   -2.9774   18.2694 N   0  0  0  0  0  0  0  0  0  0  0  0
   10.4788   -3.0457   21.8593 C   0  0  0  0  0  0  0  0  0  0  0  0
    8.8693   -5.8099   18.4657 N   0  0  0  0  0  0  0  0  0  0  0  0
    8.9892   -0.7926   25.4573 C   0  0  0  0  0  0  0  0  0  0  0  0
   10.5677   -3.4462   20.5323 C   0  0  0  0  0  0  0  0  0  0  0  0
  1  8  1  0
  1 12  4  0
  1 14  4  0
  2  3  4  0
  2 18  4  0
  3 20  4  0
  3 22  4  0
  4 11  4  0
  4 21  4  0
  5  9  4  0
  5 16  4  0
  6 15  4  0
  6 16  4  0
  7 22  4  0
  7 26  4  0
  8 10  4  0
  8 25  4  0
  9 15  4  0
  9 17  1  0
 10 21  4  0
 11 25  4  0
 12 23  4  0
 13 20  4  0
 13 26  4  0
 14 19  4  0
 17 18  4  0
 17 24  4  0
 19 23  4  0
 20 24  4  0
 23 26  1  0
M  END
$$$$

 Created by Python create_sdf_string function

 26 30  0  0  0  0  0  0  0  0999 V2000
   10.0084   -1.8019   23.4945 C   0  0  0  0  0  0  0  0  0  0  0  0
   10.0005   -4.2520   16.5631 C   0  0  0  0  0  0  0  0  0  0  0  0
   10.2759   -4.0036   17.8845 C   0  0  0  0  0  0  0  0  0  0  0  0
    8.5652    1.5478   25.3778 N   0  0  0  0  0  0  0  0  0  0  0  0
    6.8048   -7.5457   17.8752 C   0  0  0  0  0  0  0  0  0  0  0  0
    6.1721   -8.2186   15.9886 N   0  0  0  0  0  0  0  0  0  0  0  0
   11.1764   -2.6600   19.5604 C   0  0  0  0  0  0  0  0  0  0  0  0
    9.5491   -0.6380   24.1912 C   0  0  0  0  0  0  0  0  0  0  0  0
    7.5337   -6.9256   16.9519 C   0  0  0  0  0  0  0  0  0  0  0  0
    9.6782    0.5671   23.5143 C   0  0  0  0  0  0  0  0  0  0  0  0
    8.4532    0.3482   26.0821 C   0  0  0  0  0  0  0  0  0  0  0  0
   10.4239   -1.7677   22.2230 N   0  0  0  0  0  0  0  0  0  0  0  0
    9.9468   -4.5953   20.1709 C   0  0  0  0  0  0  0  0  0  0  0  0
   10.0366   -3.0590   23.9864 N   0  0  0  0  0  0  0  0  0  0  0  0
    7.1191   -7.3636   15.7739 C   0  0  0  0  0  0  0  0  0  0  0  0
    5.9612   -8.3203   17.2732 N   0  0  0  0  0  0  0  0  0  0  0  0
    8.5296   -5.9814   17.1841 C   0  0  0  0  0  0  0  0  0  0  0  0
    9.1527   -5.2118   16.2116 C   0  0  0  0  0  0  0  0  0  0  0  0
   10.3364   -3.8368   22.9255 O   0  0  0  0  0  0  0  0  0  0  0  0
    9.6947   -4.8407   18.8534 C   0  0  0  0  0  0  0  0  0  0  0  0
    9.1596    1.7042   24.1381 C   0  0  0  0  0  0  0  0  0  0  0  0
   11.0456   -2.9774   18.2694 N   0  0  0  0  0  0  0  0  0  0  0  0
   10.4788   -3.0457   21.8593 C   0  0  0  0  0  0  0  0  0  0  0  0
    8.8693   -5.8099   18.4657 N   0  0  0  0  0  0  0  0  0  0  0  0
    8.9892   -0.7926   25.4573 C   0  0  0  0  0  0  0  0  0  0  0  0
   10.5677   -3.4462   20.5323 C   0  0  0  0  0  0  0  0  0  0  0  0
  1  8  1  0
  1 12  4  0
  1 14  4  0
  2  3  4  0
  2 18  4  0
  3 20  4  0
  3 22  4  0
  4 11  4  0
  4 21  4  0
  5  9  4  0
  5 16  4  0
  6 15  4  0
  6 16  4  0
  7 22  4  0
  7 26  4  0
  8 10  4  0
  8 25  4  0
  9 15  4  0
  9 17  1  0
 10 21  4  0
 11 25  4  0
 12 23  4  0
 13 20  4  0
 13 26  4  0
 14 19  4  0
 17 18  4  0
 17 24  4  0
 19 23  4  0
 20 24  4  0
 23 26  1  0
M  END
$$$$

 Created by Python create_sdf_string function

 26 30  0  0  0  0  0  0  0  0999 V2000
   10.0084   -1.8019   23.4945 C   0  0  0  0  0  0  0  0  0  0  0  0
   10.0005   -4.2520   16.5631 C   0  0  0  0  0  0  0  0  0  0  0  0
   10.2759   -4.0036   17.8845 C   0  0  0  0  0  0  0  0  0  0  0  0
    8.5652    1.5478   25.3778 N   0  0  0  0  0  0  0  0  0  0  0  0
    6.8048   -7.5457   17.8752 C   0  0  0  0  0  0  0  0  0  0  0  0
    6.1721   -8.2186   15.9886 N   0  0  0  0  0  0  0  0  0  0  0  0
   11.1764   -2.6600   19.5604 C   0  0  0  0  0  0  0  0  0  0  0  0
    9.5491   -0.6380   24.1912 C   0  0  0  0  0  0  0  0  0  0  0  0
    7.5337   -6.9256   16.9519 C   0  0  0  0  0  0  0  0  0  0  0  0
    9.6782    0.5671   23.5143 C   0  0  0  0  0  0  0  0  0  0  0  0
    8.4532    0.3482   26.0821 C   0  0  0  0  0  0  0  0  0  0  0  0
   10.4239   -1.7677   22.2230 N   0  0  0  0  0  0  0  0  0  0  0  0
    9.9468   -4.5953   20.1709 C   0  0  0  0  0  0  0  0  0  0  0  0
   10.0366   -3.0590   23.9864 N   0  0  0  0  0  0  0  0  0  0  0  0
    7.1191   -7.3636   15.7739 C   0  0  0  0  0  0  0  0  0  0  0  0
    5.9612   -8.3203   17.2732 N   0  0  0  0  0  0  0  0  0  0  0  0
    8.5296   -5.9814   17.1841 C   0  0  0  0  0  0  0  0  0  0  0  0
    9.1527   -5.2118   16.2116 C   0  0  0  0  0  0  0  0  0  0  0  0
   10.3364   -3.8368   22.9255 O   0  0  0  0  0  0  0  0  0  0  0  0
    9.6947   -4.8407   18.8534 C   0  0  0  0  0  0  0  0  0  0  0  0
    9.1596    1.7042   24.1381 C   0  0  0  0  0  0  0  0  0  0  0  0
   11.0456   -2.9774   18.2694 N   0  0  0  0  0  0  0  0  0  0  0  0
   10.4788   -3.0457   21.8593 C   0  0  0  0  0  0  0  0  0  0  0  0
    8.8693   -5.8099   18.4657 N   0  0  0  0  0  0  0  0  0  0  0  0
    8.9892   -0.7926   25.4573 C   0  0  0  0  0  0  0  0  0  0  0  0
   10.5677   -3.4462   20.5323 C   0  0  0  0  0  0  0  0  0  0  0  0
  1  8  1  0
  1 12  4  0
  1 14  4  0
  2  3  4  0
  2 18  4  0
  3 20  4  0
  3 22  4  0
  4 11  4  0
  4 21  4  0
  5  9  4  0
  5 16  4  0
  6 15  4  0
  6 16  4  0
  7 22  4  0
  7 26  4  0
  8 10  4  0
  8 25  4  0
  9 15  4  0
  9 17  1  0
 10 21  4  0
 11 25  4  0
 12 23  4  0
 13 20  4  0
 13 26  4  0
 14 19  4  0
 17 18  4  0
 17 24  4  0
 19 23  4  0
 20 24  4  0
 23 26  1  0
M  END
$$$$

 Created by Python create_sdf_string function

 26 30  0  0  0  0  0  0  0  0999 V2000
   10.0084   -1.8019   23.4945 C   0  0  0  0  0  0  0  0  0  0  0  0
   10.0005   -4.2520   16.5631 C   0  0  0  0  0  0  0  0  0  0  0  0
   10.2759   -4.0036   17.8845 C   0  0  0  0  0  0  0  0  0  0  0  0
    8.5652    1.5478   25.3778 N   0  0  0  0  0  0  0  0  0  0  0  0
    6.8048   -7.5457   17.8752 C   0  0  0  0  0  0  0  0  0  0  0  0
    6.1721   -8.2186   15.9886 N   0  0  0  0  0  0  0  0  0  0  0  0
   11.1764   -2.6600   19.5604 C   0  0  0  0  0  0  0  0  0  0  0  0
    9.5491   -0.6380   24.1912 C   0  0  0  0  0  0  0  0  0  0  0  0
    7.5337   -6.9256   16.9519 C   0  0  0  0  0  0  0  0  0  0  0  0
    9.6782    0.5671   23.5143 C   0  0  0  0  0  0  0  0  0  0  0  0
    8.4532    0.3482   26.0821 C   0  0  0  0  0  0  0  0  0  0  0  0
   10.4239   -1.7677   22.2230 N   0  0  0  0  0  0  0  0  0  0  0  0
    9.9468   -4.5953   20.1709 C   0  0  0  0  0  0  0  0  0  0  0  0
   10.0366   -3.0590   23.9864 N   0  0  0  0  0  0  0  0  0  0  0  0
    7.1191   -7.3636   15.7739 C   0  0  0  0  0  0  0  0  0  0  0  0
    5.9612   -8.3203   17.2732 N   0  0  0  0  0  0  0  0  0  0  0  0
    8.5296   -5.9814   17.1841 C   0  0  0  0  0  0  0  0  0  0  0  0
    9.1527   -5.2118   16.2116 C   0  0  0  0  0  0  0  0  0  0  0  0
   10.3364   -3.8368   22.9255 O   0  0  0  0  0  0  0  0  0  0  0  0
    9.6947   -4.8407   18.8534 C   0  0  0  0  0  0  0  0  0  0  0  0
    9.1596    1.7042   24.1381 C   0  0  0  0  0  0  0  0  0  0  0  0
   11.0456   -2.9774   18.2694 N   0  0  0  0  0  0  0  0  0  0  0  0
   10.4788   -3.0457   21.8593 C   0  0  0  0  0  0  0  0  0  0  0  0
    8.8693   -5.8099   18.4657 N   0  0  0  0  0  0  0  0  0  0  0  0
    8.9892   -0.7926   25.4573 C   0  0  0  0  0  0  0  0  0  0  0  0
   10.5677   -3.4462   20.5323 C   0  0  0  0  0  0  0  0  0  0  0  0
  1  8  1  0
  1 12  4  0
  1 14  4  0
  2  3  4  0
  2 18  4  0
  3 20  4  0
  3 22  4  0
  4 11  4  0
  4 21  4  0
  5  9  4  0
  5 16  4  0
  6 15  4  0
  6 16  4  0
  7 22  4  0
  7 26  4  0
  8 10  4  0
  8 25  4  0
  9 15  4  0
  9 17  1  0
 10 21  4  0
 11 25  4  0
 12 23  4  0
 13 20  4  0
 13 26  4  0
 14 19  4  0
 17 18  4  0
 17 24  4  0
 19 23  4  0
 20 24  4  0
 23 26  1  0
M  END
$$$$

 Created by Python create_sdf_string function

 26 30  0  0  0  0  0  0  0  0999 V2000
   10.0084   -1.8019   23.4945 C   0  0  0  0  0  0  0  0  0  0  0  0
   10.0005   -4.2520   16.5631 C   0  0  0  0  0  0  0  0  0  0  0  0
   10.2759   -4.0036   17.8845 C   0  0  0  0  0  0  0  0  0  0  0  0
    8.5652    1.5478   25.3778 N   0  0  0  0  0  0  0  0  0  0  0  0
    6.8048   -7.5457   17.8752 C   0  0  0  0  0  0  0  0  0  0  0  0
    6.1721   -8.2186   15.9886 N   0  0  0  0  0  0  0  0  0  0  0  0
   11.1764   -2.6600   19.5604 C   0  0  0  0  0  0  0  0  0  0  0  0
    9.5491   -0.6380   24.1912 C   0  0  0  0  0  0  0  0  0  0  0  0
    7.5337   -6.9256   16.9519 C   0  0  0  0  0  0  0  0  0  0  0  0
    9.6782    0.5671   23.5143 C   0  0  0  0  0  0  0  0  0  0  0  0
    8.4532    0.3482   26.0821 C   0  0  0  0  0  0  0  0  0  0  0  0
   10.4239   -1.7677   22.2230 N   0  0  0  0  0  0  0  0  0  0  0  0
    9.9468   -4.5953   20.1709 C   0  0  0  0  0  0  0  0  0  0  0  0
   10.0366   -3.0590   23.9864 N   0  0  0  0  0  0  0  0  0  0  0  0
    7.1191   -7.3636   15.7739 C   0  0  0  0  0  0  0  0  0  0  0  0
    5.9612   -8.3203   17.2732 N   0  0  0  0  0  0  0  0  0  0  0  0
    8.5296   -5.9814   17.1841 C   0  0  0  0  0  0  0  0  0  0  0  0
    9.1527   -5.2118   16.2116 C   0  0  0  0  0  0  0  0  0  0  0  0
   10.3364   -3.8368   22.9255 O   0  0  0  0  0  0  0  0  0  0  0  0
    9.6947   -4.8407   18.8534 C   0  0  0  0  0  0  0  0  0  0  0  0
    9.1596    1.7042   24.1381 C   0  0  0  0  0  0  0  0  0  0  0  0
   11.0456   -2.9774   18.2694 N   0  0  0  0  0  0  0  0  0  0  0  0
   10.4788   -3.0457   21.8593 C   0  0  0  0  0  0  0  0  0  0  0  0
    8.8693   -5.8099   18.4657 N   0  0  0  0  0  0  0  0  0  0  0  0
    8.9892   -0.7926   25.4573 C   0  0  0  0  0  0  0  0  0  0  0  0
   10.5677   -3.4462   20.5323 C   0  0  0  0  0  0  0  0  0  0  0  0
  1  8  1  0
  1 12  4  0
  1 14  4  0
  2  3  4  0
  2 18  4  0
  3 20  4  0
  3 22  4  0
  4 11  4  0
  4 21  4  0
  5  9  4  0
  5 16  4  0
  6 15  4  0
  6 16  4  0
  7 22  4  0
  7 26  4  0
  8 10  4  0
  8 25  4  0
  9 15  4  0
  9 17  1  0
 10 21  4  0
 11 25  4  0
 12 23  4  0
 13 20  4  0
 13 26  4  0
 14 19  4  0
 17 18  4  0
 17 24  4  0
 19 23  4  0
 20 24  4  0
 23 26  1  0
M  END
$$$$

 Created by Python create_sdf_string function

 26 30  0  0  0  0  0  0  0  0999 V2000
   10.0084   -1.8019   23.4945 C   0  0  0  0  0  0  0  0  0  0  0  0
   10.0005   -4.2520   16.5631 C   0  0  0  0  0  0  0  0  0  0  0  0
   10.2759   -4.0036   17.8845 C   0  0  0  0  0  0  0  0  0  0  0  0
    8.5652    1.5478   25.3778 N   0  0  0  0  0  0  0  0  0  0  0  0
    6.8048   -7.5457   17.8752 C   0  0  0  0  0  0  0  0  0  0  0  0
    6.1721   -8.2186   15.9886 N   0  0  0  0  0  0  0  0  0  0  0  0
   11.1764   -2.6600   19.5604 C   0  0  0  0  0  0  0  0  0  0  0  0
    9.5491   -0.6380   24.1912 C   0  0  0  0  0  0  0  0  0  0  0  0
    7.5337   -6.9256   16.9519 C   0  0  0  0  0  0  0  0  0  0  0  0
    9.6782    0.5671   23.5143 C   0  0  0  0  0  0  0  0  0  0  0  0
    8.4532    0.3482   26.0821 C   0  0  0  0  0  0  0  0  0  0  0  0
   10.4239   -1.7677   22.2230 N   0  0  0  0  0  0  0  0  0  0  0  0
    9.9468   -4.5953   20.1709 C   0  0  0  0  0  0  0  0  0  0  0  0
   10.0366   -3.0590   23.9864 N   0  0  0  0  0  0  0  0  0  0  0  0
    7.1191   -7.3636   15.7739 C   0  0  0  0  0  0  0  0  0  0  0  0
    5.9612   -8.3203   17.2732 N   0  0  0  0  0  0  0  0  0  0  0  0
    8.5296   -5.9814   17.1841 C   0  0  0  0  0  0  0  0  0  0  0  0
    9.1527   -5.2118   16.2116 C   0  0  0  0  0  0  0  0  0  0  0  0
   10.3364   -3.8368   22.9255 O   0  0  0  0  0  0  0  0  0  0  0  0
    9.6947   -4.8407   18.8534 C   0  0  0  0  0  0  0  0  0  0  0  0
    9.1596    1.7042   24.1381 C   0  0  0  0  0  0  0  0  0  0  0  0
   11.0456   -2.9774   18.2694 N   0  0  0  0  0  0  0  0  0  0  0  0
   10.4788   -3.0457   21.8593 C   0  0  0  0  0  0  0  0  0  0  0  0
    8.8693   -5.8099   18.4657 N   0  0  0  0  0  0  0  0  0  0  0  0
    8.9892   -0.7926   25.4573 C   0  0  0  0  0  0  0  0  0  0  0  0
   10.5677   -3.4462   20.5323 C   0  0  0  0  0  0  0  0  0  0  0  0
  1  8  1  0
  1 12  4  0
  1 14  4  0
  2  3  4  0
  2 18  4  0
  3 20  4  0
  3 22  4  0
  4 11  4  0
  4 21  4  0
  5  9  4  0
  5 16  4  0
  6 15  4  0
  6 16  4  0
  7 22  4  0
  7 26  4  0
  8 10  4  0
  8 25  4  0
  9 15  4  0
  9 17  1  0
 10 21  4  0
 11 25  4  0
 12 23  4  0
 13 20  4  0
 13 26  4  0
 14 19  4  0
 17 18  4  0
 17 24  4  0
 19 23  4  0
 20 24  4  0
 23 26  1  0
M  END
$$$$

 Created by Python create_sdf_string function

 26 30  0  0  0  0  0  0  0  0999 V2000
   10.0084   -1.8019   23.4945 C   0  0  0  0  0  0  0  0  0  0  0  0
   10.0005   -4.2520   16.5631 C   0  0  0  0  0  0  0  0  0  0  0  0
   10.2759   -4.0036   17.8845 C   0  0  0  0  0  0  0  0  0  0  0  0
    8.5652    1.5478   25.3778 N   0  0  0  0  0  0  0  0  0  0  0  0
    6.8048   -7.5457   17.8752 C   0  0  0  0  0  0  0  0  0  0  0  0
    6.1721   -8.2186   15.9886 N   0  0  0  0  0  0  0  0  0  0  0  0
   11.1764   -2.6600   19.5604 C   0  0  0  0  0  0  0  0  0  0  0  0
    9.5491   -0.6380   24.1912 C   0  0  0  0  0  0  0  0  0  0  0  0
    7.5337   -6.9256   16.9519 C   0  0  0  0  0  0  0  0  0  0  0  0
    9.6782    0.5671   23.5143 C   0  0  0  0  0  0  0  0  0  0  0  0
    8.4532    0.3482   26.0821 C   0  0  0  0  0  0  0  0  0  0  0  0
   10.4239   -1.7677   22.2230 N   0  0  0  0  0  0  0  0  0  0  0  0
    9.9468   -4.5953   20.1709 C   0  0  0  0  0  0  0  0  0  0  0  0
   10.0366   -3.0590   23.9864 N   0  0  0  0  0  0  0  0  0  0  0  0
    7.1191   -7.3636   15.7739 C   0  0  0  0  0  0  0  0  0  0  0  0
    5.9612   -8.3203   17.2732 N   0  0  0  0  0  0  0  0  0  0  0  0
    8.5296   -5.9814   17.1841 C   0  0  0  0  0  0  0  0  0  0  0  0
    9.1527   -5.2118   16.2116 C   0  0  0  0  0  0  0  0  0  0  0  0
   10.3364   -3.8368   22.9255 O   0  0  0  0  0  0  0  0  0  0  0  0
    9.6947   -4.8407   18.8534 C   0  0  0  0  0  0  0  0  0  0  0  0
    9.1596    1.7042   24.1381 C   0  0  0  0  0  0  0  0  0  0  0  0
   11.0456   -2.9774   18.2694 N   0  0  0  0  0  0  0  0  0  0  0  0
   10.4788   -3.0457   21.8593 C   0  0  0  0  0  0  0  0  0  0  0  0
    8.8693   -5.8099   18.4657 N   0  0  0  0  0  0  0  0  0  0  0  0
    8.9892   -0.7926   25.4573 C   0  0  0  0  0  0  0  0  0  0  0  0
   10.5677   -3.4462   20.5323 C   0  0  0  0  0  0  0  0  0  0  0  0
  1  8  1  0
  1 12  4  0
  1 14  4  0
  2  3  4  0
  2 18  4  0
  3 20  4  0
  3 22  4  0
  4 11  4  0
  4 21  4  0
  5  9  4  0
  5 16  4  0
  6 15  4  0
  6 16  4  0
  7 22  4  0
  7 26  4  0
  8 10  4  0
  8 25  4  0
  9 15  4  0
  9 17  1  0
 10 21  4  0
 11 25  4  0
 12 23  4  0
 13 20  4  0
 13 26  4  0
 14 19  4  0
 17 18  4  0
 17 24  4  0
 19 23  4  0
 20 24  4  0
 23 26  1  0
M  END
$$$$

 Created by Python create_sdf_string function

 26 30  0  0  0  0  0  0  0  0999 V2000
   10.0084   -1.8019   23.4945 C   0  0  0  0  0  0  0  0  0  0  0  0
   10.0005   -4.2520   16.5631 C   0  0  0  0  0  0  0  0  0  0  0  0
   10.2759   -4.0036   17.8845 C   0  0  0  0  0  0  0  0  0  0  0  0
    8.5652    1.5478   25.3778 N   0  0  0  0  0  0  0  0  0  0  0  0
    6.8048   -7.5457   17.8752 C   0  0  0  0  0  0  0  0  0  0  0  0
    6.1721   -8.2186   15.9886 N   0  0  0  0  0  0  0  0  0  0  0  0
   11.1764   -2.6600   19.5604 C   0  0  0  0  0  0  0  0  0  0  0  0
    9.5491   -0.6380   24.1912 C   0  0  0  0  0  0  0  0  0  0  0  0
    7.5337   -6.9256   16.9519 C   0  0  0  0  0  0  0  0  0  0  0  0
    9.6782    0.5671   23.5143 C   0  0  0  0  0  0  0  0  0  0  0  0
    8.4532    0.3482   26.0821 C   0  0  0  0  0  0  0  0  0  0  0  0
   10.4239   -1.7677   22.2230 N   0  0  0  0  0  0  0  0  0  0  0  0
    9.9468   -4.5953   20.1709 C   0  0  0  0  0  0  0  0  0  0  0  0
   10.0366   -3.0590   23.9864 N   0  0  0  0  0  0  0  0  0  0  0  0
    7.1191   -7.3636   15.7739 C   0  0  0  0  0  0  0  0  0  0  0  0
    5.9612   -8.3203   17.2732 N   0  0  0  0  0  0  0  0  0  0  0  0
    8.5296   -5.9814   17.1841 C   0  0  0  0  0  0  0  0  0  0  0  0
    9.1527   -5.2118   16.2116 C   0  0  0  0  0  0  0  0  0  0  0  0
   10.3364   -3.8368   22.9255 O   0  0  0  0  0  0  0  0  0  0  0  0
    9.6947   -4.8407   18.8534 C   0  0  0  0  0  0  0  0  0  0  0  0
    9.1596    1.7042   24.1381 C   0  0  0  0  0  0  0  0  0  0  0  0
   11.0456   -2.9774   18.2694 N   0  0  0  0  0  0  0  0  0  0  0  0
   10.4788   -3.0457   21.8593 C   0  0  0  0  0  0  0  0  0  0  0  0
    8.8693   -5.8099   18.4657 N   0  0  0  0  0  0  0  0  0  0  0  0
    8.9892   -0.7926   25.4573 C   0  0  0  0  0  0  0  0  0  0  0  0
   10.5677   -3.4462   20.5323 C   0  0  0  0  0  0  0  0  0  0  0  0
  1  8  1  0
  1 12  4  0
  1 14  4  0
  2  3  4  0
  2 18  4  0
  3 20  4  0
  3 22  4  0
  4 11  4  0
  4 21  4  0
  5  9  4  0
  5 16  4  0
  6 15  4  0
  6 16  4  0
  7 22  4  0
  7 26  4  0
  8 10  4  0
  8 25  4  0
  9 15  4  0
  9 17  1  0
 10 21  4  0
 11 25  4  0
 12 23  4  0
 13 20  4  0
 13 26  4  0
 14 19  4  0
 17 18  4  0
 17 24  4  0
 19 23  4  0
 20 24  4  0
 23 26  1  0
M  END
$$$$

 Created by Python create_sdf_string function

 26 30  0  0  0  0  0  0  0  0999 V2000
   10.0084   -1.8019   23.4945 C   0  0  0  0  0  0  0  0  0  0  0  0
   10.0005   -4.2520   16.5631 C   0  0  0  0  0  0  0  0  0  0  0  0
   10.2759   -4.0036   17.8845 C   0  0  0  0  0  0  0  0  0  0  0  0
    8.5652    1.5478   25.3778 N   0  0  0  0  0  0  0  0  0  0  0  0
    6.8048   -7.5457   17.8752 C   0  0  0  0  0  0  0  0  0  0  0  0
    6.1721   -8.2186   15.9886 N   0  0  0  0  0  0  0  0  0  0  0  0
   11.1764   -2.6600   19.5604 C   0  0  0  0  0  0  0  0  0  0  0  0
    9.5491   -0.6380   24.1912 C   0  0  0  0  0  0  0  0  0  0  0  0
    7.5337   -6.9256   16.9519 C   0  0  0  0  0  0  0  0  0  0  0  0
    9.6782    0.5671   23.5143 C   0  0  0  0  0  0  0  0  0  0  0  0
    8.4532    0.3482   26.0821 C   0  0  0  0  0  0  0  0  0  0  0  0
   10.4239   -1.7677   22.2230 N   0  0  0  0  0  0  0  0  0  0  0  0
    9.9468   -4.5953   20.1709 C   0  0  0  0  0  0  0  0  0  0  0  0
   10.0366   -3.0590   23.9864 N   0  0  0  0  0  0  0  0  0  0  0  0
    7.1191   -7.3636   15.7739 C   0  0  0  0  0  0  0  0  0  0  0  0
    5.9612   -8.3203   17.2732 N   0  0  0  0  0  0  0  0  0  0  0  0
    8.5296   -5.9814   17.1841 C   0  0  0  0  0  0  0  0  0  0  0  0
    9.1527   -5.2118   16.2116 C   0  0  0  0  0  0  0  0  0  0  0  0
   10.3364   -3.8368   22.9255 O   0  0  0  0  0  0  0  0  0  0  0  0
    9.6947   -4.8407   18.8534 C   0  0  0  0  0  0  0  0  0  0  0  0
    9.1596    1.7042   24.1381 C   0  0  0  0  0  0  0  0  0  0  0  0
   11.0456   -2.9774   18.2694 N   0  0  0  0  0  0  0  0  0  0  0  0
   10.4788   -3.0457   21.8593 C   0  0  0  0  0  0  0  0  0  0  0  0
    8.8693   -5.8099   18.4657 N   0  0  0  0  0  0  0  0  0  0  0  0
    8.9892   -0.7926   25.4573 C   0  0  0  0  0  0  0  0  0  0  0  0
   10.5677   -3.4462   20.5323 C   0  0  0  0  0  0  0  0  0  0  0  0
  1  8  1  0
  1 12  4  0
  1 14  4  0
  2  3  4  0
  2 18  4  0
  3 20  4  0
  3 22  4  0
  4 11  4  0
  4 21  4  0
  5  9  4  0
  5 16  4  0
  6 15  4  0
  6 16  4  0
  7 22  4  0
  7 26  4  0
  8 10  4  0
  8 25  4  0
  9 15  4  0
  9 17  1  0
 10 21  4  0
 11 25  4  0
 12 23  4  0
 13 20  4  0
 13 26  4  0
 14 19  4  0
 17 18  4  0
 17 24  4  0
 19 23  4  0
 20 24  4  0
 23 26  1  0
M  END
$$$$

 Created by Python create_sdf_string function

 26 30  0  0  0  0  0  0  0  0999 V2000
   10.0084   -1.8019   23.4945 C   0  0  0  0  0  0  0  0  0  0  0  0
   10.0005   -4.2520   16.5631 C   0  0  0  0  0  0  0  0  0  0  0  0
   10.2759   -4.0036   17.8845 C   0  0  0  0  0  0  0  0  0  0  0  0
    8.5652    1.5478   25.3778 N   0  0  0  0  0  0  0  0  0  0  0  0
    6.8048   -7.5457   17.8752 C   0  0  0  0  0  0  0  0  0  0  0  0
    6.1721   -8.2186   15.9886 N   0  0  0  0  0  0  0  0  0  0  0  0
   11.1764   -2.6600   19.5604 C   0  0  0  0  0  0  0  0  0  0  0  0
    9.5491   -0.6380   24.1912 C   0  0  0  0  0  0  0  0  0  0  0  0
    7.5337   -6.9256   16.9519 C   0  0  0  0  0  0  0  0  0  0  0  0
    9.6782    0.5671   23.5143 C   0  0  0  0  0  0  0  0  0  0  0  0
    8.4532    0.3482   26.0821 C   0  0  0  0  0  0  0  0  0  0  0  0
   10.4239   -1.7677   22.2230 N   0  0  0  0  0  0  0  0  0  0  0  0
    9.9468   -4.5953   20.1709 C   0  0  0  0  0  0  0  0  0  0  0  0
   10.0366   -3.0590   23.9864 N   0  0  0  0  0  0  0  0  0  0  0  0
    7.1191   -7.3636   15.7739 C   0  0  0  0  0  0  0  0  0  0  0  0
    5.9612   -8.3203   17.2732 N   0  0  0  0  0  0  0  0  0  0  0  0
    8.5296   -5.9814   17.1841 C   0  0  0  0  0  0  0  0  0  0  0  0
    9.1527   -5.2118   16.2116 C   0  0  0  0  0  0  0  0  0  0  0  0
   10.3364   -3.8368   22.9255 O   0  0  0  0  0  0  0  0  0  0  0  0
    9.6947   -4.8407   18.8534 C   0  0  0  0  0  0  0  0  0  0  0  0
    9.1596    1.7042   24.1381 C   0  0  0  0  0  0  0  0  0  0  0  0
   11.0456   -2.9774   18.2694 N   0  0  0  0  0  0  0  0  0  0  0  0
   10.4788   -3.0457   21.8593 C   0  0  0  0  0  0  0  0  0  0  0  0
    8.8693   -5.8099   18.4657 N   0  0  0  0  0  0  0  0  0  0  0  0
    8.9892   -0.7926   25.4573 C   0  0  0  0  0  0  0  0  0  0  0  0
   10.5677   -3.4462   20.5323 C   0  0  0  0  0  0  0  0  0  0  0  0
  1  8  1  0
  1 12  4  0
  1 14  4  0
  2  3  4  0
  2 18  4  0
  3 20  4  0
  3 22  4  0
  4 11  4  0
  4 21  4  0
  5  9  4  0
  5 16  4  0
  6 15  4  0
  6 16  4  0
  7 22  4  0
  7 26  4  0
  8 10  4  0
  8 25  4  0
  9 15  4  0
  9 17  1  0
 10 21  4  0
 11 25  4  0
 12 23  4  0
 13 20  4  0
 13 26  4  0
 14 19  4  0
 17 18  4  0
 17 24  4  0
 19 23  4  0
 20 24  4  0
 23 26  1  0
M  END
$$$$

 Created by Python create_sdf_string function

 26 30  0  0  0  0  0  0  0  0999 V2000
   10.0084   -1.8019   23.4945 C   0  0  0  0  0  0  0  0  0  0  0  0
   10.0005   -4.2520   16.5631 C   0  0  0  0  0  0  0  0  0  0  0  0
   10.2759   -4.0036   17.8845 C   0  0  0  0  0  0  0  0  0  0  0  0
    8.5652    1.5478   25.3778 N   0  0  0  0  0  0  0  0  0  0  0  0
    6.8048   -7.5457   17.8752 C   0  0  0  0  0  0  0  0  0  0  0  0
    6.1721   -8.2186   15.9886 N   0  0  0  0  0  0  0  0  0  0  0  0
   11.1764   -2.6600   19.5604 C   0  0  0  0  0  0  0  0  0  0  0  0
    9.5491   -0.6380   24.1912 C   0  0  0  0  0  0  0  0  0  0  0  0
    7.5337   -6.9256   16.9519 C   0  0  0  0  0  0  0  0  0  0  0  0
    9.6782    0.5671   23.5143 C   0  0  0  0  0  0  0  0  0  0  0  0
    8.4532    0.3482   26.0821 C   0  0  0  0  0  0  0  0  0  0  0  0
   10.4239   -1.7677   22.2230 N   0  0  0  0  0  0  0  0  0  0  0  0
    9.9468   -4.5953   20.1709 C   0  0  0  0  0  0  0  0  0  0  0  0
   10.0366   -3.0590   23.9864 N   0  0  0  0  0  0  0  0  0  0  0  0
    7.1191   -7.3636   15.7739 C   0  0  0  0  0  0  0  0  0  0  0  0
    5.9612   -8.3203   17.2732 N   0  0  0  0  0  0  0  0  0  0  0  0
    8.5296   -5.9814   17.1841 C   0  0  0  0  0  0  0  0  0  0  0  0
    9.1527   -5.2118   16.2116 C   0  0  0  0  0  0  0  0  0  0  0  0
   10.3364   -3.8368   22.9255 O   0  0  0  0  0  0  0  0  0  0  0  0
    9.6947   -4.8407   18.8534 C   0  0  0  0  0  0  0  0  0  0  0  0
    9.1596    1.7042   24.1381 C   0  0  0  0  0  0  0  0  0  0  0  0
   11.0456   -2.9774   18.2694 N   0  0  0  0  0  0  0  0  0  0  0  0
   10.4788   -3.0457   21.8593 C   0  0  0  0  0  0  0  0  0  0  0  0
    8.8693   -5.8099   18.4657 N   0  0  0  0  0  0  0  0  0  0  0  0
    8.9892   -0.7926   25.4573 C   0  0  0  0  0  0  0  0  0  0  0  0
   10.5677   -3.4462   20.5323 C   0  0  0  0  0  0  0  0  0  0  0  0
  1  8  1  0
  1 12  4  0
  1 14  4  0
  2  3  4  0
  2 18  4  0
  3 20  4  0
  3 22  4  0
  4 11  4  0
  4 21  4  0
  5  9  4  0
  5 16  4  0
  6 15  4  0
  6 16  4  0
  7 22  4  0
  7 26  4  0
  8 10  4  0
  8 25  4  0
  9 15  4  0
  9 17  1  0
 10 21  4  0
 11 25  4  0
 12 23  4  0
 13 20  4  0
 13 26  4  0
 14 19  4  0
 17 18  4  0
 17 24  4  0
 19 23  4  0
 20 24  4  0
 23 26  1  0
M  END
$$$$

 Created by Python create_sdf_string function

 26 30  0  0  0  0  0  0  0  0999 V2000
   10.0084   -1.8019   23.4945 C   0  0  0  0  0  0  0  0  0  0  0  0
   10.0005   -4.2520   16.5631 C   0  0  0  0  0  0  0  0  0  0  0  0
   10.2759   -4.0036   17.8845 C   0  0  0  0  0  0  0  0  0  0  0  0
    8.5652    1.5478   25.3778 N   0  0  0  0  0  0  0  0  0  0  0  0
    6.8048   -7.5457   17.8752 C   0  0  0  0  0  0  0  0  0  0  0  0
    6.1721   -8.2186   15.9886 N   0  0  0  0  0  0  0  0  0  0  0  0
   11.1764   -2.6600   19.5604 C   0  0  0  0  0  0  0  0  0  0  0  0
    9.5491   -0.6380   24.1912 C   0  0  0  0  0  0  0  0  0  0  0  0
    7.5337   -6.9256   16.9519 C   0  0  0  0  0  0  0  0  0  0  0  0
    9.6782    0.5671   23.5143 C   0  0  0  0  0  0  0  0  0  0  0  0
    8.4532    0.3482   26.0821 C   0  0  0  0  0  0  0  0  0  0  0  0
   10.4239   -1.7677   22.2230 N   0  0  0  0  0  0  0  0  0  0  0  0
    9.9468   -4.5953   20.1709 C   0  0  0  0  0  0  0  0  0  0  0  0
   10.0366   -3.0590   23.9864 N   0  0  0  0  0  0  0  0  0  0  0  0
    7.1191   -7.3636   15.7739 C   0  0  0  0  0  0  0  0  0  0  0  0
    5.9612   -8.3203   17.2732 N   0  0  0  0  0  0  0  0  0  0  0  0
    8.5296   -5.9814   17.1841 C   0  0  0  0  0  0  0  0  0  0  0  0
    9.1527   -5.2118   16.2116 C   0  0  0  0  0  0  0  0  0  0  0  0
   10.3364   -3.8368   22.9255 O   0  0  0  0  0  0  0  0  0  0  0  0
    9.6947   -4.8407   18.8534 C   0  0  0  0  0  0  0  0  0  0  0  0
    9.1596    1.7042   24.1381 C   0  0  0  0  0  0  0  0  0  0  0  0
   11.0456   -2.9774   18.2694 N   0  0  0  0  0  0  0  0  0  0  0  0
   10.4788   -3.0457   21.8593 C   0  0  0  0  0  0  0  0  0  0  0  0
    8.8693   -5.8099   18.4657 N   0  0  0  0  0  0  0  0  0  0  0  0
    8.9892   -0.7926   25.4573 C   0  0  0  0  0  0  0  0  0  0  0  0
   10.5677   -3.4462   20.5323 C   0  0  0  0  0  0  0  0  0  0  0  0
  1  8  1  0
  1 12  4  0
  1 14  4  0
  2  3  4  0
  2 18  4  0
  3 20  4  0
  3 22  4  0
  4 11  4  0
  4 21  4  0
  5  9  4  0
  5 16  4  0
  6 15  4  0
  6 16  4  0
  7 22  4  0
  7 26  4  0
  8 10  4  0
  8 25  4  0
  9 15  4  0
  9 17  1  0
 10 21  4  0
 11 25  4  0
 12 23  4  0
 13 20  4  0
 13 26  4  0
 14 19  4  0
 17 18  4  0
 17 24  4  0
 19 23  4  0
 20 24  4  0
 23 26  1  0
M  END
$$$$

 Created by Python create_sdf_string function

 26 30  0  0  0  0  0  0  0  0999 V2000
   10.0084   -1.8019   23.4945 C   0  0  0  0  0  0  0  0  0  0  0  0
   10.0005   -4.2520   16.5631 C   0  0  0  0  0  0  0  0  0  0  0  0
   10.2759   -4.0036   17.8845 C   0  0  0  0  0  0  0  0  0  0  0  0
    8.5652    1.5478   25.3778 N   0  0  0  0  0  0  0  0  0  0  0  0
    6.8048   -7.5457   17.8752 C   0  0  0  0  0  0  0  0  0  0  0  0
    6.1721   -8.2186   15.9886 N   0  0  0  0  0  0  0  0  0  0  0  0
   11.1764   -2.6600   19.5604 C   0  0  0  0  0  0  0  0  0  0  0  0
    9.5491   -0.6380   24.1912 C   0  0  0  0  0  0  0  0  0  0  0  0
    7.5337   -6.9256   16.9519 C   0  0  0  0  0  0  0  0  0  0  0  0
    9.6782    0.5671   23.5143 C   0  0  0  0  0  0  0  0  0  0  0  0
    8.4532    0.3482   26.0821 C   0  0  0  0  0  0  0  0  0  0  0  0
   10.4239   -1.7677   22.2230 N   0  0  0  0  0  0  0  0  0  0  0  0
    9.9468   -4.5953   20.1709 C   0  0  0  0  0  0  0  0  0  0  0  0
   10.0366   -3.0590   23.9864 N   0  0  0  0  0  0  0  0  0  0  0  0
    7.1191   -7.3636   15.7739 C   0  0  0  0  0  0  0  0  0  0  0  0
    5.9612   -8.3203   17.2732 N   0  0  0  0  0  0  0  0  0  0  0  0
    8.5296   -5.9814   17.1841 C   0  0  0  0  0  0  0  0  0  0  0  0
    9.1527   -5.2118   16.2116 C   0  0  0  0  0  0  0  0  0  0  0  0
   10.3364   -3.8368   22.9255 O   0  0  0  0  0  0  0  0  0  0  0  0
    9.6947   -4.8407   18.8534 C   0  0  0  0  0  0  0  0  0  0  0  0
    9.1596    1.7042   24.1381 C   0  0  0  0  0  0  0  0  0  0  0  0
   11.0456   -2.9774   18.2694 N   0  0  0  0  0  0  0  0  0  0  0  0
   10.4788   -3.0457   21.8593 C   0  0  0  0  0  0  0  0  0  0  0  0
    8.8693   -5.8099   18.4657 N   0  0  0  0  0  0  0  0  0  0  0  0
    8.9892   -0.7926   25.4573 C   0  0  0  0  0  0  0  0  0  0  0  0
   10.5677   -3.4462   20.5323 C   0  0  0  0  0  0  0  0  0  0  0  0
  1  8  1  0
  1 12  4  0
  1 14  4  0
  2  3  4  0
  2 18  4  0
  3 20  4  0
  3 22  4  0
  4 11  4  0
  4 21  4  0
  5  9  4  0
  5 16  4  0
  6 15  4  0
  6 16  4  0
  7 22  4  0
  7 26  4  0
  8 10  4  0
  8 25  4  0
  9 15  4  0
  9 17  1  0
 10 21  4  0
 11 25  4  0
 12 23  4  0
 13 20  4  0
 13 26  4  0
 14 19  4  0
 17 18  4  0
 17 24  4  0
 19 23  4  0
 20 24  4  0
 23 26  1  0
M  END
$$$$

 Created by Python create_sdf_string function

 26 30  0  0  0  0  0  0  0  0999 V2000
   10.0084   -1.8019   23.4945 C   0  0  0  0  0  0  0  0  0  0  0  0
   10.0005   -4.2520   16.5631 C   0  0  0  0  0  0  0  0  0  0  0  0
   10.2759   -4.0036   17.8845 C   0  0  0  0  0  0  0  0  0  0  0  0
    8.5652    1.5478   25.3778 N   0  0  0  0  0  0  0  0  0  0  0  0
    6.8048   -7.5457   17.8752 C   0  0  0  0  0  0  0  0  0  0  0  0
    6.1721   -8.2186   15.9886 N   0  0  0  0  0  0  0  0  0  0  0  0
   11.1764   -2.6600   19.5604 C   0  0  0  0  0  0  0  0  0  0  0  0
    9.5491   -0.6380   24.1912 C   0  0  0  0  0  0  0  0  0  0  0  0
    7.5337   -6.9256   16.9519 C   0  0  0  0  0  0  0  0  0  0  0  0
    9.6782    0.5671   23.5143 C   0  0  0  0  0  0  0  0  0  0  0  0
    8.4532    0.3482   26.0821 C   0  0  0  0  0  0  0  0  0  0  0  0
   10.4239   -1.7677   22.2230 N   0  0  0  0  0  0  0  0  0  0  0  0
    9.9468   -4.5953   20.1709 C   0  0  0  0  0  0  0  0  0  0  0  0
   10.0366   -3.0590   23.9864 N   0  0  0  0  0  0  0  0  0  0  0  0
    7.1191   -7.3636   15.7739 C   0  0  0  0  0  0  0  0  0  0  0  0
    5.9612   -8.3203   17.2732 N   0  0  0  0  0  0  0  0  0  0  0  0
    8.5296   -5.9814   17.1841 C   0  0  0  0  0  0  0  0  0  0  0  0
    9.1527   -5.2118   16.2116 C   0  0  0  0  0  0  0  0  0  0  0  0
   10.3364   -3.8368   22.9255 O   0  0  0  0  0  0  0  0  0  0  0  0
    9.6947   -4.8407   18.8534 C   0  0  0  0  0  0  0  0  0  0  0  0
    9.1596    1.7042   24.1381 C   0  0  0  0  0  0  0  0  0  0  0  0
   11.0456   -2.9774   18.2694 N   0  0  0  0  0  0  0  0  0  0  0  0
   10.4788   -3.0457   21.8593 C   0  0  0  0  0  0  0  0  0  0  0  0
    8.8693   -5.8099   18.4657 N   0  0  0  0  0  0  0  0  0  0  0  0
    8.9892   -0.7926   25.4573 C   0  0  0  0  0  0  0  0  0  0  0  0
   10.5677   -3.4462   20.5323 C   0  0  0  0  0  0  0  0  0  0  0  0
  1  8  1  0
  1 12  4  0
  1 14  4  0
  2  3  4  0
  2 18  4  0
  3 20  4  0
  3 22  4  0
  4 11  4  0
  4 21  4  0
  5  9  4  0
  5 16  4  0
  6 15  4  0
  6 16  4  0
  7 22  4  0
  7 26  4  0
  8 10  4  0
  8 25  4  0
  9 15  4  0
  9 17  1  0
 10 21  4  0
 11 25  4  0
 12 23  4  0
 13 20  4  0
 13 26  4  0
 14 19  4  0
 17 18  4  0
 17 24  4  0
 19 23  4  0
 20 24  4  0
 23 26  1  0
M  END
$$$$

 Created by Python create_sdf_string function

 26 30  0  0  0  0  0  0  0  0999 V2000
   10.0084   -1.8019   23.4945 C   0  0  0  0  0  0  0  0  0  0  0  0
   10.0005   -4.2520   16.5631 C   0  0  0  0  0  0  0  0  0  0  0  0
   10.2759   -4.0036   17.8845 C   0  0  0  0  0  0  0  0  0  0  0  0
    8.5652    1.5478   25.3778 N   0  0  0  0  0  0  0  0  0  0  0  0
    6.8048   -7.5457   17.8752 C   0  0  0  0  0  0  0  0  0  0  0  0
    6.1721   -8.2186   15.9886 N   0  0  0  0  0  0  0  0  0  0  0  0
   11.1764   -2.6600   19.5604 C   0  0  0  0  0  0  0  0  0  0  0  0
    9.5491   -0.6380   24.1912 C   0  0  0  0  0  0  0  0  0  0  0  0
    7.5337   -6.9256   16.9519 C   0  0  0  0  0  0  0  0  0  0  0  0
    9.6782    0.5671   23.5143 C   0  0  0  0  0  0  0  0  0  0  0  0
    8.4532    0.3482   26.0821 C   0  0  0  0  0  0  0  0  0  0  0  0
   10.4239   -1.7677   22.2230 N   0  0  0  0  0  0  0  0  0  0  0  0
    9.9468   -4.5953   20.1709 C   0  0  0  0  0  0  0  0  0  0  0  0
   10.0366   -3.0590   23.9864 N   0  0  0  0  0  0  0  0  0  0  0  0
    7.1191   -7.3636   15.7739 C   0  0  0  0  0  0  0  0  0  0  0  0
    5.9612   -8.3203   17.2732 N   0  0  0  0  0  0  0  0  0  0  0  0
    8.5296   -5.9814   17.1841 C   0  0  0  0  0  0  0  0  0  0  0  0
    9.1527   -5.2118   16.2116 C   0  0  0  0  0  0  0  0  0  0  0  0
   10.3364   -3.8368   22.9255 O   0  0  0  0  0  0  0  0  0  0  0  0
    9.6947   -4.8407   18.8534 C   0  0  0  0  0  0  0  0  0  0  0  0
    9.1596    1.7042   24.1381 C   0  0  0  0  0  0  0  0  0  0  0  0
   11.0456   -2.9774   18.2694 N   0  0  0  0  0  0  0  0  0  0  0  0
   10.4788   -3.0457   21.8593 C   0  0  0  0  0  0  0  0  0  0  0  0
    8.8693   -5.8099   18.4657 N   0  0  0  0  0  0  0  0  0  0  0  0
    8.9892   -0.7926   25.4573 C   0  0  0  0  0  0  0  0  0  0  0  0
   10.5677   -3.4462   20.5323 C   0  0  0  0  0  0  0  0  0  0  0  0
  1  8  1  0
  1 12  4  0
  1 14  4  0
  2  3  4  0
  2 18  4  0
  3 20  4  0
  3 22  4  0
  4 11  4  0
  4 21  4  0
  5  9  4  0
  5 16  4  0
  6 15  4  0
  6 16  4  0
  7 22  4  0
  7 26  4  0
  8 10  4  0
  8 25  4  0
  9 15  4  0
  9 17  1  0
 10 21  4  0
 11 25  4  0
 12 23  4  0
 13 20  4  0
 13 26  4  0
 14 19  4  0
 17 18  4  0
 17 24  4  0
 19 23  4  0
 20 24  4  0
 23 26  1  0
M  END
$$$$

 Created by Python create_sdf_string function

 26 30  0  0  0  0  0  0  0  0999 V2000
   10.0084   -1.8019   23.4945 C   0  0  0  0  0  0  0  0  0  0  0  0
   10.0005   -4.2520   16.5631 C   0  0  0  0  0  0  0  0  0  0  0  0
   10.2759   -4.0036   17.8845 C   0  0  0  0  0  0  0  0  0  0  0  0
    8.5652    1.5478   25.3778 N   0  0  0  0  0  0  0  0  0  0  0  0
    6.8048   -7.5457   17.8752 C   0  0  0  0  0  0  0  0  0  0  0  0
    6.1721   -8.2186   15.9886 N   0  0  0  0  0  0  0  0  0  0  0  0
   11.1764   -2.6600   19.5604 C   0  0  0  0  0  0  0  0  0  0  0  0
    9.5491   -0.6380   24.1912 C   0  0  0  0  0  0  0  0  0  0  0  0
    7.5337   -6.9256   16.9519 C   0  0  0  0  0  0  0  0  0  0  0  0
    9.6782    0.5671   23.5143 C   0  0  0  0  0  0  0  0  0  0  0  0
    8.4532    0.3482   26.0821 C   0  0  0  0  0  0  0  0  0  0  0  0
   10.4239   -1.7677   22.2230 N   0  0  0  0  0  0  0  0  0  0  0  0
    9.9468   -4.5953   20.1709 C   0  0  0  0  0  0  0  0  0  0  0  0
   10.0366   -3.0590   23.9864 N   0  0  0  0  0  0  0  0  0  0  0  0
    7.1191   -7.3636   15.7739 C   0  0  0  0  0  0  0  0  0  0  0  0
    5.9612   -8.3203   17.2732 N   0  0  0  0  0  0  0  0  0  0  0  0
    8.5296   -5.9814   17.1841 C   0  0  0  0  0  0  0  0  0  0  0  0
    9.1527   -5.2118   16.2116 C   0  0  0  0  0  0  0  0  0  0  0  0
   10.3364   -3.8368   22.9255 O   0  0  0  0  0  0  0  0  0  0  0  0
    9.6947   -4.8407   18.8534 C   0  0  0  0  0  0  0  0  0  0  0  0
    9.1596    1.7042   24.1381 C   0  0  0  0  0  0  0  0  0  0  0  0
   11.0456   -2.9774   18.2694 N   0  0  0  0  0  0  0  0  0  0  0  0
   10.4788   -3.0457   21.8593 C   0  0  0  0  0  0  0  0  0  0  0  0
    8.8693   -5.8099   18.4657 N   0  0  0  0  0  0  0  0  0  0  0  0
    8.9892   -0.7926   25.4573 C   0  0  0  0  0  0  0  0  0  0  0  0
   10.5677   -3.4462   20.5323 C   0  0  0  0  0  0  0  0  0  0  0  0
  1  8  1  0
  1 12  4  0
  1 14  4  0
  2  3  4  0
  2 18  4  0
  3 20  4  0
  3 22  4  0
  4 11  4  0
  4 21  4  0
  5  9  4  0
  5 16  4  0
  6 15  4  0
  6 16  4  0
  7 22  4  0
  7 26  4  0
  8 10  4  0
  8 25  4  0
  9 15  4  0
  9 17  1  0
 10 21  4  0
 11 25  4  0
 12 23  4  0
 13 20  4  0
 13 26  4  0
 14 19  4  0
 17 18  4  0
 17 24  4  0
 19 23  4  0
 20 24  4  0
 23 26  1  0
M  END
$$$$

 Created by Python create_sdf_string function

 26 30  0  0  0  0  0  0  0  0999 V2000
   10.0084   -1.8019   23.4945 C   0  0  0  0  0  0  0  0  0  0  0  0
   10.0005   -4.2520   16.5631 C   0  0  0  0  0  0  0  0  0  0  0  0
   10.2759   -4.0036   17.8845 C   0  0  0  0  0  0  0  0  0  0  0  0
    8.5652    1.5478   25.3778 N   0  0  0  0  0  0  0  0  0  0  0  0
    6.8048   -7.5457   17.8752 C   0  0  0  0  0  0  0  0  0  0  0  0
    6.1721   -8.2186   15.9886 N   0  0  0  0  0  0  0  0  0  0  0  0
   11.1764   -2.6600   19.5604 C   0  0  0  0  0  0  0  0  0  0  0  0
    9.5491   -0.6380   24.1912 C   0  0  0  0  0  0  0  0  0  0  0  0
    7.5337   -6.9256   16.9519 C   0  0  0  0  0  0  0  0  0  0  0  0
    9.6782    0.5671   23.5143 C   0  0  0  0  0  0  0  0  0  0  0  0
    8.4532    0.3482   26.0821 C   0  0  0  0  0  0  0  0  0  0  0  0
   10.4239   -1.7677   22.2230 N   0  0  0  0  0  0  0  0  0  0  0  0
    9.9468   -4.5953   20.1709 C   0  0  0  0  0  0  0  0  0  0  0  0
   10.0366   -3.0590   23.9864 N   0  0  0  0  0  0  0  0  0  0  0  0
    7.1191   -7.3636   15.7739 C   0  0  0  0  0  0  0  0  0  0  0  0
    5.9612   -8.3203   17.2732 N   0  0  0  0  0  0  0  0  0  0  0  0
    8.5296   -5.9814   17.1841 C   0  0  0  0  0  0  0  0  0  0  0  0
    9.1527   -5.2118   16.2116 C   0  0  0  0  0  0  0  0  0  0  0  0
   10.3364   -3.8368   22.9255 O   0  0  0  0  0  0  0  0  0  0  0  0
    9.6947   -4.8407   18.8534 C   0  0  0  0  0  0  0  0  0  0  0  0
    9.1596    1.7042   24.1381 C   0  0  0  0  0  0  0  0  0  0  0  0
   11.0456   -2.9774   18.2694 N   0  0  0  0  0  0  0  0  0  0  0  0
   10.4788   -3.0457   21.8593 C   0  0  0  0  0  0  0  0  0  0  0  0
    8.8693   -5.8099   18.4657 N   0  0  0  0  0  0  0  0  0  0  0  0
    8.9892   -0.7926   25.4573 C   0  0  0  0  0  0  0  0  0  0  0  0
   10.5677   -3.4462   20.5323 C   0  0  0  0  0  0  0  0  0  0  0  0
  1  8  1  0
  1 12  4  0
  1 14  4  0
  2  3  4  0
  2 18  4  0
  3 20  4  0
  3 22  4  0
  4 11  4  0
  4 21  4  0
  5  9  4  0
  5 16  4  0
  6 15  4  0
  6 16  4  0
  7 22  4  0
  7 26  4  0
  8 10  4  0
  8 25  4  0
  9 15  4  0
  9 17  1  0
 10 21  4  0
 11 25  4  0
 12 23  4  0
 13 20  4  0
 13 26  4  0
 14 19  4  0
 17 18  4  0
 17 24  4  0
 19 23  4  0
 20 24  4  0
 23 26  1  0
M  END
$$$$

 Created by Python create_sdf_string function

 26 30  0  0  0  0  0  0  0  0999 V2000
   10.0084   -1.8019   23.4945 C   0  0  0  0  0  0  0  0  0  0  0  0
   10.0005   -4.2520   16.5631 C   0  0  0  0  0  0  0  0  0  0  0  0
   10.2759   -4.0036   17.8845 C   0  0  0  0  0  0  0  0  0  0  0  0
    8.5652    1.5478   25.3778 N   0  0  0  0  0  0  0  0  0  0  0  0
    6.8048   -7.5457   17.8752 C   0  0  0  0  0  0  0  0  0  0  0  0
    6.1721   -8.2186   15.9886 N   0  0  0  0  0  0  0  0  0  0  0  0
   11.1764   -2.6600   19.5604 C   0  0  0  0  0  0  0  0  0  0  0  0
    9.5491   -0.6380   24.1912 C   0  0  0  0  0  0  0  0  0  0  0  0
    7.5337   -6.9256   16.9519 C   0  0  0  0  0  0  0  0  0  0  0  0
    9.6782    0.5671   23.5143 C   0  0  0  0  0  0  0  0  0  0  0  0
    8.4532    0.3482   26.0821 C   0  0  0  0  0  0  0  0  0  0  0  0
   10.4239   -1.7677   22.2230 N   0  0  0  0  0  0  0  0  0  0  0  0
    9.9468   -4.5953   20.1709 C   0  0  0  0  0  0  0  0  0  0  0  0
   10.0366   -3.0590   23.9864 N   0  0  0  0  0  0  0  0  0  0  0  0
    7.1191   -7.3636   15.7739 C   0  0  0  0  0  0  0  0  0  0  0  0
    5.9612   -8.3203   17.2732 N   0  0  0  0  0  0  0  0  0  0  0  0
    8.5296   -5.9814   17.1841 C   0  0  0  0  0  0  0  0  0  0  0  0
    9.1527   -5.2118   16.2116 C   0  0  0  0  0  0  0  0  0  0  0  0
   10.3364   -3.8368   22.9255 O   0  0  0  0  0  0  0  0  0  0  0  0
    9.6947   -4.8407   18.8534 C   0  0  0  0  0  0  0  0  0  0  0  0
    9.1596    1.7042   24.1381 C   0  0  0  0  0  0  0  0  0  0  0  0
   11.0456   -2.9774   18.2694 N   0  0  0  0  0  0  0  0  0  0  0  0
   10.4788   -3.0457   21.8593 C   0  0  0  0  0  0  0  0  0  0  0  0
    8.8693   -5.8099   18.4657 N   0  0  0  0  0  0  0  0  0  0  0  0
    8.9892   -0.7926   25.4573 C   0  0  0  0  0  0  0  0  0  0  0  0
   10.5677   -3.4462   20.5323 C   0  0  0  0  0  0  0  0  0  0  0  0
  1  8  1  0
  1 12  4  0
  1 14  4  0
  2  3  4  0
  2 18  4  0
  3 20  4  0
  3 22  4  0
  4 11  4  0
  4 21  4  0
  5  9  4  0
  5 16  4  0
  6 15  4  0
  6 16  4  0
  7 22  4  0
  7 26  4  0
  8 10  4  0
  8 25  4  0
  9 15  4  0
  9 17  1  0
 10 21  4  0
 11 25  4  0
 12 23  4  0
 13 20  4  0
 13 26  4  0
 14 19  4  0
 17 18  4  0
 17 24  4  0
 19 23  4  0
 20 24  4  0
 23 26  1  0
M  END
$$$$

 Created by Python create_sdf_string function

 26 30  0  0  0  0  0  0  0  0999 V2000
   10.0084   -1.8019   23.4945 C   0  0  0  0  0  0  0  0  0  0  0  0
   10.0005   -4.2520   16.5631 C   0  0  0  0  0  0  0  0  0  0  0  0
   10.2759   -4.0036   17.8845 C   0  0  0  0  0  0  0  0  0  0  0  0
    8.5652    1.5478   25.3778 N   0  0  0  0  0  0  0  0  0  0  0  0
    6.8048   -7.5457   17.8752 C   0  0  0  0  0  0  0  0  0  0  0  0
    6.1721   -8.2186   15.9886 N   0  0  0  0  0  0  0  0  0  0  0  0
   11.1764   -2.6600   19.5604 C   0  0  0  0  0  0  0  0  0  0  0  0
    9.5491   -0.6380   24.1912 C   0  0  0  0  0  0  0  0  0  0  0  0
    7.5337   -6.9256   16.9519 C   0  0  0  0  0  0  0  0  0  0  0  0
    9.6782    0.5671   23.5143 C   0  0  0  0  0  0  0  0  0  0  0  0
    8.4532    0.3482   26.0821 C   0  0  0  0  0  0  0  0  0  0  0  0
   10.4239   -1.7677   22.2230 N   0  0  0  0  0  0  0  0  0  0  0  0
    9.9468   -4.5953   20.1709 C   0  0  0  0  0  0  0  0  0  0  0  0
   10.0366   -3.0590   23.9864 N   0  0  0  0  0  0  0  0  0  0  0  0
    7.1191   -7.3636   15.7739 C   0  0  0  0  0  0  0  0  0  0  0  0
    5.9612   -8.3203   17.2732 N   0  0  0  0  0  0  0  0  0  0  0  0
    8.5296   -5.9814   17.1841 C   0  0  0  0  0  0  0  0  0  0  0  0
    9.1527   -5.2118   16.2116 C   0  0  0  0  0  0  0  0  0  0  0  0
   10.3364   -3.8368   22.9255 O   0  0  0  0  0  0  0  0  0  0  0  0
    9.6947   -4.8407   18.8534 C   0  0  0  0  0  0  0  0  0  0  0  0
    9.1596    1.7042   24.1381 C   0  0  0  0  0  0  0  0  0  0  0  0
   11.0456   -2.9774   18.2694 N   0  0  0  0  0  0  0  0  0  0  0  0
   10.4788   -3.0457   21.8593 C   0  0  0  0  0  0  0  0  0  0  0  0
    8.8693   -5.8099   18.4657 N   0  0  0  0  0  0  0  0  0  0  0  0
    8.9892   -0.7926   25.4573 C   0  0  0  0  0  0  0  0  0  0  0  0
   10.5677   -3.4462   20.5323 C   0  0  0  0  0  0  0  0  0  0  0  0
  1  8  1  0
  1 12  4  0
  1 14  4  0
  2  3  4  0
  2 18  4  0
  3 20  4  0
  3 22  4  0
  4 11  4  0
  4 21  4  0
  5  9  4  0
  5 16  4  0
  6 15  4  0
  6 16  4  0
  7 22  4  0
  7 26  4  0
  8 10  4  0
  8 25  4  0
  9 15  4  0
  9 17  1  0
 10 21  4  0
 11 25  4  0
 12 23  4  0
 13 20  4  0
 13 26  4  0
 14 19  4  0
 17 18  4  0
 17 24  4  0
 19 23  4  0
 20 24  4  0
 23 26  1  0
M  END
$$$$

 Created by Python create_sdf_string function

 26 30  0  0  0  0  0  0  0  0999 V2000
   10.0084   -1.8019   23.4945 C   0  0  0  0  0  0  0  0  0  0  0  0
   10.0005   -4.2520   16.5631 C   0  0  0  0  0  0  0  0  0  0  0  0
   10.2759   -4.0036   17.8845 C   0  0  0  0  0  0  0  0  0  0  0  0
    8.5652    1.5478   25.3778 N   0  0  0  0  0  0  0  0  0  0  0  0
    6.8048   -7.5457   17.8752 C   0  0  0  0  0  0  0  0  0  0  0  0
    6.1721   -8.2186   15.9886 N   0  0  0  0  0  0  0  0  0  0  0  0
   11.1764   -2.6600   19.5604 C   0  0  0  0  0  0  0  0  0  0  0  0
    9.5491   -0.6380   24.1912 C   0  0  0  0  0  0  0  0  0  0  0  0
    7.5337   -6.9256   16.9519 C   0  0  0  0  0  0  0  0  0  0  0  0
    9.6782    0.5671   23.5143 C   0  0  0  0  0  0  0  0  0  0  0  0
    8.4532    0.3482   26.0821 C   0  0  0  0  0  0  0  0  0  0  0  0
   10.4239   -1.7677   22.2230 N   0  0  0  0  0  0  0  0  0  0  0  0
    9.9468   -4.5953   20.1709 C   0  0  0  0  0  0  0  0  0  0  0  0
   10.0366   -3.0590   23.9864 N   0  0  0  0  0  0  0  0  0  0  0  0
    7.1191   -7.3636   15.7739 C   0  0  0  0  0  0  0  0  0  0  0  0
    5.9612   -8.3203   17.2732 N   0  0  0  0  0  0  0  0  0  0  0  0
    8.5296   -5.9814   17.1841 C   0  0  0  0  0  0  0  0  0  0  0  0
    9.1527   -5.2118   16.2116 C   0  0  0  0  0  0  0  0  0  0  0  0
   10.3364   -3.8368   22.9255 O   0  0  0  0  0  0  0  0  0  0  0  0
    9.6947   -4.8407   18.8534 C   0  0  0  0  0  0  0  0  0  0  0  0
    9.1596    1.7042   24.1381 C   0  0  0  0  0  0  0  0  0  0  0  0
   11.0456   -2.9774   18.2694 N   0  0  0  0  0  0  0  0  0  0  0  0
   10.4788   -3.0457   21.8593 C   0  0  0  0  0  0  0  0  0  0  0  0
    8.8693   -5.8099   18.4657 N   0  0  0  0  0  0  0  0  0  0  0  0
    8.9892   -0.7926   25.4573 C   0  0  0  0  0  0  0  0  0  0  0  0
   10.5677   -3.4462   20.5323 C   0  0  0  0  0  0  0  0  0  0  0  0
  1  8  1  0
  1 12  4  0
  1 14  4  0
  2  3  4  0
  2 18  4  0
  3 20  4  0
  3 22  4  0
  4 11  4  0
  4 21  4  0
  5  9  4  0
  5 16  4  0
  6 15  4  0
  6 16  4  0
  7 22  4  0
  7 26  4  0
  8 10  4  0
  8 25  4  0
  9 15  4  0
  9 17  1  0
 10 21  4  0
 11 25  4  0
 12 23  4  0
 13 20  4  0
 13 26  4  0
 14 19  4  0
 17 18  4  0
 17 24  4  0
 19 23  4  0
 20 24  4  0
 23 26  1  0
M  END
$$$$

 Created by Python create_sdf_string function

 26 30  0  0  0  0  0  0  0  0999 V2000
   10.0084   -1.8019   23.4945 C   0  0  0  0  0  0  0  0  0  0  0  0
   10.0005   -4.2520   16.5631 C   0  0  0  0  0  0  0  0  0  0  0  0
   10.2759   -4.0036   17.8845 C   0  0  0  0  0  0  0  0  0  0  0  0
    8.5652    1.5478   25.3778 N   0  0  0  0  0  0  0  0  0  0  0  0
    6.8048   -7.5457   17.8752 C   0  0  0  0  0  0  0  0  0  0  0  0
    6.1721   -8.2186   15.9886 N   0  0  0  0  0  0  0  0  0  0  0  0
   11.1764   -2.6600   19.5604 C   0  0  0  0  0  0  0  0  0  0  0  0
    9.5491   -0.6380   24.1912 C   0  0  0  0  0  0  0  0  0  0  0  0
    7.5337   -6.9256   16.9519 C   0  0  0  0  0  0  0  0  0  0  0  0
    9.6782    0.5671   23.5143 C   0  0  0  0  0  0  0  0  0  0  0  0
    8.4532    0.3482   26.0821 C   0  0  0  0  0  0  0  0  0  0  0  0
   10.4239   -1.7677   22.2230 N   0  0  0  0  0  0  0  0  0  0  0  0
    9.9468   -4.5953   20.1709 C   0  0  0  0  0  0  0  0  0  0  0  0
   10.0366   -3.0590   23.9864 N   0  0  0  0  0  0  0  0  0  0  0  0
    7.1191   -7.3636   15.7739 C   0  0  0  0  0  0  0  0  0  0  0  0
    5.9612   -8.3203   17.2732 N   0  0  0  0  0  0  0  0  0  0  0  0
    8.5296   -5.9814   17.1841 C   0  0  0  0  0  0  0  0  0  0  0  0
    9.1527   -5.2118   16.2116 C   0  0  0  0  0  0  0  0  0  0  0  0
   10.3364   -3.8368   22.9255 O   0  0  0  0  0  0  0  0  0  0  0  0
    9.6947   -4.8407   18.8534 C   0  0  0  0  0  0  0  0  0  0  0  0
    9.1596    1.7042   24.1381 C   0  0  0  0  0  0  0  0  0  0  0  0
   11.0456   -2.9774   18.2694 N   0  0  0  0  0  0  0  0  0  0  0  0
   10.4788   -3.0457   21.8593 C   0  0  0  0  0  0  0  0  0  0  0  0
    8.8693   -5.8099   18.4657 N   0  0  0  0  0  0  0  0  0  0  0  0
    8.9892   -0.7926   25.4573 C   0  0  0  0  0  0  0  0  0  0  0  0
   10.5677   -3.4462   20.5323 C   0  0  0  0  0  0  0  0  0  0  0  0
  1  8  1  0
  1 12  4  0
  1 14  4  0
  2  3  4  0
  2 18  4  0
  3 20  4  0
  3 22  4  0
  4 11  4  0
  4 21  4  0
  5  9  4  0
  5 16  4  0
  6 15  4  0
  6 16  4  0
  7 22  4  0
  7 26  4  0
  8 10  4  0
  8 25  4  0
  9 15  4  0
  9 17  1  0
 10 21  4  0
 11 25  4  0
 12 23  4  0
 13 20  4  0
 13 26  4  0
 14 19  4  0
 17 18  4  0
 17 24  4  0
 19 23  4  0
 20 24  4  0
 23 26  1  0
M  END
$$$$

 Created by Python create_sdf_string function

 26 30  0  0  0  0  0  0  0  0999 V2000
   10.0084   -1.8019   23.4945 C   0  0  0  0  0  0  0  0  0  0  0  0
   10.0005   -4.2520   16.5631 C   0  0  0  0  0  0  0  0  0  0  0  0
   10.2759   -4.0036   17.8845 C   0  0  0  0  0  0  0  0  0  0  0  0
    8.5652    1.5478   25.3778 N   0  0  0  0  0  0  0  0  0  0  0  0
    6.8048   -7.5457   17.8752 C   0  0  0  0  0  0  0  0  0  0  0  0
    6.1721   -8.2186   15.9886 N   0  0  0  0  0  0  0  0  0  0  0  0
   11.1764   -2.6600   19.5604 C   0  0  0  0  0  0  0  0  0  0  0  0
    9.5491   -0.6380   24.1912 C   0  0  0  0  0  0  0  0  0  0  0  0
    7.5337   -6.9256   16.9519 C   0  0  0  0  0  0  0  0  0  0  0  0
    9.6782    0.5671   23.5143 C   0  0  0  0  0  0  0  0  0  0  0  0
    8.4532    0.3482   26.0821 C   0  0  0  0  0  0  0  0  0  0  0  0
   10.4239   -1.7677   22.2230 N   0  0  0  0  0  0  0  0  0  0  0  0
    9.9468   -4.5953   20.1709 C   0  0  0  0  0  0  0  0  0  0  0  0
   10.0366   -3.0590   23.9864 N   0  0  0  0  0  0  0  0  0  0  0  0
    7.1191   -7.3636   15.7739 C   0  0  0  0  0  0  0  0  0  0  0  0
    5.9612   -8.3203   17.2732 N   0  0  0  0  0  0  0  0  0  0  0  0
    8.5296   -5.9814   17.1841 C   0  0  0  0  0  0  0  0  0  0  0  0
    9.1527   -5.2118   16.2116 C   0  0  0  0  0  0  0  0  0  0  0  0
   10.3364   -3.8368   22.9255 O   0  0  0  0  0  0  0  0  0  0  0  0
    9.6947   -4.8407   18.8534 C   0  0  0  0  0  0  0  0  0  0  0  0
    9.1596    1.7042   24.1381 C   0  0  0  0  0  0  0  0  0  0  0  0
   11.0456   -2.9774   18.2694 N   0  0  0  0  0  0  0  0  0  0  0  0
   10.4788   -3.0457   21.8593 C   0  0  0  0  0  0  0  0  0  0  0  0
    8.8693   -5.8099   18.4657 N   0  0  0  0  0  0  0  0  0  0  0  0
    8.9892   -0.7926   25.4573 C   0  0  0  0  0  0  0  0  0  0  0  0
   10.5677   -3.4462   20.5323 C   0  0  0  0  0  0  0  0  0  0  0  0
  1  8  1  0
  1 12  4  0
  1 14  4  0
  2  3  4  0
  2 18  4  0
  3 20  4  0
  3 22  4  0
  4 11  4  0
  4 21  4  0
  5  9  4  0
  5 16  4  0
  6 15  4  0
  6 16  4  0
  7 22  4  0
  7 26  4  0
  8 10  4  0
  8 25  4  0
  9 15  4  0
  9 17  1  0
 10 21  4  0
 11 25  4  0
 12 23  4  0
 13 20  4  0
 13 26  4  0
 14 19  4  0
 17 18  4  0
 17 24  4  0
 19 23  4  0
 20 24  4  0
 23 26  1  0
M  END
$$$$

 Created by Python create_sdf_string function

 26 30  0  0  0  0  0  0  0  0999 V2000
   10.0084   -1.8019   23.4945 C   0  0  0  0  0  0  0  0  0  0  0  0
   10.0005   -4.2520   16.5631 C   0  0  0  0  0  0  0  0  0  0  0  0
   10.2759   -4.0036   17.8845 C   0  0  0  0  0  0  0  0  0  0  0  0
    8.5652    1.5478   25.3778 N   0  0  0  0  0  0  0  0  0  0  0  0
    6.8048   -7.5457   17.8752 C   0  0  0  0  0  0  0  0  0  0  0  0
    6.1721   -8.2186   15.9886 N   0  0  0  0  0  0  0  0  0  0  0  0
   11.1764   -2.6600   19.5604 C   0  0  0  0  0  0  0  0  0  0  0  0
    9.5491   -0.6380   24.1912 C   0  0  0  0  0  0  0  0  0  0  0  0
    7.5337   -6.9256   16.9519 C   0  0  0  0  0  0  0  0  0  0  0  0
    9.6782    0.5671   23.5143 C   0  0  0  0  0  0  0  0  0  0  0  0
    8.4532    0.3482   26.0821 C   0  0  0  0  0  0  0  0  0  0  0  0
   10.4239   -1.7677   22.2230 N   0  0  0  0  0  0  0  0  0  0  0  0
    9.9468   -4.5953   20.1709 C   0  0  0  0  0  0  0  0  0  0  0  0
   10.0366   -3.0590   23.9864 N   0  0  0  0  0  0  0  0  0  0  0  0
    7.1191   -7.3636   15.7739 C   0  0  0  0  0  0  0  0  0  0  0  0
    5.9612   -8.3203   17.2732 N   0  0  0  0  0  0  0  0  0  0  0  0
    8.5296   -5.9814   17.1841 C   0  0  0  0  0  0  0  0  0  0  0  0
    9.1527   -5.2118   16.2116 C   0  0  0  0  0  0  0  0  0  0  0  0
   10.3364   -3.8368   22.9255 O   0  0  0  0  0  0  0  0  0  0  0  0
    9.6947   -4.8407   18.8534 C   0  0  0  0  0  0  0  0  0  0  0  0
    9.1596    1.7042   24.1381 C   0  0  0  0  0  0  0  0  0  0  0  0
   11.0456   -2.9774   18.2694 N   0  0  0  0  0  0  0  0  0  0  0  0
   10.4788   -3.0457   21.8593 C   0  0  0  0  0  0  0  0  0  0  0  0
    8.8693   -5.8099   18.4657 N   0  0  0  0  0  0  0  0  0  0  0  0
    8.9892   -0.7926   25.4573 C   0  0  0  0  0  0  0  0  0  0  0  0
   10.5677   -3.4462   20.5323 C   0  0  0  0  0  0  0  0  0  0  0  0
  1  8  1  0
  1 12  4  0
  1 14  4  0
  2  3  4  0
  2 18  4  0
  3 20  4  0
  3 22  4  0
  4 11  4  0
  4 21  4  0
  5  9  4  0
  5 16  4  0
  6 15  4  0
  6 16  4  0
  7 22  4  0
  7 26  4  0
  8 10  4  0
  8 25  4  0
  9 15  4  0
  9 17  1  0
 10 21  4  0
 11 25  4  0
 12 23  4  0
 13 20  4  0
 13 26  4  0
 14 19  4  0
 17 18  4  0
 17 24  4  0
 19 23  4  0
 20 24  4  0
 23 26  1  0
M  END
$$$$

 Created by Python create_sdf_string function

 26 30  0  0  0  0  0  0  0  0999 V2000
   10.0084   -1.8019   23.4945 C   0  0  0  0  0  0  0  0  0  0  0  0
   10.0005   -4.2520   16.5631 C   0  0  0  0  0  0  0  0  0  0  0  0
   10.2759   -4.0036   17.8845 C   0  0  0  0  0  0  0  0  0  0  0  0
    8.5652    1.5478   25.3778 N   0  0  0  0  0  0  0  0  0  0  0  0
    6.8048   -7.5457   17.8752 C   0  0  0  0  0  0  0  0  0  0  0  0
    6.1721   -8.2186   15.9886 N   0  0  0  0  0  0  0  0  0  0  0  0
   11.1764   -2.6600   19.5604 C   0  0  0  0  0  0  0  0  0  0  0  0
    9.5491   -0.6380   24.1912 C   0  0  0  0  0  0  0  0  0  0  0  0
    7.5337   -6.9256   16.9519 C   0  0  0  0  0  0  0  0  0  0  0  0
    9.6782    0.5671   23.5143 C   0  0  0  0  0  0  0  0  0  0  0  0
    8.4532    0.3482   26.0821 C   0  0  0  0  0  0  0  0  0  0  0  0
   10.4239   -1.7677   22.2230 N   0  0  0  0  0  0  0  0  0  0  0  0
    9.9468   -4.5953   20.1709 C   0  0  0  0  0  0  0  0  0  0  0  0
   10.0366   -3.0590   23.9864 N   0  0  0  0  0  0  0  0  0  0  0  0
    7.1191   -7.3636   15.7739 C   0  0  0  0  0  0  0  0  0  0  0  0
    5.9612   -8.3203   17.2732 N   0  0  0  0  0  0  0  0  0  0  0  0
    8.5296   -5.9814   17.1841 C   0  0  0  0  0  0  0  0  0  0  0  0
    9.1527   -5.2118   16.2116 C   0  0  0  0  0  0  0  0  0  0  0  0
   10.3364   -3.8368   22.9255 O   0  0  0  0  0  0  0  0  0  0  0  0
    9.6947   -4.8407   18.8534 C   0  0  0  0  0  0  0  0  0  0  0  0
    9.1596    1.7042   24.1381 C   0  0  0  0  0  0  0  0  0  0  0  0
   11.0456   -2.9774   18.2694 N   0  0  0  0  0  0  0  0  0  0  0  0
   10.4788   -3.0457   21.8593 C   0  0  0  0  0  0  0  0  0  0  0  0
    8.8693   -5.8099   18.4657 N   0  0  0  0  0  0  0  0  0  0  0  0
    8.9892   -0.7926   25.4573 C   0  0  0  0  0  0  0  0  0  0  0  0
   10.5677   -3.4462   20.5323 C   0  0  0  0  0  0  0  0  0  0  0  0
  1  8  1  0
  1 12  4  0
  1 14  4  0
  2  3  4  0
  2 18  4  0
  3 20  4  0
  3 22  4  0
  4 11  4  0
  4 21  4  0
  5  9  4  0
  5 16  4  0
  6 15  4  0
  6 16  4  0
  7 22  4  0
  7 26  4  0
  8 10  4  0
  8 25  4  0
  9 15  4  0
  9 17  1  0
 10 21  4  0
 11 25  4  0
 12 23  4  0
 13 20  4  0
 13 26  4  0
 14 19  4  0
 17 18  4  0
 17 24  4  0
 19 23  4  0
 20 24  4  0
 23 26  1  0
M  END
$$$$

 Created by Python create_sdf_string function

 26 30  0  0  0  0  0  0  0  0999 V2000
   10.0084   -1.8019   23.4945 C   0  0  0  0  0  0  0  0  0  0  0  0
   10.0005   -4.2520   16.5631 C   0  0  0  0  0  0  0  0  0  0  0  0
   10.2759   -4.0036   17.8845 C   0  0  0  0  0  0  0  0  0  0  0  0
    8.5652    1.5478   25.3778 N   0  0  0  0  0  0  0  0  0  0  0  0
    6.8048   -7.5457   17.8752 C   0  0  0  0  0  0  0  0  0  0  0  0
    6.1721   -8.2186   15.9886 N   0  0  0  0  0  0  0  0  0  0  0  0
   11.1764   -2.6600   19.5604 C   0  0  0  0  0  0  0  0  0  0  0  0
    9.5491   -0.6380   24.1912 C   0  0  0  0  0  0  0  0  0  0  0  0
    7.5337   -6.9256   16.9519 C   0  0  0  0  0  0  0  0  0  0  0  0
    9.6782    0.5671   23.5143 C   0  0  0  0  0  0  0  0  0  0  0  0
    8.4532    0.3482   26.0821 C   0  0  0  0  0  0  0  0  0  0  0  0
   10.4239   -1.7677   22.2230 N   0  0  0  0  0  0  0  0  0  0  0  0
    9.9468   -4.5953   20.1709 C   0  0  0  0  0  0  0  0  0  0  0  0
   10.0366   -3.0590   23.9864 N   0  0  0  0  0  0  0  0  0  0  0  0
    7.1191   -7.3636   15.7739 C   0  0  0  0  0  0  0  0  0  0  0  0
    5.9612   -8.3203   17.2732 N   0  0  0  0  0  0  0  0  0  0  0  0
    8.5296   -5.9814   17.1841 C   0  0  0  0  0  0  0  0  0  0  0  0
    9.1527   -5.2118   16.2116 C   0  0  0  0  0  0  0  0  0  0  0  0
   10.3364   -3.8368   22.9255 O   0  0  0  0  0  0  0  0  0  0  0  0
    9.6947   -4.8407   18.8534 C   0  0  0  0  0  0  0  0  0  0  0  0
    9.1596    1.7042   24.1381 C   0  0  0  0  0  0  0  0  0  0  0  0
   11.0456   -2.9774   18.2694 N   0  0  0  0  0  0  0  0  0  0  0  0
   10.4788   -3.0457   21.8593 C   0  0  0  0  0  0  0  0  0  0  0  0
    8.8693   -5.8099   18.4657 N   0  0  0  0  0  0  0  0  0  0  0  0
    8.9892   -0.7926   25.4573 C   0  0  0  0  0  0  0  0  0  0  0  0
   10.5677   -3.4462   20.5323 C   0  0  0  0  0  0  0  0  0  0  0  0
  1  8  1  0
  1 12  4  0
  1 14  4  0
  2  3  4  0
  2 18  4  0
  3 20  4  0
  3 22  4  0
  4 11  4  0
  4 21  4  0
  5  9  4  0
  5 16  4  0
  6 15  4  0
  6 16  4  0
  7 22  4  0
  7 26  4  0
  8 10  4  0
  8 25  4  0
  9 15  4  0
  9 17  1  0
 10 21  4  0
 11 25  4  0
 12 23  4  0
 13 20  4  0
 13 26  4  0
 14 19  4  0
 17 18  4  0
 17 24  4  0
 19 23  4  0
 20 24  4  0
 23 26  1  0
M  END
$$$$

 Created by Python create_sdf_string function

 26 30  0  0  0  0  0  0  0  0999 V2000
   10.0084   -1.8019   23.4945 C   0  0  0  0  0  0  0  0  0  0  0  0
   10.0005   -4.2520   16.5631 C   0  0  0  0  0  0  0  0  0  0  0  0
   10.2759   -4.0036   17.8845 C   0  0  0  0  0  0  0  0  0  0  0  0
    8.5652    1.5478   25.3778 N   0  0  0  0  0  0  0  0  0  0  0  0
    6.8048   -7.5457   17.8752 C   0  0  0  0  0  0  0  0  0  0  0  0
    6.1721   -8.2186   15.9886 N   0  0  0  0  0  0  0  0  0  0  0  0
   11.1764   -2.6600   19.5604 C   0  0  0  0  0  0  0  0  0  0  0  0
    9.5491   -0.6380   24.1912 C   0  0  0  0  0  0  0  0  0  0  0  0
    7.5337   -6.9256   16.9519 C   0  0  0  0  0  0  0  0  0  0  0  0
    9.6782    0.5671   23.5143 C   0  0  0  0  0  0  0  0  0  0  0  0
    8.4532    0.3482   26.0821 C   0  0  0  0  0  0  0  0  0  0  0  0
   10.4239   -1.7677   22.2230 N   0  0  0  0  0  0  0  0  0  0  0  0
    9.9468   -4.5953   20.1709 C   0  0  0  0  0  0  0  0  0  0  0  0
   10.0366   -3.0590   23.9864 N   0  0  0  0  0  0  0  0  0  0  0  0
    7.1191   -7.3636   15.7739 C   0  0  0  0  0  0  0  0  0  0  0  0
    5.9612   -8.3203   17.2732 N   0  0  0  0  0  0  0  0  0  0  0  0
    8.5296   -5.9814   17.1841 C   0  0  0  0  0  0  0  0  0  0  0  0
    9.1527   -5.2118   16.2116 C   0  0  0  0  0  0  0  0  0  0  0  0
   10.3364   -3.8368   22.9255 O   0  0  0  0  0  0  0  0  0  0  0  0
    9.6947   -4.8407   18.8534 C   0  0  0  0  0  0  0  0  0  0  0  0
    9.1596    1.7042   24.1381 C   0  0  0  0  0  0  0  0  0  0  0  0
   11.0456   -2.9774   18.2694 N   0  0  0  0  0  0  0  0  0  0  0  0
   10.4788   -3.0457   21.8593 C   0  0  0  0  0  0  0  0  0  0  0  0
    8.8693   -5.8099   18.4657 N   0  0  0  0  0  0  0  0  0  0  0  0
    8.9892   -0.7926   25.4573 C   0  0  0  0  0  0  0  0  0  0  0  0
   10.5677   -3.4462   20.5323 C   0  0  0  0  0  0  0  0  0  0  0  0
  1  8  1  0
  1 12  4  0
  1 14  4  0
  2  3  4  0
  2 18  4  0
  3 20  4  0
  3 22  4  0
  4 11  4  0
  4 21  4  0
  5  9  4  0
  5 16  4  0
  6 15  4  0
  6 16  4  0
  7 22  4  0
  7 26  4  0
  8 10  4  0
  8 25  4  0
  9 15  4  0
  9 17  1  0
 10 21  4  0
 11 25  4  0
 12 23  4  0
 13 20  4  0
 13 26  4  0
 14 19  4  0
 17 18  4  0
 17 24  4  0
 19 23  4  0
 20 24  4  0
 23 26  1  0
M  END
$$$$

 Created by Python create_sdf_string function

 26 30  0  0  0  0  0  0  0  0999 V2000
   10.0084   -1.8019   23.4945 C   0  0  0  0  0  0  0  0  0  0  0  0
   10.0005   -4.2520   16.5631 C   0  0  0  0  0  0  0  0  0  0  0  0
   10.2759   -4.0036   17.8845 C   0  0  0  0  0  0  0  0  0  0  0  0
    8.5652    1.5478   25.3778 N   0  0  0  0  0  0  0  0  0  0  0  0
    6.8048   -7.5457   17.8752 C   0  0  0  0  0  0  0  0  0  0  0  0
    6.1721   -8.2186   15.9886 N   0  0  0  0  0  0  0  0  0  0  0  0
   11.1764   -2.6600   19.5604 C   0  0  0  0  0  0  0  0  0  0  0  0
    9.5491   -0.6380   24.1912 C   0  0  0  0  0  0  0  0  0  0  0  0
    7.5337   -6.9256   16.9519 C   0  0  0  0  0  0  0  0  0  0  0  0
    9.6782    0.5671   23.5143 C   0  0  0  0  0  0  0  0  0  0  0  0
    8.4532    0.3482   26.0821 C   0  0  0  0  0  0  0  0  0  0  0  0
   10.4239   -1.7677   22.2230 N   0  0  0  0  0  0  0  0  0  0  0  0
    9.9468   -4.5953   20.1709 C   0  0  0  0  0  0  0  0  0  0  0  0
   10.0366   -3.0590   23.9864 N   0  0  0  0  0  0  0  0  0  0  0  0
    7.1191   -7.3636   15.7739 C   0  0  0  0  0  0  0  0  0  0  0  0
    5.9612   -8.3203   17.2732 N   0  0  0  0  0  0  0  0  0  0  0  0
    8.5296   -5.9814   17.1841 C   0  0  0  0  0  0  0  0  0  0  0  0
    9.1527   -5.2118   16.2116 C   0  0  0  0  0  0  0  0  0  0  0  0
   10.3364   -3.8368   22.9255 O   0  0  0  0  0  0  0  0  0  0  0  0
    9.6947   -4.8407   18.8534 C   0  0  0  0  0  0  0  0  0  0  0  0
    9.1596    1.7042   24.1381 C   0  0  0  0  0  0  0  0  0  0  0  0
   11.0456   -2.9774   18.2694 N   0  0  0  0  0  0  0  0  0  0  0  0
   10.4788   -3.0457   21.8593 C   0  0  0  0  0  0  0  0  0  0  0  0
    8.8693   -5.8099   18.4657 N   0  0  0  0  0  0  0  0  0  0  0  0
    8.9892   -0.7926   25.4573 C   0  0  0  0  0  0  0  0  0  0  0  0
   10.5677   -3.4462   20.5323 C   0  0  0  0  0  0  0  0  0  0  0  0
  1  8  1  0
  1 12  4  0
  1 14  4  0
  2  3  4  0
  2 18  4  0
  3 20  4  0
  3 22  4  0
  4 11  4  0
  4 21  4  0
  5  9  4  0
  5 16  4  0
  6 15  4  0
  6 16  4  0
  7 22  4  0
  7 26  4  0
  8 10  4  0
  8 25  4  0
  9 15  4  0
  9 17  1  0
 10 21  4  0
 11 25  4  0
 12 23  4  0
 13 20  4  0
 13 26  4  0
 14 19  4  0
 17 18  4  0
 17 24  4  0
 19 23  4  0
 20 24  4  0
 23 26  1  0
M  END
$$$$

 Created by Python create_sdf_string function

 26 30  0  0  0  0  0  0  0  0999 V2000
   10.0084   -1.8019   23.4945 C   0  0  0  0  0  0  0  0  0  0  0  0
   10.0005   -4.2520   16.5631 C   0  0  0  0  0  0  0  0  0  0  0  0
   10.2759   -4.0036   17.8845 C   0  0  0  0  0  0  0  0  0  0  0  0
    8.5652    1.5478   25.3778 N   0  0  0  0  0  0  0  0  0  0  0  0
    6.8048   -7.5457   17.8752 C   0  0  0  0  0  0  0  0  0  0  0  0
    6.1721   -8.2186   15.9886 N   0  0  0  0  0  0  0  0  0  0  0  0
   11.1764   -2.6600   19.5604 C   0  0  0  0  0  0  0  0  0  0  0  0
    9.5491   -0.6380   24.1912 C   0  0  0  0  0  0  0  0  0  0  0  0
    7.5337   -6.9256   16.9519 C   0  0  0  0  0  0  0  0  0  0  0  0
    9.6782    0.5671   23.5143 C   0  0  0  0  0  0  0  0  0  0  0  0
    8.4532    0.3482   26.0821 C   0  0  0  0  0  0  0  0  0  0  0  0
   10.4239   -1.7677   22.2230 N   0  0  0  0  0  0  0  0  0  0  0  0
    9.9468   -4.5953   20.1709 C   0  0  0  0  0  0  0  0  0  0  0  0
   10.0366   -3.0590   23.9864 N   0  0  0  0  0  0  0  0  0  0  0  0
    7.1191   -7.3636   15.7739 C   0  0  0  0  0  0  0  0  0  0  0  0
    5.9612   -8.3203   17.2732 N   0  0  0  0  0  0  0  0  0  0  0  0
    8.5296   -5.9814   17.1841 C   0  0  0  0  0  0  0  0  0  0  0  0
    9.1527   -5.2118   16.2116 C   0  0  0  0  0  0  0  0  0  0  0  0
   10.3364   -3.8368   22.9255 O   0  0  0  0  0  0  0  0  0  0  0  0
    9.6947   -4.8407   18.8534 C   0  0  0  0  0  0  0  0  0  0  0  0
    9.1596    1.7042   24.1381 C   0  0  0  0  0  0  0  0  0  0  0  0
   11.0456   -2.9774   18.2694 N   0  0  0  0  0  0  0  0  0  0  0  0
   10.4788   -3.0457   21.8593 C   0  0  0  0  0  0  0  0  0  0  0  0
    8.8693   -5.8099   18.4657 N   0  0  0  0  0  0  0  0  0  0  0  0
    8.9892   -0.7926   25.4573 C   0  0  0  0  0  0  0  0  0  0  0  0
   10.5677   -3.4462   20.5323 C   0  0  0  0  0  0  0  0  0  0  0  0
  1  8  1  0
  1 12  4  0
  1 14  4  0
  2  3  4  0
  2 18  4  0
  3 20  4  0
  3 22  4  0
  4 11  4  0
  4 21  4  0
  5  9  4  0
  5 16  4  0
  6 15  4  0
  6 16  4  0
  7 22  4  0
  7 26  4  0
  8 10  4  0
  8 25  4  0
  9 15  4  0
  9 17  1  0
 10 21  4  0
 11 25  4  0
 12 23  4  0
 13 20  4  0
 13 26  4  0
 14 19  4  0
 17 18  4  0
 17 24  4  0
 19 23  4  0
 20 24  4  0
 23 26  1  0
M  END
$$$$

 Created by Python create_sdf_string function

 26 30  0  0  0  0  0  0  0  0999 V2000
   10.0084   -1.8019   23.4945 C   0  0  0  0  0  0  0  0  0  0  0  0
   10.0005   -4.2520   16.5631 C   0  0  0  0  0  0  0  0  0  0  0  0
   10.2759   -4.0036   17.8845 C   0  0  0  0  0  0  0  0  0  0  0  0
    8.5652    1.5478   25.3778 N   0  0  0  0  0  0  0  0  0  0  0  0
    6.8048   -7.5457   17.8752 C   0  0  0  0  0  0  0  0  0  0  0  0
    6.1721   -8.2186   15.9886 N   0  0  0  0  0  0  0  0  0  0  0  0
   11.1764   -2.6600   19.5604 C   0  0  0  0  0  0  0  0  0  0  0  0
    9.5491   -0.6380   24.1912 C   0  0  0  0  0  0  0  0  0  0  0  0
    7.5337   -6.9256   16.9519 C   0  0  0  0  0  0  0  0  0  0  0  0
    9.6782    0.5671   23.5143 C   0  0  0  0  0  0  0  0  0  0  0  0
    8.4532    0.3482   26.0821 C   0  0  0  0  0  0  0  0  0  0  0  0
   10.4239   -1.7677   22.2230 N   0  0  0  0  0  0  0  0  0  0  0  0
    9.9468   -4.5953   20.1709 C   0  0  0  0  0  0  0  0  0  0  0  0
   10.0366   -3.0590   23.9864 N   0  0  0  0  0  0  0  0  0  0  0  0
    7.1191   -7.3636   15.7739 C   0  0  0  0  0  0  0  0  0  0  0  0
    5.9612   -8.3203   17.2732 N   0  0  0  0  0  0  0  0  0  0  0  0
    8.5296   -5.9814   17.1841 C   0  0  0  0  0  0  0  0  0  0  0  0
    9.1527   -5.2118   16.2116 C   0  0  0  0  0  0  0  0  0  0  0  0
   10.3364   -3.8368   22.9255 O   0  0  0  0  0  0  0  0  0  0  0  0
    9.6947   -4.8407   18.8534 C   0  0  0  0  0  0  0  0  0  0  0  0
    9.1596    1.7042   24.1381 C   0  0  0  0  0  0  0  0  0  0  0  0
   11.0456   -2.9774   18.2694 N   0  0  0  0  0  0  0  0  0  0  0  0
   10.4788   -3.0457   21.8593 C   0  0  0  0  0  0  0  0  0  0  0  0
    8.8693   -5.8099   18.4657 N   0  0  0  0  0  0  0  0  0  0  0  0
    8.9892   -0.7926   25.4573 C   0  0  0  0  0  0  0  0  0  0  0  0
   10.5677   -3.4462   20.5323 C   0  0  0  0  0  0  0  0  0  0  0  0
  1  8  1  0
  1 12  4  0
  1 14  4  0
  2  3  4  0
  2 18  4  0
  3 20  4  0
  3 22  4  0
  4 11  4  0
  4 21  4  0
  5  9  4  0
  5 16  4  0
  6 15  4  0
  6 16  4  0
  7 22  4  0
  7 26  4  0
  8 10  4  0
  8 25  4  0
  9 15  4  0
  9 17  1  0
 10 21  4  0
 11 25  4  0
 12 23  4  0
 13 20  4  0
 13 26  4  0
 14 19  4  0
 17 18  4  0
 17 24  4  0
 19 23  4  0
 20 24  4  0
 23 26  1  0
M  END
$$$$

 Created by Python create_sdf_string function

 26 30  0  0  0  0  0  0  0  0999 V2000
   10.0084   -1.8019   23.4945 C   0  0  0  0  0  0  0  0  0  0  0  0
   10.0005   -4.2520   16.5631 C   0  0  0  0  0  0  0  0  0  0  0  0
   10.2759   -4.0036   17.8845 C   0  0  0  0  0  0  0  0  0  0  0  0
    8.5652    1.5478   25.3778 N   0  0  0  0  0  0  0  0  0  0  0  0
    6.8048   -7.5457   17.8752 C   0  0  0  0  0  0  0  0  0  0  0  0
    6.1721   -8.2186   15.9886 N   0  0  0  0  0  0  0  0  0  0  0  0
   11.1764   -2.6600   19.5604 C   0  0  0  0  0  0  0  0  0  0  0  0
    9.5491   -0.6380   24.1912 C   0  0  0  0  0  0  0  0  0  0  0  0
    7.5337   -6.9256   16.9519 C   0  0  0  0  0  0  0  0  0  0  0  0
    9.6782    0.5671   23.5143 C   0  0  0  0  0  0  0  0  0  0  0  0
    8.4532    0.3482   26.0821 C   0  0  0  0  0  0  0  0  0  0  0  0
   10.4239   -1.7677   22.2230 N   0  0  0  0  0  0  0  0  0  0  0  0
    9.9468   -4.5953   20.1709 C   0  0  0  0  0  0  0  0  0  0  0  0
   10.0366   -3.0590   23.9864 N   0  0  0  0  0  0  0  0  0  0  0  0
    7.1191   -7.3636   15.7739 C   0  0  0  0  0  0  0  0  0  0  0  0
    5.9612   -8.3203   17.2732 N   0  0  0  0  0  0  0  0  0  0  0  0
    8.5296   -5.9814   17.1841 C   0  0  0  0  0  0  0  0  0  0  0  0
    9.1527   -5.2118   16.2116 C   0  0  0  0  0  0  0  0  0  0  0  0
   10.3364   -3.8368   22.9255 O   0  0  0  0  0  0  0  0  0  0  0  0
    9.6947   -4.8407   18.8534 C   0  0  0  0  0  0  0  0  0  0  0  0
    9.1596    1.7042   24.1381 C   0  0  0  0  0  0  0  0  0  0  0  0
   11.0456   -2.9774   18.2694 N   0  0  0  0  0  0  0  0  0  0  0  0
   10.4788   -3.0457   21.8593 C   0  0  0  0  0  0  0  0  0  0  0  0
    8.8693   -5.8099   18.4657 N   0  0  0  0  0  0  0  0  0  0  0  0
    8.9892   -0.7926   25.4573 C   0  0  0  0  0  0  0  0  0  0  0  0
   10.5677   -3.4462   20.5323 C   0  0  0  0  0  0  0  0  0  0  0  0
  1  8  1  0
  1 12  4  0
  1 14  4  0
  2  3  4  0
  2 18  4  0
  3 20  4  0
  3 22  4  0
  4 11  4  0
  4 21  4  0
  5  9  4  0
  5 16  4  0
  6 15  4  0
  6 16  4  0
  7 22  4  0
  7 26  4  0
  8 10  4  0
  8 25  4  0
  9 15  4  0
  9 17  1  0
 10 21  4  0
 11 25  4  0
 12 23  4  0
 13 20  4  0
 13 26  4  0
 14 19  4  0
 17 18  4  0
 17 24  4  0
 19 23  4  0
 20 24  4  0
 23 26  1  0
M  END
$$$$

 Created by Python create_sdf_string function

 26 30  0  0  0  0  0  0  0  0999 V2000
   10.0084   -1.8019   23.4945 C   0  0  0  0  0  0  0  0  0  0  0  0
   10.0005   -4.2520   16.5631 C   0  0  0  0  0  0  0  0  0  0  0  0
   10.2759   -4.0036   17.8845 C   0  0  0  0  0  0  0  0  0  0  0  0
    8.5652    1.5478   25.3778 N   0  0  0  0  0  0  0  0  0  0  0  0
    6.8048   -7.5457   17.8752 C   0  0  0  0  0  0  0  0  0  0  0  0
    6.1721   -8.2186   15.9886 N   0  0  0  0  0  0  0  0  0  0  0  0
   11.1764   -2.6600   19.5604 C   0  0  0  0  0  0  0  0  0  0  0  0
    9.5491   -0.6380   24.1912 C   0  0  0  0  0  0  0  0  0  0  0  0
    7.5337   -6.9256   16.9519 C   0  0  0  0  0  0  0  0  0  0  0  0
    9.6782    0.5671   23.5143 C   0  0  0  0  0  0  0  0  0  0  0  0
    8.4532    0.3482   26.0821 C   0  0  0  0  0  0  0  0  0  0  0  0
   10.4239   -1.7677   22.2230 N   0  0  0  0  0  0  0  0  0  0  0  0
    9.9468   -4.5953   20.1709 C   0  0  0  0  0  0  0  0  0  0  0  0
   10.0366   -3.0590   23.9864 N   0  0  0  0  0  0  0  0  0  0  0  0
    7.1191   -7.3636   15.7739 C   0  0  0  0  0  0  0  0  0  0  0  0
    5.9612   -8.3203   17.2732 N   0  0  0  0  0  0  0  0  0  0  0  0
    8.5296   -5.9814   17.1841 C   0  0  0  0  0  0  0  0  0  0  0  0
    9.1527   -5.2118   16.2116 C   0  0  0  0  0  0  0  0  0  0  0  0
   10.3364   -3.8368   22.9255 O   0  0  0  0  0  0  0  0  0  0  0  0
    9.6947   -4.8407   18.8534 C   0  0  0  0  0  0  0  0  0  0  0  0
    9.1596    1.7042   24.1381 C   0  0  0  0  0  0  0  0  0  0  0  0
   11.0456   -2.9774   18.2694 N   0  0  0  0  0  0  0  0  0  0  0  0
   10.4788   -3.0457   21.8593 C   0  0  0  0  0  0  0  0  0  0  0  0
    8.8693   -5.8099   18.4657 N   0  0  0  0  0  0  0  0  0  0  0  0
    8.9892   -0.7926   25.4573 C   0  0  0  0  0  0  0  0  0  0  0  0
   10.5677   -3.4462   20.5323 C   0  0  0  0  0  0  0  0  0  0  0  0
  1  8  1  0
  1 12  4  0
  1 14  4  0
  2  3  4  0
  2 18  4  0
  3 20  4  0
  3 22  4  0
  4 11  4  0
  4 21  4  0
  5  9  4  0
  5 16  4  0
  6 15  4  0
  6 16  4  0
  7 22  4  0
  7 26  4  0
  8 10  4  0
  8 25  4  0
  9 15  4  0
  9 17  1  0
 10 21  4  0
 11 25  4  0
 12 23  4  0
 13 20  4  0
 13 26  4  0
 14 19  4  0
 17 18  4  0
 17 24  4  0
 19 23  4  0
 20 24  4  0
 23 26  1  0
M  END
$$$$

 Created by Python create_sdf_string function

 26 30  0  0  0  0  0  0  0  0999 V2000
   10.0084   -1.8019   23.4945 C   0  0  0  0  0  0  0  0  0  0  0  0
   10.0005   -4.2520   16.5631 C   0  0  0  0  0  0  0  0  0  0  0  0
   10.2759   -4.0036   17.8845 C   0  0  0  0  0  0  0  0  0  0  0  0
    8.5652    1.5478   25.3778 N   0  0  0  0  0  0  0  0  0  0  0  0
    6.8048   -7.5457   17.8752 C   0  0  0  0  0  0  0  0  0  0  0  0
    6.1721   -8.2186   15.9886 N   0  0  0  0  0  0  0  0  0  0  0  0
   11.1764   -2.6600   19.5604 C   0  0  0  0  0  0  0  0  0  0  0  0
    9.5491   -0.6380   24.1912 C   0  0  0  0  0  0  0  0  0  0  0  0
    7.5337   -6.9256   16.9519 C   0  0  0  0  0  0  0  0  0  0  0  0
    9.6782    0.5671   23.5143 C   0  0  0  0  0  0  0  0  0  0  0  0
    8.4532    0.3482   26.0821 C   0  0  0  0  0  0  0  0  0  0  0  0
   10.4239   -1.7677   22.2230 N   0  0  0  0  0  0  0  0  0  0  0  0
    9.9468   -4.5953   20.1709 C   0  0  0  0  0  0  0  0  0  0  0  0
   10.0366   -3.0590   23.9864 N   0  0  0  0  0  0  0  0  0  0  0  0
    7.1191   -7.3636   15.7739 C   0  0  0  0  0  0  0  0  0  0  0  0
    5.9612   -8.3203   17.2732 N   0  0  0  0  0  0  0  0  0  0  0  0
    8.5296   -5.9814   17.1841 C   0  0  0  0  0  0  0  0  0  0  0  0
    9.1527   -5.2118   16.2116 C   0  0  0  0  0  0  0  0  0  0  0  0
   10.3364   -3.8368   22.9255 O   0  0  0  0  0  0  0  0  0  0  0  0
    9.6947   -4.8407   18.8534 C   0  0  0  0  0  0  0  0  0  0  0  0
    9.1596    1.7042   24.1381 C   0  0  0  0  0  0  0  0  0  0  0  0
   11.0456   -2.9774   18.2694 N   0  0  0  0  0  0  0  0  0  0  0  0
   10.4788   -3.0457   21.8593 C   0  0  0  0  0  0  0  0  0  0  0  0
    8.8693   -5.8099   18.4657 N   0  0  0  0  0  0  0  0  0  0  0  0
    8.9892   -0.7926   25.4573 C   0  0  0  0  0  0  0  0  0  0  0  0
   10.5677   -3.4462   20.5323 C   0  0  0  0  0  0  0  0  0  0  0  0
  1  8  1  0
  1 12  4  0
  1 14  4  0
  2  3  4  0
  2 18  4  0
  3 20  4  0
  3 22  4  0
  4 11  4  0
  4 21  4  0
  5  9  4  0
  5 16  4  0
  6 15  4  0
  6 16  4  0
  7 22  4  0
  7 26  4  0
  8 10  4  0
  8 25  4  0
  9 15  4  0
  9 17  1  0
 10 21  4  0
 11 25  4  0
 12 23  4  0
 13 20  4  0
 13 26  4  0
 14 19  4  0
 17 18  4  0
 17 24  4  0
 19 23  4  0
 20 24  4  0
 23 26  1  0
M  END
$$$$

 Created by Python create_sdf_string function

 26 30  0  0  0  0  0  0  0  0999 V2000
   10.0084   -1.8019   23.4945 C   0  0  0  0  0  0  0  0  0  0  0  0
   10.0005   -4.2520   16.5631 C   0  0  0  0  0  0  0  0  0  0  0  0
   10.2759   -4.0036   17.8845 C   0  0  0  0  0  0  0  0  0  0  0  0
    8.5652    1.5478   25.3778 N   0  0  0  0  0  0  0  0  0  0  0  0
    6.8048   -7.5457   17.8752 C   0  0  0  0  0  0  0  0  0  0  0  0
    6.1721   -8.2186   15.9886 N   0  0  0  0  0  0  0  0  0  0  0  0
   11.1764   -2.6600   19.5604 C   0  0  0  0  0  0  0  0  0  0  0  0
    9.5491   -0.6380   24.1912 C   0  0  0  0  0  0  0  0  0  0  0  0
    7.5337   -6.9256   16.9519 C   0  0  0  0  0  0  0  0  0  0  0  0
    9.6782    0.5671   23.5143 C   0  0  0  0  0  0  0  0  0  0  0  0
    8.4532    0.3482   26.0821 C   0  0  0  0  0  0  0  0  0  0  0  0
   10.4239   -1.7677   22.2230 N   0  0  0  0  0  0  0  0  0  0  0  0
    9.9468   -4.5953   20.1709 C   0  0  0  0  0  0  0  0  0  0  0  0
   10.0366   -3.0590   23.9864 N   0  0  0  0  0  0  0  0  0  0  0  0
    7.1191   -7.3636   15.7739 C   0  0  0  0  0  0  0  0  0  0  0  0
    5.9612   -8.3203   17.2732 N   0  0  0  0  0  0  0  0  0  0  0  0
    8.5296   -5.9814   17.1841 C   0  0  0  0  0  0  0  0  0  0  0  0
    9.1527   -5.2118   16.2116 C   0  0  0  0  0  0  0  0  0  0  0  0
   10.3364   -3.8368   22.9255 O   0  0  0  0  0  0  0  0  0  0  0  0
    9.6947   -4.8407   18.8534 C   0  0  0  0  0  0  0  0  0  0  0  0
    9.1596    1.7042   24.1381 C   0  0  0  0  0  0  0  0  0  0  0  0
   11.0456   -2.9774   18.2694 N   0  0  0  0  0  0  0  0  0  0  0  0
   10.4788   -3.0457   21.8593 C   0  0  0  0  0  0  0  0  0  0  0  0
    8.8693   -5.8099   18.4657 N   0  0  0  0  0  0  0  0  0  0  0  0
    8.9892   -0.7926   25.4573 C   0  0  0  0  0  0  0  0  0  0  0  0
   10.5677   -3.4462   20.5323 C   0  0  0  0  0  0  0  0  0  0  0  0
  1  8  1  0
  1 12  4  0
  1 14  4  0
  2  3  4  0
  2 18  4  0
  3 20  4  0
  3 22  4  0
  4 11  4  0
  4 21  4  0
  5  9  4  0
  5 16  4  0
  6 15  4  0
  6 16  4  0
  7 22  4  0
  7 26  4  0
  8 10  4  0
  8 25  4  0
  9 15  4  0
  9 17  1  0
 10 21  4  0
 11 25  4  0
 12 23  4  0
 13 20  4  0
 13 26  4  0
 14 19  4  0
 17 18  4  0
 17 24  4  0
 19 23  4  0
 20 24  4  0
 23 26  1  0
M  END
$$$$

 Created by Python create_sdf_string function

 26 30  0  0  0  0  0  0  0  0999 V2000
   10.0084   -1.8019   23.4945 C   0  0  0  0  0  0  0  0  0  0  0  0
   10.0005   -4.2520   16.5631 C   0  0  0  0  0  0  0  0  0  0  0  0
   10.2759   -4.0036   17.8845 C   0  0  0  0  0  0  0  0  0  0  0  0
    8.5652    1.5478   25.3778 N   0  0  0  0  0  0  0  0  0  0  0  0
    6.8048   -7.5457   17.8752 C   0  0  0  0  0  0  0  0  0  0  0  0
    6.1721   -8.2186   15.9886 N   0  0  0  0  0  0  0  0  0  0  0  0
   11.1764   -2.6600   19.5604 C   0  0  0  0  0  0  0  0  0  0  0  0
    9.5491   -0.6380   24.1912 C   0  0  0  0  0  0  0  0  0  0  0  0
    7.5337   -6.9256   16.9519 C   0  0  0  0  0  0  0  0  0  0  0  0
    9.6782    0.5671   23.5143 C   0  0  0  0  0  0  0  0  0  0  0  0
    8.4532    0.3482   26.0821 C   0  0  0  0  0  0  0  0  0  0  0  0
   10.4239   -1.7677   22.2230 N   0  0  0  0  0  0  0  0  0  0  0  0
    9.9468   -4.5953   20.1709 C   0  0  0  0  0  0  0  0  0  0  0  0
   10.0366   -3.0590   23.9864 N   0  0  0  0  0  0  0  0  0  0  0  0
    7.1191   -7.3636   15.7739 C   0  0  0  0  0  0  0  0  0  0  0  0
    5.9612   -8.3203   17.2732 N   0  0  0  0  0  0  0  0  0  0  0  0
    8.5296   -5.9814   17.1841 C   0  0  0  0  0  0  0  0  0  0  0  0
    9.1527   -5.2118   16.2116 C   0  0  0  0  0  0  0  0  0  0  0  0
   10.3364   -3.8368   22.9255 O   0  0  0  0  0  0  0  0  0  0  0  0
    9.6947   -4.8407   18.8534 C   0  0  0  0  0  0  0  0  0  0  0  0
    9.1596    1.7042   24.1381 C   0  0  0  0  0  0  0  0  0  0  0  0
   11.0456   -2.9774   18.2694 N   0  0  0  0  0  0  0  0  0  0  0  0
   10.4788   -3.0457   21.8593 C   0  0  0  0  0  0  0  0  0  0  0  0
    8.8693   -5.8099   18.4657 N   0  0  0  0  0  0  0  0  0  0  0  0
    8.9892   -0.7926   25.4573 C   0  0  0  0  0  0  0  0  0  0  0  0
   10.5677   -3.4462   20.5323 C   0  0  0  0  0  0  0  0  0  0  0  0
  1  8  1  0
  1 12  4  0
  1 14  4  0
  2  3  4  0
  2 18  4  0
  3 20  4  0
  3 22  4  0
  4 11  4  0
  4 21  4  0
  5  9  4  0
  5 16  4  0
  6 15  4  0
  6 16  4  0
  7 22  4  0
  7 26  4  0
  8 10  4  0
  8 25  4  0
  9 15  4  0
  9 17  1  0
 10 21  4  0
 11 25  4  0
 12 23  4  0
 13 20  4  0
 13 26  4  0
 14 19  4  0
 17 18  4  0
 17 24  4  0
 19 23  4  0
 20 24  4  0
 23 26  1  0
M  END
$$$$

 Created by Python create_sdf_string function

 26 30  0  0  0  0  0  0  0  0999 V2000
   10.0084   -1.8019   23.4945 C   0  0  0  0  0  0  0  0  0  0  0  0
   10.0005   -4.2520   16.5631 C   0  0  0  0  0  0  0  0  0  0  0  0
   10.2759   -4.0036   17.8845 C   0  0  0  0  0  0  0  0  0  0  0  0
    8.5652    1.5478   25.3778 N   0  0  0  0  0  0  0  0  0  0  0  0
    6.8048   -7.5457   17.8752 C   0  0  0  0  0  0  0  0  0  0  0  0
    6.1721   -8.2186   15.9886 N   0  0  0  0  0  0  0  0  0  0  0  0
   11.1764   -2.6600   19.5604 C   0  0  0  0  0  0  0  0  0  0  0  0
    9.5491   -0.6380   24.1912 C   0  0  0  0  0  0  0  0  0  0  0  0
    7.5337   -6.9256   16.9519 C   0  0  0  0  0  0  0  0  0  0  0  0
    9.6782    0.5671   23.5143 C   0  0  0  0  0  0  0  0  0  0  0  0
    8.4532    0.3482   26.0821 C   0  0  0  0  0  0  0  0  0  0  0  0
   10.4239   -1.7677   22.2230 N   0  0  0  0  0  0  0  0  0  0  0  0
    9.9468   -4.5953   20.1709 C   0  0  0  0  0  0  0  0  0  0  0  0
   10.0366   -3.0590   23.9864 N   0  0  0  0  0  0  0  0  0  0  0  0
    7.1191   -7.3636   15.7739 C   0  0  0  0  0  0  0  0  0  0  0  0
    5.9612   -8.3203   17.2732 N   0  0  0  0  0  0  0  0  0  0  0  0
    8.5296   -5.9814   17.1841 C   0  0  0  0  0  0  0  0  0  0  0  0
    9.1527   -5.2118   16.2116 C   0  0  0  0  0  0  0  0  0  0  0  0
   10.3364   -3.8368   22.9255 O   0  0  0  0  0  0  0  0  0  0  0  0
    9.6947   -4.8407   18.8534 C   0  0  0  0  0  0  0  0  0  0  0  0
    9.1596    1.7042   24.1381 C   0  0  0  0  0  0  0  0  0  0  0  0
   11.0456   -2.9774   18.2694 N   0  0  0  0  0  0  0  0  0  0  0  0
   10.4788   -3.0457   21.8593 C   0  0  0  0  0  0  0  0  0  0  0  0
    8.8693   -5.8099   18.4657 N   0  0  0  0  0  0  0  0  0  0  0  0
    8.9892   -0.7926   25.4573 C   0  0  0  0  0  0  0  0  0  0  0  0
   10.5677   -3.4462   20.5323 C   0  0  0  0  0  0  0  0  0  0  0  0
  1  8  1  0
  1 12  4  0
  1 14  4  0
  2  3  4  0
  2 18  4  0
  3 20  4  0
  3 22  4  0
  4 11  4  0
  4 21  4  0
  5  9  4  0
  5 16  4  0
  6 15  4  0
  6 16  4  0
  7 22  4  0
  7 26  4  0
  8 10  4  0
  8 25  4  0
  9 15  4  0
  9 17  1  0
 10 21  4  0
 11 25  4  0
 12 23  4  0
 13 20  4  0
 13 26  4  0
 14 19  4  0
 17 18  4  0
 17 24  4  0
 19 23  4  0
 20 24  4  0
 23 26  1  0
M  END
$$$$

 Created by Python create_sdf_string function

 26 30  0  0  0  0  0  0  0  0999 V2000
   10.0084   -1.8019   23.4945 C   0  0  0  0  0  0  0  0  0  0  0  0
   10.0005   -4.2520   16.5631 C   0  0  0  0  0  0  0  0  0  0  0  0
   10.2759   -4.0036   17.8845 C   0  0  0  0  0  0  0  0  0  0  0  0
    8.5652    1.5478   25.3778 N   0  0  0  0  0  0  0  0  0  0  0  0
    6.8048   -7.5457   17.8752 C   0  0  0  0  0  0  0  0  0  0  0  0
    6.1721   -8.2186   15.9886 N   0  0  0  0  0  0  0  0  0  0  0  0
   11.1764   -2.6600   19.5604 C   0  0  0  0  0  0  0  0  0  0  0  0
    9.5491   -0.6380   24.1912 C   0  0  0  0  0  0  0  0  0  0  0  0
    7.5337   -6.9256   16.9519 C   0  0  0  0  0  0  0  0  0  0  0  0
    9.6782    0.5671   23.5143 C   0  0  0  0  0  0  0  0  0  0  0  0
    8.4532    0.3482   26.0821 C   0  0  0  0  0  0  0  0  0  0  0  0
   10.4239   -1.7677   22.2230 N   0  0  0  0  0  0  0  0  0  0  0  0
    9.9468   -4.5953   20.1709 C   0  0  0  0  0  0  0  0  0  0  0  0
   10.0366   -3.0590   23.9864 N   0  0  0  0  0  0  0  0  0  0  0  0
    7.1191   -7.3636   15.7739 C   0  0  0  0  0  0  0  0  0  0  0  0
    5.9612   -8.3203   17.2732 N   0  0  0  0  0  0  0  0  0  0  0  0
    8.5296   -5.9814   17.1841 C   0  0  0  0  0  0  0  0  0  0  0  0
    9.1527   -5.2118   16.2116 C   0  0  0  0  0  0  0  0  0  0  0  0
   10.3364   -3.8368   22.9255 O   0  0  0  0  0  0  0  0  0  0  0  0
    9.6947   -4.8407   18.8534 C   0  0  0  0  0  0  0  0  0  0  0  0
    9.1596    1.7042   24.1381 C   0  0  0  0  0  0  0  0  0  0  0  0
   11.0456   -2.9774   18.2694 N   0  0  0  0  0  0  0  0  0  0  0  0
   10.4788   -3.0457   21.8593 C   0  0  0  0  0  0  0  0  0  0  0  0
    8.8693   -5.8099   18.4657 N   0  0  0  0  0  0  0  0  0  0  0  0
    8.9892   -0.7926   25.4573 C   0  0  0  0  0  0  0  0  0  0  0  0
   10.5677   -3.4462   20.5323 C   0  0  0  0  0  0  0  0  0  0  0  0
  1  8  1  0
  1 12  4  0
  1 14  4  0
  2  3  4  0
  2 18  4  0
  3 20  4  0
  3 22  4  0
  4 11  4  0
  4 21  4  0
  5  9  4  0
  5 16  4  0
  6 15  4  0
  6 16  4  0
  7 22  4  0
  7 26  4  0
  8 10  4  0
  8 25  4  0
  9 15  4  0
  9 17  1  0
 10 21  4  0
 11 25  4  0
 12 23  4  0
 13 20  4  0
 13 26  4  0
 14 19  4  0
 17 18  4  0
 17 24  4  0
 19 23  4  0
 20 24  4  0
 23 26  1  0
M  END
$$$$

 Created by Python create_sdf_string function

 26 30  0  0  0  0  0  0  0  0999 V2000
   10.0084   -1.8019   23.4945 C   0  0  0  0  0  0  0  0  0  0  0  0
   10.0005   -4.2520   16.5631 C   0  0  0  0  0  0  0  0  0  0  0  0
   10.2759   -4.0036   17.8845 C   0  0  0  0  0  0  0  0  0  0  0  0
    8.5652    1.5478   25.3778 N   0  0  0  0  0  0  0  0  0  0  0  0
    6.8048   -7.5457   17.8752 C   0  0  0  0  0  0  0  0  0  0  0  0
    6.1721   -8.2186   15.9886 N   0  0  0  0  0  0  0  0  0  0  0  0
   11.1764   -2.6600   19.5604 C   0  0  0  0  0  0  0  0  0  0  0  0
    9.5491   -0.6380   24.1912 C   0  0  0  0  0  0  0  0  0  0  0  0
    7.5337   -6.9256   16.9519 C   0  0  0  0  0  0  0  0  0  0  0  0
    9.6782    0.5671   23.5143 C   0  0  0  0  0  0  0  0  0  0  0  0
    8.4532    0.3482   26.0821 C   0  0  0  0  0  0  0  0  0  0  0  0
   10.4239   -1.7677   22.2230 N   0  0  0  0  0  0  0  0  0  0  0  0
    9.9468   -4.5953   20.1709 C   0  0  0  0  0  0  0  0  0  0  0  0
   10.0366   -3.0590   23.9864 N   0  0  0  0  0  0  0  0  0  0  0  0
    7.1191   -7.3636   15.7739 C   0  0  0  0  0  0  0  0  0  0  0  0
    5.9612   -8.3203   17.2732 N   0  0  0  0  0  0  0  0  0  0  0  0
    8.5296   -5.9814   17.1841 C   0  0  0  0  0  0  0  0  0  0  0  0
    9.1527   -5.2118   16.2116 C   0  0  0  0  0  0  0  0  0  0  0  0
   10.3364   -3.8368   22.9255 O   0  0  0  0  0  0  0  0  0  0  0  0
    9.6947   -4.8407   18.8534 C   0  0  0  0  0  0  0  0  0  0  0  0
    9.1596    1.7042   24.1381 C   0  0  0  0  0  0  0  0  0  0  0  0
   11.0456   -2.9774   18.2694 N   0  0  0  0  0  0  0  0  0  0  0  0
   10.4788   -3.0457   21.8593 C   0  0  0  0  0  0  0  0  0  0  0  0
    8.8693   -5.8099   18.4657 N   0  0  0  0  0  0  0  0  0  0  0  0
    8.9892   -0.7926   25.4573 C   0  0  0  0  0  0  0  0  0  0  0  0
   10.5677   -3.4462   20.5323 C   0  0  0  0  0  0  0  0  0  0  0  0
  1  8  1  0
  1 12  4  0
  1 14  4  0
  2  3  4  0
  2 18  4  0
  3 20  4  0
  3 22  4  0
  4 11  4  0
  4 21  4  0
  5  9  4  0
  5 16  4  0
  6 15  4  0
  6 16  4  0
  7 22  4  0
  7 26  4  0
  8 10  4  0
  8 25  4  0
  9 15  4  0
  9 17  1  0
 10 21  4  0
 11 25  4  0
 12 23  4  0
 13 20  4  0
 13 26  4  0
 14 19  4  0
 17 18  4  0
 17 24  4  0
 19 23  4  0
 20 24  4  0
 23 26  1  0
M  END
$$$$

 Created by Python create_sdf_string function

 26 30  0  0  0  0  0  0  0  0999 V2000
   10.0084   -1.8019   23.4945 C   0  0  0  0  0  0  0  0  0  0  0  0
   10.0005   -4.2520   16.5631 C   0  0  0  0  0  0  0  0  0  0  0  0
   10.2759   -4.0036   17.8845 C   0  0  0  0  0  0  0  0  0  0  0  0
    8.5652    1.5478   25.3778 N   0  0  0  0  0  0  0  0  0  0  0  0
    6.8048   -7.5457   17.8752 C   0  0  0  0  0  0  0  0  0  0  0  0
    6.1721   -8.2186   15.9886 N   0  0  0  0  0  0  0  0  0  0  0  0
   11.1764   -2.6600   19.5604 C   0  0  0  0  0  0  0  0  0  0  0  0
    9.5491   -0.6380   24.1912 C   0  0  0  0  0  0  0  0  0  0  0  0
    7.5337   -6.9256   16.9519 C   0  0  0  0  0  0  0  0  0  0  0  0
    9.6782    0.5671   23.5143 C   0  0  0  0  0  0  0  0  0  0  0  0
    8.4532    0.3482   26.0821 C   0  0  0  0  0  0  0  0  0  0  0  0
   10.4239   -1.7677   22.2230 N   0  0  0  0  0  0  0  0  0  0  0  0
    9.9468   -4.5953   20.1709 C   0  0  0  0  0  0  0  0  0  0  0  0
   10.0366   -3.0590   23.9864 N   0  0  0  0  0  0  0  0  0  0  0  0
    7.1191   -7.3636   15.7739 C   0  0  0  0  0  0  0  0  0  0  0  0
    5.9612   -8.3203   17.2732 N   0  0  0  0  0  0  0  0  0  0  0  0
    8.5296   -5.9814   17.1841 C   0  0  0  0  0  0  0  0  0  0  0  0
    9.1527   -5.2118   16.2116 C   0  0  0  0  0  0  0  0  0  0  0  0
   10.3364   -3.8368   22.9255 O   0  0  0  0  0  0  0  0  0  0  0  0
    9.6947   -4.8407   18.8534 C   0  0  0  0  0  0  0  0  0  0  0  0
    9.1596    1.7042   24.1381 C   0  0  0  0  0  0  0  0  0  0  0  0
   11.0456   -2.9774   18.2694 N   0  0  0  0  0  0  0  0  0  0  0  0
   10.4788   -3.0457   21.8593 C   0  0  0  0  0  0  0  0  0  0  0  0
    8.8693   -5.8099   18.4657 N   0  0  0  0  0  0  0  0  0  0  0  0
    8.9892   -0.7926   25.4573 C   0  0  0  0  0  0  0  0  0  0  0  0
   10.5677   -3.4462   20.5323 C   0  0  0  0  0  0  0  0  0  0  0  0
  1  8  1  0
  1 12  4  0
  1 14  4  0
  2  3  4  0
  2 18  4  0
  3 20  4  0
  3 22  4  0
  4 11  4  0
  4 21  4  0
  5  9  4  0
  5 16  4  0
  6 15  4  0
  6 16  4  0
  7 22  4  0
  7 26  4  0
  8 10  4  0
  8 25  4  0
  9 15  4  0
  9 17  1  0
 10 21  4  0
 11 25  4  0
 12 23  4  0
 13 20  4  0
 13 26  4  0
 14 19  4  0
 17 18  4  0
 17 24  4  0
 19 23  4  0
 20 24  4  0
 23 26  1  0
M  END
$$$$

 Created by Python create_sdf_string function

 26 30  0  0  0  0  0  0  0  0999 V2000
   10.0084   -1.8019   23.4945 C   0  0  0  0  0  0  0  0  0  0  0  0
   10.0005   -4.2520   16.5631 C   0  0  0  0  0  0  0  0  0  0  0  0
   10.2759   -4.0036   17.8845 C   0  0  0  0  0  0  0  0  0  0  0  0
    8.5652    1.5478   25.3778 N   0  0  0  0  0  0  0  0  0  0  0  0
    6.8048   -7.5457   17.8752 C   0  0  0  0  0  0  0  0  0  0  0  0
    6.1721   -8.2186   15.9886 N   0  0  0  0  0  0  0  0  0  0  0  0
   11.1764   -2.6600   19.5604 C   0  0  0  0  0  0  0  0  0  0  0  0
    9.5491   -0.6380   24.1912 C   0  0  0  0  0  0  0  0  0  0  0  0
    7.5337   -6.9256   16.9519 C   0  0  0  0  0  0  0  0  0  0  0  0
    9.6782    0.5671   23.5143 C   0  0  0  0  0  0  0  0  0  0  0  0
    8.4532    0.3482   26.0821 C   0  0  0  0  0  0  0  0  0  0  0  0
   10.4239   -1.7677   22.2230 N   0  0  0  0  0  0  0  0  0  0  0  0
    9.9468   -4.5953   20.1709 C   0  0  0  0  0  0  0  0  0  0  0  0
   10.0366   -3.0590   23.9864 N   0  0  0  0  0  0  0  0  0  0  0  0
    7.1191   -7.3636   15.7739 C   0  0  0  0  0  0  0  0  0  0  0  0
    5.9612   -8.3203   17.2732 N   0  0  0  0  0  0  0  0  0  0  0  0
    8.5296   -5.9814   17.1841 C   0  0  0  0  0  0  0  0  0  0  0  0
    9.1527   -5.2118   16.2116 C   0  0  0  0  0  0  0  0  0  0  0  0
   10.3364   -3.8368   22.9255 O   0  0  0  0  0  0  0  0  0  0  0  0
    9.6947   -4.8407   18.8534 C   0  0  0  0  0  0  0  0  0  0  0  0
    9.1596    1.7042   24.1381 C   0  0  0  0  0  0  0  0  0  0  0  0
   11.0456   -2.9774   18.2694 N   0  0  0  0  0  0  0  0  0  0  0  0
   10.4788   -3.0457   21.8593 C   0  0  0  0  0  0  0  0  0  0  0  0
    8.8693   -5.8099   18.4657 N   0  0  0  0  0  0  0  0  0  0  0  0
    8.9892   -0.7926   25.4573 C   0  0  0  0  0  0  0  0  0  0  0  0
   10.5677   -3.4462   20.5323 C   0  0  0  0  0  0  0  0  0  0  0  0
  1  8  1  0
  1 12  4  0
  1 14  4  0
  2  3  4  0
  2 18  4  0
  3 20  4  0
  3 22  4  0
  4 11  4  0
  4 21  4  0
  5  9  4  0
  5 16  4  0
  6 15  4  0
  6 16  4  0
  7 22  4  0
  7 26  4  0
  8 10  4  0
  8 25  4  0
  9 15  4  0
  9 17  1  0
 10 21  4  0
 11 25  4  0
 12 23  4  0
 13 20  4  0
 13 26  4  0
 14 19  4  0
 17 18  4  0
 17 24  4  0
 19 23  4  0
 20 24  4  0
 23 26  1  0
M  END
$$$$

 Created by Python create_sdf_string function

 26 30  0  0  0  0  0  0  0  0999 V2000
   10.0084   -1.8019   23.4945 C   0  0  0  0  0  0  0  0  0  0  0  0
   10.0005   -4.2520   16.5631 C   0  0  0  0  0  0  0  0  0  0  0  0
   10.2759   -4.0036   17.8845 C   0  0  0  0  0  0  0  0  0  0  0  0
    8.5652    1.5478   25.3778 N   0  0  0  0  0  0  0  0  0  0  0  0
    6.8048   -7.5457   17.8752 C   0  0  0  0  0  0  0  0  0  0  0  0
    6.1721   -8.2186   15.9886 N   0  0  0  0  0  0  0  0  0  0  0  0
   11.1764   -2.6600   19.5604 C   0  0  0  0  0  0  0  0  0  0  0  0
    9.5491   -0.6380   24.1912 C   0  0  0  0  0  0  0  0  0  0  0  0
    7.5337   -6.9256   16.9519 C   0  0  0  0  0  0  0  0  0  0  0  0
    9.6782    0.5671   23.5143 C   0  0  0  0  0  0  0  0  0  0  0  0
    8.4532    0.3482   26.0821 C   0  0  0  0  0  0  0  0  0  0  0  0
   10.4239   -1.7677   22.2230 N   0  0  0  0  0  0  0  0  0  0  0  0
    9.9468   -4.5953   20.1709 C   0  0  0  0  0  0  0  0  0  0  0  0
   10.0366   -3.0590   23.9864 N   0  0  0  0  0  0  0  0  0  0  0  0
    7.1191   -7.3636   15.7739 C   0  0  0  0  0  0  0  0  0  0  0  0
    5.9612   -8.3203   17.2732 N   0  0  0  0  0  0  0  0  0  0  0  0
    8.5296   -5.9814   17.1841 C   0  0  0  0  0  0  0  0  0  0  0  0
    9.1527   -5.2118   16.2116 C   0  0  0  0  0  0  0  0  0  0  0  0
   10.3364   -3.8368   22.9255 O   0  0  0  0  0  0  0  0  0  0  0  0
    9.6947   -4.8407   18.8534 C   0  0  0  0  0  0  0  0  0  0  0  0
    9.1596    1.7042   24.1381 C   0  0  0  0  0  0  0  0  0  0  0  0
   11.0456   -2.9774   18.2694 N   0  0  0  0  0  0  0  0  0  0  0  0
   10.4788   -3.0457   21.8593 C   0  0  0  0  0  0  0  0  0  0  0  0
    8.8693   -5.8099   18.4657 N   0  0  0  0  0  0  0  0  0  0  0  0
    8.9892   -0.7926   25.4573 C   0  0  0  0  0  0  0  0  0  0  0  0
   10.5677   -3.4462   20.5323 C   0  0  0  0  0  0  0  0  0  0  0  0
  1  8  1  0
  1 12  4  0
  1 14  4  0
  2  3  4  0
  2 18  4  0
  3 20  4  0
  3 22  4  0
  4 11  4  0
  4 21  4  0
  5  9  4  0
  5 16  4  0
  6 15  4  0
  6 16  4  0
  7 22  4  0
  7 26  4  0
  8 10  4  0
  8 25  4  0
  9 15  4  0
  9 17  1  0
 10 21  4  0
 11 25  4  0
 12 23  4  0
 13 20  4  0
 13 26  4  0
 14 19  4  0
 17 18  4  0
 17 24  4  0
 19 23  4  0
 20 24  4  0
 23 26  1  0
M  END
$$$$

 Created by Python create_sdf_string function

 26 30  0  0  0  0  0  0  0  0999 V2000
   10.0084   -1.8019   23.4945 C   0  0  0  0  0  0  0  0  0  0  0  0
   10.0005   -4.2520   16.5631 C   0  0  0  0  0  0  0  0  0  0  0  0
   10.2759   -4.0036   17.8845 C   0  0  0  0  0  0  0  0  0  0  0  0
    8.5652    1.5478   25.3778 N   0  0  0  0  0  0  0  0  0  0  0  0
    6.8048   -7.5457   17.8752 C   0  0  0  0  0  0  0  0  0  0  0  0
    6.1721   -8.2186   15.9886 N   0  0  0  0  0  0  0  0  0  0  0  0
   11.1764   -2.6600   19.5604 C   0  0  0  0  0  0  0  0  0  0  0  0
    9.5491   -0.6380   24.1912 C   0  0  0  0  0  0  0  0  0  0  0  0
    7.5337   -6.9256   16.9519 C   0  0  0  0  0  0  0  0  0  0  0  0
    9.6782    0.5671   23.5143 C   0  0  0  0  0  0  0  0  0  0  0  0
    8.4532    0.3482   26.0821 C   0  0  0  0  0  0  0  0  0  0  0  0
   10.4239   -1.7677   22.2230 N   0  0  0  0  0  0  0  0  0  0  0  0
    9.9468   -4.5953   20.1709 C   0  0  0  0  0  0  0  0  0  0  0  0
   10.0366   -3.0590   23.9864 N   0  0  0  0  0  0  0  0  0  0  0  0
    7.1191   -7.3636   15.7739 C   0  0  0  0  0  0  0  0  0  0  0  0
    5.9612   -8.3203   17.2732 N   0  0  0  0  0  0  0  0  0  0  0  0
    8.5296   -5.9814   17.1841 C   0  0  0  0  0  0  0  0  0  0  0  0
    9.1527   -5.2118   16.2116 C   0  0  0  0  0  0  0  0  0  0  0  0
   10.3364   -3.8368   22.9255 O   0  0  0  0  0  0  0  0  0  0  0  0
    9.6947   -4.8407   18.8534 C   0  0  0  0  0  0  0  0  0  0  0  0
    9.1596    1.7042   24.1381 C   0  0  0  0  0  0  0  0  0  0  0  0
   11.0456   -2.9774   18.2694 N   0  0  0  0  0  0  0  0  0  0  0  0
   10.4788   -3.0457   21.8593 C   0  0  0  0  0  0  0  0  0  0  0  0
    8.8693   -5.8099   18.4657 N   0  0  0  0  0  0  0  0  0  0  0  0
    8.9892   -0.7926   25.4573 C   0  0  0  0  0  0  0  0  0  0  0  0
   10.5677   -3.4462   20.5323 C   0  0  0  0  0  0  0  0  0  0  0  0
  1  8  1  0
  1 12  4  0
  1 14  4  0
  2  3  4  0
  2 18  4  0
  3 20  4  0
  3 22  4  0
  4 11  4  0
  4 21  4  0
  5  9  4  0
  5 16  4  0
  6 15  4  0
  6 16  4  0
  7 22  4  0
  7 26  4  0
  8 10  4  0
  8 25  4  0
  9 15  4  0
  9 17  1  0
 10 21  4  0
 11 25  4  0
 12 23  4  0
 13 20  4  0
 13 26  4  0
 14 19  4  0
 17 18  4  0
 17 24  4  0
 19 23  4  0
 20 24  4  0
 23 26  1  0
M  END
$$$$

 Created by Python create_sdf_string function

 26 30  0  0  0  0  0  0  0  0999 V2000
   10.0084   -1.8019   23.4945 C   0  0  0  0  0  0  0  0  0  0  0  0
   10.0005   -4.2520   16.5631 C   0  0  0  0  0  0  0  0  0  0  0  0
   10.2759   -4.0036   17.8845 C   0  0  0  0  0  0  0  0  0  0  0  0
    8.5652    1.5478   25.3778 N   0  0  0  0  0  0  0  0  0  0  0  0
    6.8048   -7.5457   17.8752 C   0  0  0  0  0  0  0  0  0  0  0  0
    6.1721   -8.2186   15.9886 N   0  0  0  0  0  0  0  0  0  0  0  0
   11.1764   -2.6600   19.5604 C   0  0  0  0  0  0  0  0  0  0  0  0
    9.5491   -0.6380   24.1912 C   0  0  0  0  0  0  0  0  0  0  0  0
    7.5337   -6.9256   16.9519 C   0  0  0  0  0  0  0  0  0  0  0  0
    9.6782    0.5671   23.5143 C   0  0  0  0  0  0  0  0  0  0  0  0
    8.4532    0.3482   26.0821 C   0  0  0  0  0  0  0  0  0  0  0  0
   10.4239   -1.7677   22.2230 N   0  0  0  0  0  0  0  0  0  0  0  0
    9.9468   -4.5953   20.1709 C   0  0  0  0  0  0  0  0  0  0  0  0
   10.0366   -3.0590   23.9864 N   0  0  0  0  0  0  0  0  0  0  0  0
    7.1191   -7.3636   15.7739 C   0  0  0  0  0  0  0  0  0  0  0  0
    5.9612   -8.3203   17.2732 N   0  0  0  0  0  0  0  0  0  0  0  0
    8.5296   -5.9814   17.1841 C   0  0  0  0  0  0  0  0  0  0  0  0
    9.1527   -5.2118   16.2116 C   0  0  0  0  0  0  0  0  0  0  0  0
   10.3364   -3.8368   22.9255 O   0  0  0  0  0  0  0  0  0  0  0  0
    9.6947   -4.8407   18.8534 C   0  0  0  0  0  0  0  0  0  0  0  0
    9.1596    1.7042   24.1381 C   0  0  0  0  0  0  0  0  0  0  0  0
   11.0456   -2.9774   18.2694 N   0  0  0  0  0  0  0  0  0  0  0  0
   10.4788   -3.0457   21.8593 C   0  0  0  0  0  0  0  0  0  0  0  0
    8.8693   -5.8099   18.4657 N   0  0  0  0  0  0  0  0  0  0  0  0
    8.9892   -0.7926   25.4573 C   0  0  0  0  0  0  0  0  0  0  0  0
   10.5677   -3.4462   20.5323 C   0  0  0  0  0  0  0  0  0  0  0  0
  1  8  1  0
  1 12  4  0
  1 14  4  0
  2  3  4  0
  2 18  4  0
  3 20  4  0
  3 22  4  0
  4 11  4  0
  4 21  4  0
  5  9  4  0
  5 16  4  0
  6 15  4  0
  6 16  4  0
  7 22  4  0
  7 26  4  0
  8 10  4  0
  8 25  4  0
  9 15  4  0
  9 17  1  0
 10 21  4  0
 11 25  4  0
 12 23  4  0
 13 20  4  0
 13 26  4  0
 14 19  4  0
 17 18  4  0
 17 24  4  0
 19 23  4  0
 20 24  4  0
 23 26  1  0
M  END
$$$$

 Created by Python create_sdf_string function

 26 30  0  0  0  0  0  0  0  0999 V2000
   10.0084   -1.8019   23.4945 C   0  0  0  0  0  0  0  0  0  0  0  0
   10.0005   -4.2520   16.5631 C   0  0  0  0  0  0  0  0  0  0  0  0
   10.2759   -4.0036   17.8845 C   0  0  0  0  0  0  0  0  0  0  0  0
    8.5652    1.5478   25.3778 N   0  0  0  0  0  0  0  0  0  0  0  0
    6.8048   -7.5457   17.8752 C   0  0  0  0  0  0  0  0  0  0  0  0
    6.1721   -8.2186   15.9886 N   0  0  0  0  0  0  0  0  0  0  0  0
   11.1764   -2.6600   19.5604 C   0  0  0  0  0  0  0  0  0  0  0  0
    9.5491   -0.6380   24.1912 C   0  0  0  0  0  0  0  0  0  0  0  0
    7.5337   -6.9256   16.9519 C   0  0  0  0  0  0  0  0  0  0  0  0
    9.6782    0.5671   23.5143 C   0  0  0  0  0  0  0  0  0  0  0  0
    8.4532    0.3482   26.0821 C   0  0  0  0  0  0  0  0  0  0  0  0
   10.4239   -1.7677   22.2230 N   0  0  0  0  0  0  0  0  0  0  0  0
    9.9468   -4.5953   20.1709 C   0  0  0  0  0  0  0  0  0  0  0  0
   10.0366   -3.0590   23.9864 N   0  0  0  0  0  0  0  0  0  0  0  0
    7.1191   -7.3636   15.7739 C   0  0  0  0  0  0  0  0  0  0  0  0
    5.9612   -8.3203   17.2732 N   0  0  0  0  0  0  0  0  0  0  0  0
    8.5296   -5.9814   17.1841 C   0  0  0  0  0  0  0  0  0  0  0  0
    9.1527   -5.2118   16.2116 C   0  0  0  0  0  0  0  0  0  0  0  0
   10.3364   -3.8368   22.9255 O   0  0  0  0  0  0  0  0  0  0  0  0
    9.6947   -4.8407   18.8534 C   0  0  0  0  0  0  0  0  0  0  0  0
    9.1596    1.7042   24.1381 C   0  0  0  0  0  0  0  0  0  0  0  0
   11.0456   -2.9774   18.2694 N   0  0  0  0  0  0  0  0  0  0  0  0
   10.4788   -3.0457   21.8593 C   0  0  0  0  0  0  0  0  0  0  0  0
    8.8693   -5.8099   18.4657 N   0  0  0  0  0  0  0  0  0  0  0  0
    8.9892   -0.7926   25.4573 C   0  0  0  0  0  0  0  0  0  0  0  0
   10.5677   -3.4462   20.5323 C   0  0  0  0  0  0  0  0  0  0  0  0
  1  8  1  0
  1 12  4  0
  1 14  4  0
  2  3  4  0
  2 18  4  0
  3 20  4  0
  3 22  4  0
  4 11  4  0
  4 21  4  0
  5  9  4  0
  5 16  4  0
  6 15  4  0
  6 16  4  0
  7 22  4  0
  7 26  4  0
  8 10  4  0
  8 25  4  0
  9 15  4  0
  9 17  1  0
 10 21  4  0
 11 25  4  0
 12 23  4  0
 13 20  4  0
 13 26  4  0
 14 19  4  0
 17 18  4  0
 17 24  4  0
 19 23  4  0
 20 24  4  0
 23 26  1  0
M  END
$$$$

 Created by Python create_sdf_string function

 26 30  0  0  0  0  0  0  0  0999 V2000
   10.0084   -1.8019   23.4945 C   0  0  0  0  0  0  0  0  0  0  0  0
   10.0005   -4.2520   16.5631 C   0  0  0  0  0  0  0  0  0  0  0  0
   10.2759   -4.0036   17.8845 C   0  0  0  0  0  0  0  0  0  0  0  0
    8.5652    1.5478   25.3778 N   0  0  0  0  0  0  0  0  0  0  0  0
    6.8048   -7.5457   17.8752 C   0  0  0  0  0  0  0  0  0  0  0  0
    6.1721   -8.2186   15.9886 N   0  0  0  0  0  0  0  0  0  0  0  0
   11.1764   -2.6600   19.5604 C   0  0  0  0  0  0  0  0  0  0  0  0
    9.5491   -0.6380   24.1912 C   0  0  0  0  0  0  0  0  0  0  0  0
    7.5337   -6.9256   16.9519 C   0  0  0  0  0  0  0  0  0  0  0  0
    9.6782    0.5671   23.5143 C   0  0  0  0  0  0  0  0  0  0  0  0
    8.4532    0.3482   26.0821 C   0  0  0  0  0  0  0  0  0  0  0  0
   10.4239   -1.7677   22.2230 N   0  0  0  0  0  0  0  0  0  0  0  0
    9.9468   -4.5953   20.1709 C   0  0  0  0  0  0  0  0  0  0  0  0
   10.0366   -3.0590   23.9864 N   0  0  0  0  0  0  0  0  0  0  0  0
    7.1191   -7.3636   15.7739 C   0  0  0  0  0  0  0  0  0  0  0  0
    5.9612   -8.3203   17.2732 N   0  0  0  0  0  0  0  0  0  0  0  0
    8.5296   -5.9814   17.1841 C   0  0  0  0  0  0  0  0  0  0  0  0
    9.1527   -5.2118   16.2116 C   0  0  0  0  0  0  0  0  0  0  0  0
   10.3364   -3.8368   22.9255 O   0  0  0  0  0  0  0  0  0  0  0  0
    9.6947   -4.8407   18.8534 C   0  0  0  0  0  0  0  0  0  0  0  0
    9.1596    1.7042   24.1381 C   0  0  0  0  0  0  0  0  0  0  0  0
   11.0456   -2.9774   18.2694 N   0  0  0  0  0  0  0  0  0  0  0  0
   10.4788   -3.0457   21.8593 C   0  0  0  0  0  0  0  0  0  0  0  0
    8.8693   -5.8099   18.4657 N   0  0  0  0  0  0  0  0  0  0  0  0
    8.9892   -0.7926   25.4573 C   0  0  0  0  0  0  0  0  0  0  0  0
   10.5677   -3.4462   20.5323 C   0  0  0  0  0  0  0  0  0  0  0  0
  1  8  1  0
  1 12  4  0
  1 14  4  0
  2  3  4  0
  2 18  4  0
  3 20  4  0
  3 22  4  0
  4 11  4  0
  4 21  4  0
  5  9  4  0
  5 16  4  0
  6 15  4  0
  6 16  4  0
  7 22  4  0
  7 26  4  0
  8 10  4  0
  8 25  4  0
  9 15  4  0
  9 17  1  0
 10 21  4  0
 11 25  4  0
 12 23  4  0
 13 20  4  0
 13 26  4  0
 14 19  4  0
 17 18  4  0
 17 24  4  0
 19 23  4  0
 20 24  4  0
 23 26  1  0
M  END
$$$$

 Created by Python create_sdf_string function

 26 30  0  0  0  0  0  0  0  0999 V2000
   10.0084   -1.8019   23.4945 C   0  0  0  0  0  0  0  0  0  0  0  0
   10.0005   -4.2520   16.5631 C   0  0  0  0  0  0  0  0  0  0  0  0
   10.2759   -4.0036   17.8845 C   0  0  0  0  0  0  0  0  0  0  0  0
    8.5652    1.5478   25.3778 N   0  0  0  0  0  0  0  0  0  0  0  0
    6.8048   -7.5457   17.8752 C   0  0  0  0  0  0  0  0  0  0  0  0
    6.1721   -8.2186   15.9886 N   0  0  0  0  0  0  0  0  0  0  0  0
   11.1764   -2.6600   19.5604 C   0  0  0  0  0  0  0  0  0  0  0  0
    9.5491   -0.6380   24.1912 C   0  0  0  0  0  0  0  0  0  0  0  0
    7.5337   -6.9256   16.9519 C   0  0  0  0  0  0  0  0  0  0  0  0
    9.6782    0.5671   23.5143 C   0  0  0  0  0  0  0  0  0  0  0  0
    8.4532    0.3482   26.0821 C   0  0  0  0  0  0  0  0  0  0  0  0
   10.4239   -1.7677   22.2230 N   0  0  0  0  0  0  0  0  0  0  0  0
    9.9468   -4.5953   20.1709 C   0  0  0  0  0  0  0  0  0  0  0  0
   10.0366   -3.0590   23.9864 N   0  0  0  0  0  0  0  0  0  0  0  0
    7.1191   -7.3636   15.7739 C   0  0  0  0  0  0  0  0  0  0  0  0
    5.9612   -8.3203   17.2732 N   0  0  0  0  0  0  0  0  0  0  0  0
    8.5296   -5.9814   17.1841 C   0  0  0  0  0  0  0  0  0  0  0  0
    9.1527   -5.2118   16.2116 C   0  0  0  0  0  0  0  0  0  0  0  0
   10.3364   -3.8368   22.9255 O   0  0  0  0  0  0  0  0  0  0  0  0
    9.6947   -4.8407   18.8534 C   0  0  0  0  0  0  0  0  0  0  0  0
    9.1596    1.7042   24.1381 C   0  0  0  0  0  0  0  0  0  0  0  0
   11.0456   -2.9774   18.2694 N   0  0  0  0  0  0  0  0  0  0  0  0
   10.4788   -3.0457   21.8593 C   0  0  0  0  0  0  0  0  0  0  0  0
    8.8693   -5.8099   18.4657 N   0  0  0  0  0  0  0  0  0  0  0  0
    8.9892   -0.7926   25.4573 C   0  0  0  0  0  0  0  0  0  0  0  0
   10.5677   -3.4462   20.5323 C   0  0  0  0  0  0  0  0  0  0  0  0
  1  8  1  0
  1 12  4  0
  1 14  4  0
  2  3  4  0
  2 18  4  0
  3 20  4  0
  3 22  4  0
  4 11  4  0
  4 21  4  0
  5  9  4  0
  5 16  4  0
  6 15  4  0
  6 16  4  0
  7 22  4  0
  7 26  4  0
  8 10  4  0
  8 25  4  0
  9 15  4  0
  9 17  1  0
 10 21  4  0
 11 25  4  0
 12 23  4  0
 13 20  4  0
 13 26  4  0
 14 19  4  0
 17 18  4  0
 17 24  4  0
 19 23  4  0
 20 24  4  0
 23 26  1  0
M  END
$$$$

 Created by Python create_sdf_string function

 26 30  0  0  0  0  0  0  0  0999 V2000
   10.0084   -1.8019   23.4945 C   0  0  0  0  0  0  0  0  0  0  0  0
   10.0005   -4.2520   16.5631 C   0  0  0  0  0  0  0  0  0  0  0  0
   10.2759   -4.0036   17.8845 C   0  0  0  0  0  0  0  0  0  0  0  0
    8.5652    1.5478   25.3778 N   0  0  0  0  0  0  0  0  0  0  0  0
    6.8048   -7.5457   17.8752 C   0  0  0  0  0  0  0  0  0  0  0  0
    6.1721   -8.2186   15.9886 N   0  0  0  0  0  0  0  0  0  0  0  0
   11.1764   -2.6600   19.5604 C   0  0  0  0  0  0  0  0  0  0  0  0
    9.5491   -0.6380   24.1912 C   0  0  0  0  0  0  0  0  0  0  0  0
    7.5337   -6.9256   16.9519 C   0  0  0  0  0  0  0  0  0  0  0  0
    9.6782    0.5671   23.5143 C   0  0  0  0  0  0  0  0  0  0  0  0
    8.4532    0.3482   26.0821 C   0  0  0  0  0  0  0  0  0  0  0  0
   10.4239   -1.7677   22.2230 N   0  0  0  0  0  0  0  0  0  0  0  0
    9.9468   -4.5953   20.1709 C   0  0  0  0  0  0  0  0  0  0  0  0
   10.0366   -3.0590   23.9864 N   0  0  0  0  0  0  0  0  0  0  0  0
    7.1191   -7.3636   15.7739 C   0  0  0  0  0  0  0  0  0  0  0  0
    5.9612   -8.3203   17.2732 N   0  0  0  0  0  0  0  0  0  0  0  0
    8.5296   -5.9814   17.1841 C   0  0  0  0  0  0  0  0  0  0  0  0
    9.1527   -5.2118   16.2116 C   0  0  0  0  0  0  0  0  0  0  0  0
   10.3364   -3.8368   22.9255 O   0  0  0  0  0  0  0  0  0  0  0  0
    9.6947   -4.8407   18.8534 C   0  0  0  0  0  0  0  0  0  0  0  0
    9.1596    1.7042   24.1381 C   0  0  0  0  0  0  0  0  0  0  0  0
   11.0456   -2.9774   18.2694 N   0  0  0  0  0  0  0  0  0  0  0  0
   10.4788   -3.0457   21.8593 C   0  0  0  0  0  0  0  0  0  0  0  0
    8.8693   -5.8099   18.4657 N   0  0  0  0  0  0  0  0  0  0  0  0
    8.9892   -0.7926   25.4573 C   0  0  0  0  0  0  0  0  0  0  0  0
   10.5677   -3.4462   20.5323 C   0  0  0  0  0  0  0  0  0  0  0  0
  1  8  1  0
  1 12  4  0
  1 14  4  0
  2  3  4  0
  2 18  4  0
  3 20  4  0
  3 22  4  0
  4 11  4  0
  4 21  4  0
  5  9  4  0
  5 16  4  0
  6 15  4  0
  6 16  4  0
  7 22  4  0
  7 26  4  0
  8 10  4  0
  8 25  4  0
  9 15  4  0
  9 17  1  0
 10 21  4  0
 11 25  4  0
 12 23  4  0
 13 20  4  0
 13 26  4  0
 14 19  4  0
 17 18  4  0
 17 24  4  0
 19 23  4  0
 20 24  4  0
 23 26  1  0
M  END
$$$$

 Created by Python create_sdf_string function

 26 30  0  0  0  0  0  0  0  0999 V2000
   10.0084   -1.8019   23.4945 C   0  0  0  0  0  0  0  0  0  0  0  0
   10.0005   -4.2520   16.5631 C   0  0  0  0  0  0  0  0  0  0  0  0
   10.2759   -4.0036   17.8845 C   0  0  0  0  0  0  0  0  0  0  0  0
    8.5652    1.5478   25.3778 N   0  0  0  0  0  0  0  0  0  0  0  0
    6.8048   -7.5457   17.8752 C   0  0  0  0  0  0  0  0  0  0  0  0
    6.1721   -8.2186   15.9886 N   0  0  0  0  0  0  0  0  0  0  0  0
   11.1764   -2.6600   19.5604 C   0  0  0  0  0  0  0  0  0  0  0  0
    9.5491   -0.6380   24.1912 C   0  0  0  0  0  0  0  0  0  0  0  0
    7.5337   -6.9256   16.9519 C   0  0  0  0  0  0  0  0  0  0  0  0
    9.6782    0.5671   23.5143 C   0  0  0  0  0  0  0  0  0  0  0  0
    8.4532    0.3482   26.0821 C   0  0  0  0  0  0  0  0  0  0  0  0
   10.4239   -1.7677   22.2230 N   0  0  0  0  0  0  0  0  0  0  0  0
    9.9468   -4.5953   20.1709 C   0  0  0  0  0  0  0  0  0  0  0  0
   10.0366   -3.0590   23.9864 N   0  0  0  0  0  0  0  0  0  0  0  0
    7.1191   -7.3636   15.7739 C   0  0  0  0  0  0  0  0  0  0  0  0
    5.9612   -8.3203   17.2732 N   0  0  0  0  0  0  0  0  0  0  0  0
    8.5296   -5.9814   17.1841 C   0  0  0  0  0  0  0  0  0  0  0  0
    9.1527   -5.2118   16.2116 C   0  0  0  0  0  0  0  0  0  0  0  0
   10.3364   -3.8368   22.9255 O   0  0  0  0  0  0  0  0  0  0  0  0
    9.6947   -4.8407   18.8534 C   0  0  0  0  0  0  0  0  0  0  0  0
    9.1596    1.7042   24.1381 C   0  0  0  0  0  0  0  0  0  0  0  0
   11.0456   -2.9774   18.2694 N   0  0  0  0  0  0  0  0  0  0  0  0
   10.4788   -3.0457   21.8593 C   0  0  0  0  0  0  0  0  0  0  0  0
    8.8693   -5.8099   18.4657 N   0  0  0  0  0  0  0  0  0  0  0  0
    8.9892   -0.7926   25.4573 C   0  0  0  0  0  0  0  0  0  0  0  0
   10.5677   -3.4462   20.5323 C   0  0  0  0  0  0  0  0  0  0  0  0
  1  8  1  0
  1 12  4  0
  1 14  4  0
  2  3  4  0
  2 18  4  0
  3 20  4  0
  3 22  4  0
  4 11  4  0
  4 21  4  0
  5  9  4  0
  5 16  4  0
  6 15  4  0
  6 16  4  0
  7 22  4  0
  7 26  4  0
  8 10  4  0
  8 25  4  0
  9 15  4  0
  9 17  1  0
 10 21  4  0
 11 25  4  0
 12 23  4  0
 13 20  4  0
 13 26  4  0
 14 19  4  0
 17 18  4  0
 17 24  4  0
 19 23  4  0
 20 24  4  0
 23 26  1  0
M  END
$$$$

 Created by Python create_sdf_string function

 26 30  0  0  0  0  0  0  0  0999 V2000
   10.0084   -1.8019   23.4945 C   0  0  0  0  0  0  0  0  0  0  0  0
   10.0005   -4.2520   16.5631 C   0  0  0  0  0  0  0  0  0  0  0  0
   10.2759   -4.0036   17.8845 C   0  0  0  0  0  0  0  0  0  0  0  0
    8.5652    1.5478   25.3778 N   0  0  0  0  0  0  0  0  0  0  0  0
    6.8048   -7.5457   17.8752 C   0  0  0  0  0  0  0  0  0  0  0  0
    6.1721   -8.2186   15.9886 N   0  0  0  0  0  0  0  0  0  0  0  0
   11.1764   -2.6600   19.5604 C   0  0  0  0  0  0  0  0  0  0  0  0
    9.5491   -0.6380   24.1912 C   0  0  0  0  0  0  0  0  0  0  0  0
    7.5337   -6.9256   16.9519 C   0  0  0  0  0  0  0  0  0  0  0  0
    9.6782    0.5671   23.5143 C   0  0  0  0  0  0  0  0  0  0  0  0
    8.4532    0.3482   26.0821 C   0  0  0  0  0  0  0  0  0  0  0  0
   10.4239   -1.7677   22.2230 N   0  0  0  0  0  0  0  0  0  0  0  0
    9.9468   -4.5953   20.1709 C   0  0  0  0  0  0  0  0  0  0  0  0
   10.0366   -3.0590   23.9864 N   0  0  0  0  0  0  0  0  0  0  0  0
    7.1191   -7.3636   15.7739 C   0  0  0  0  0  0  0  0  0  0  0  0
    5.9612   -8.3203   17.2732 N   0  0  0  0  0  0  0  0  0  0  0  0
    8.5296   -5.9814   17.1841 C   0  0  0  0  0  0  0  0  0  0  0  0
    9.1527   -5.2118   16.2116 C   0  0  0  0  0  0  0  0  0  0  0  0
   10.3364   -3.8368   22.9255 O   0  0  0  0  0  0  0  0  0  0  0  0
    9.6947   -4.8407   18.8534 C   0  0  0  0  0  0  0  0  0  0  0  0
    9.1596    1.7042   24.1381 C   0  0  0  0  0  0  0  0  0  0  0  0
   11.0456   -2.9774   18.2694 N   0  0  0  0  0  0  0  0  0  0  0  0
   10.4788   -3.0457   21.8593 C   0  0  0  0  0  0  0  0  0  0  0  0
    8.8693   -5.8099   18.4657 N   0  0  0  0  0  0  0  0  0  0  0  0
    8.9892   -0.7926   25.4573 C   0  0  0  0  0  0  0  0  0  0  0  0
   10.5677   -3.4462   20.5323 C   0  0  0  0  0  0  0  0  0  0  0  0
  1  8  1  0
  1 12  4  0
  1 14  4  0
  2  3  4  0
  2 18  4  0
  3 20  4  0
  3 22  4  0
  4 11  4  0
  4 21  4  0
  5  9  4  0
  5 16  4  0
  6 15  4  0
  6 16  4  0
  7 22  4  0
  7 26  4  0
  8 10  4  0
  8 25  4  0
  9 15  4  0
  9 17  1  0
 10 21  4  0
 11 25  4  0
 12 23  4  0
 13 20  4  0
 13 26  4  0
 14 19  4  0
 17 18  4  0
 17 24  4  0
 19 23  4  0
 20 24  4  0
 23 26  1  0
M  END
$$$$

 Created by Python create_sdf_string function

 26 30  0  0  0  0  0  0  0  0999 V2000
   10.0084   -1.8019   23.4945 C   0  0  0  0  0  0  0  0  0  0  0  0
   10.0005   -4.2520   16.5631 C   0  0  0  0  0  0  0  0  0  0  0  0
   10.2759   -4.0036   17.8845 C   0  0  0  0  0  0  0  0  0  0  0  0
    8.5652    1.5478   25.3778 N   0  0  0  0  0  0  0  0  0  0  0  0
    6.8048   -7.5457   17.8752 C   0  0  0  0  0  0  0  0  0  0  0  0
    6.1721   -8.2186   15.9886 N   0  0  0  0  0  0  0  0  0  0  0  0
   11.1764   -2.6600   19.5604 C   0  0  0  0  0  0  0  0  0  0  0  0
    9.5491   -0.6380   24.1912 C   0  0  0  0  0  0  0  0  0  0  0  0
    7.5337   -6.9256   16.9519 C   0  0  0  0  0  0  0  0  0  0  0  0
    9.6782    0.5671   23.5143 C   0  0  0  0  0  0  0  0  0  0  0  0
    8.4532    0.3482   26.0821 C   0  0  0  0  0  0  0  0  0  0  0  0
   10.4239   -1.7677   22.2230 N   0  0  0  0  0  0  0  0  0  0  0  0
    9.9468   -4.5953   20.1709 C   0  0  0  0  0  0  0  0  0  0  0  0
   10.0366   -3.0590   23.9864 N   0  0  0  0  0  0  0  0  0  0  0  0
    7.1191   -7.3636   15.7739 C   0  0  0  0  0  0  0  0  0  0  0  0
    5.9612   -8.3203   17.2732 N   0  0  0  0  0  0  0  0  0  0  0  0
    8.5296   -5.9814   17.1841 C   0  0  0  0  0  0  0  0  0  0  0  0
    9.1527   -5.2118   16.2116 C   0  0  0  0  0  0  0  0  0  0  0  0
   10.3364   -3.8368   22.9255 O   0  0  0  0  0  0  0  0  0  0  0  0
    9.6947   -4.8407   18.8534 C   0  0  0  0  0  0  0  0  0  0  0  0
    9.1596    1.7042   24.1381 C   0  0  0  0  0  0  0  0  0  0  0  0
   11.0456   -2.9774   18.2694 N   0  0  0  0  0  0  0  0  0  0  0  0
   10.4788   -3.0457   21.8593 C   0  0  0  0  0  0  0  0  0  0  0  0
    8.8693   -5.8099   18.4657 N   0  0  0  0  0  0  0  0  0  0  0  0
    8.9892   -0.7926   25.4573 C   0  0  0  0  0  0  0  0  0  0  0  0
   10.5677   -3.4462   20.5323 C   0  0  0  0  0  0  0  0  0  0  0  0
  1  8  1  0
  1 12  4  0
  1 14  4  0
  2  3  4  0
  2 18  4  0
  3 20  4  0
  3 22  4  0
  4 11  4  0
  4 21  4  0
  5  9  4  0
  5 16  4  0
  6 15  4  0
  6 16  4  0
  7 22  4  0
  7 26  4  0
  8 10  4  0
  8 25  4  0
  9 15  4  0
  9 17  1  0
 10 21  4  0
 11 25  4  0
 12 23  4  0
 13 20  4  0
 13 26  4  0
 14 19  4  0
 17 18  4  0
 17 24  4  0
 19 23  4  0
 20 24  4  0
 23 26  1  0
M  END
$$$$

 Created by Python create_sdf_string function

 26 30  0  0  0  0  0  0  0  0999 V2000
   10.0084   -1.8019   23.4945 C   0  0  0  0  0  0  0  0  0  0  0  0
   10.0005   -4.2520   16.5631 C   0  0  0  0  0  0  0  0  0  0  0  0
   10.2759   -4.0036   17.8845 C   0  0  0  0  0  0  0  0  0  0  0  0
    8.5652    1.5478   25.3778 N   0  0  0  0  0  0  0  0  0  0  0  0
    6.8048   -7.5457   17.8752 C   0  0  0  0  0  0  0  0  0  0  0  0
    6.1721   -8.2186   15.9886 N   0  0  0  0  0  0  0  0  0  0  0  0
   11.1764   -2.6600   19.5604 C   0  0  0  0  0  0  0  0  0  0  0  0
    9.5491   -0.6380   24.1912 C   0  0  0  0  0  0  0  0  0  0  0  0
    7.5337   -6.9256   16.9519 C   0  0  0  0  0  0  0  0  0  0  0  0
    9.6782    0.5671   23.5143 C   0  0  0  0  0  0  0  0  0  0  0  0
    8.4532    0.3482   26.0821 C   0  0  0  0  0  0  0  0  0  0  0  0
   10.4239   -1.7677   22.2230 N   0  0  0  0  0  0  0  0  0  0  0  0
    9.9468   -4.5953   20.1709 C   0  0  0  0  0  0  0  0  0  0  0  0
   10.0366   -3.0590   23.9864 N   0  0  0  0  0  0  0  0  0  0  0  0
    7.1191   -7.3636   15.7739 C   0  0  0  0  0  0  0  0  0  0  0  0
    5.9612   -8.3203   17.2732 N   0  0  0  0  0  0  0  0  0  0  0  0
    8.5296   -5.9814   17.1841 C   0  0  0  0  0  0  0  0  0  0  0  0
    9.1527   -5.2118   16.2116 C   0  0  0  0  0  0  0  0  0  0  0  0
   10.3364   -3.8368   22.9255 O   0  0  0  0  0  0  0  0  0  0  0  0
    9.6947   -4.8407   18.8534 C   0  0  0  0  0  0  0  0  0  0  0  0
    9.1596    1.7042   24.1381 C   0  0  0  0  0  0  0  0  0  0  0  0
   11.0456   -2.9774   18.2694 N   0  0  0  0  0  0  0  0  0  0  0  0
   10.4788   -3.0457   21.8593 C   0  0  0  0  0  0  0  0  0  0  0  0
    8.8693   -5.8099   18.4657 N   0  0  0  0  0  0  0  0  0  0  0  0
    8.9892   -0.7926   25.4573 C   0  0  0  0  0  0  0  0  0  0  0  0
   10.5677   -3.4462   20.5323 C   0  0  0  0  0  0  0  0  0  0  0  0
  1  8  1  0
  1 12  4  0
  1 14  4  0
  2  3  4  0
  2 18  4  0
  3 20  4  0
  3 22  4  0
  4 11  4  0
  4 21  4  0
  5  9  4  0
  5 16  4  0
  6 15  4  0
  6 16  4  0
  7 22  4  0
  7 26  4  0
  8 10  4  0
  8 25  4  0
  9 15  4  0
  9 17  1  0
 10 21  4  0
 11 25  4  0
 12 23  4  0
 13 20  4  0
 13 26  4  0
 14 19  4  0
 17 18  4  0
 17 24  4  0
 19 23  4  0
 20 24  4  0
 23 26  1  0
M  END
$$$$

 Created by Python create_sdf_string function

 26 30  0  0  0  0  0  0  0  0999 V2000
   10.0084   -1.8019   23.4945 C   0  0  0  0  0  0  0  0  0  0  0  0
   10.0005   -4.2520   16.5631 C   0  0  0  0  0  0  0  0  0  0  0  0
   10.2759   -4.0036   17.8845 C   0  0  0  0  0  0  0  0  0  0  0  0
    8.5652    1.5478   25.3778 N   0  0  0  0  0  0  0  0  0  0  0  0
    6.8048   -7.5457   17.8752 C   0  0  0  0  0  0  0  0  0  0  0  0
    6.1721   -8.2186   15.9886 N   0  0  0  0  0  0  0  0  0  0  0  0
   11.1764   -2.6600   19.5604 C   0  0  0  0  0  0  0  0  0  0  0  0
    9.5491   -0.6380   24.1912 C   0  0  0  0  0  0  0  0  0  0  0  0
    7.5337   -6.9256   16.9519 C   0  0  0  0  0  0  0  0  0  0  0  0
    9.6782    0.5671   23.5143 C   0  0  0  0  0  0  0  0  0  0  0  0
    8.4532    0.3482   26.0821 C   0  0  0  0  0  0  0  0  0  0  0  0
   10.4239   -1.7677   22.2230 N   0  0  0  0  0  0  0  0  0  0  0  0
    9.9468   -4.5953   20.1709 C   0  0  0  0  0  0  0  0  0  0  0  0
   10.0366   -3.0590   23.9864 N   0  0  0  0  0  0  0  0  0  0  0  0
    7.1191   -7.3636   15.7739 C   0  0  0  0  0  0  0  0  0  0  0  0
    5.9612   -8.3203   17.2732 N   0  0  0  0  0  0  0  0  0  0  0  0
    8.5296   -5.9814   17.1841 C   0  0  0  0  0  0  0  0  0  0  0  0
    9.1527   -5.2118   16.2116 C   0  0  0  0  0  0  0  0  0  0  0  0
   10.3364   -3.8368   22.9255 O   0  0  0  0  0  0  0  0  0  0  0  0
    9.6947   -4.8407   18.8534 C   0  0  0  0  0  0  0  0  0  0  0  0
    9.1596    1.7042   24.1381 C   0  0  0  0  0  0  0  0  0  0  0  0
   11.0456   -2.9774   18.2694 N   0  0  0  0  0  0  0  0  0  0  0  0
   10.4788   -3.0457   21.8593 C   0  0  0  0  0  0  0  0  0  0  0  0
    8.8693   -5.8099   18.4657 N   0  0  0  0  0  0  0  0  0  0  0  0
    8.9892   -0.7926   25.4573 C   0  0  0  0  0  0  0  0  0  0  0  0
   10.5677   -3.4462   20.5323 C   0  0  0  0  0  0  0  0  0  0  0  0
  1  8  1  0
  1 12  4  0
  1 14  4  0
  2  3  4  0
  2 18  4  0
  3 20  4  0
  3 22  4  0
  4 11  4  0
  4 21  4  0
  5  9  4  0
  5 16  4  0
  6 15  4  0
  6 16  4  0
  7 22  4  0
  7 26  4  0
  8 10  4  0
  8 25  4  0
  9 15  4  0
  9 17  1  0
 10 21  4  0
 11 25  4  0
 12 23  4  0
 13 20  4  0
 13 26  4  0
 14 19  4  0
 17 18  4  0
 17 24  4  0
 19 23  4  0
 20 24  4  0
 23 26  1  0
M  END
$$$$

 Created by Python create_sdf_string function

 26 30  0  0  0  0  0  0  0  0999 V2000
   10.0084   -1.8019   23.4945 C   0  0  0  0  0  0  0  0  0  0  0  0
   10.0005   -4.2520   16.5631 C   0  0  0  0  0  0  0  0  0  0  0  0
   10.2759   -4.0036   17.8845 C   0  0  0  0  0  0  0  0  0  0  0  0
    8.5652    1.5478   25.3778 N   0  0  0  0  0  0  0  0  0  0  0  0
    6.8048   -7.5457   17.8752 C   0  0  0  0  0  0  0  0  0  0  0  0
    6.1721   -8.2186   15.9886 N   0  0  0  0  0  0  0  0  0  0  0  0
   11.1764   -2.6600   19.5604 C   0  0  0  0  0  0  0  0  0  0  0  0
    9.5491   -0.6380   24.1912 C   0  0  0  0  0  0  0  0  0  0  0  0
    7.5337   -6.9256   16.9519 C   0  0  0  0  0  0  0  0  0  0  0  0
    9.6782    0.5671   23.5143 C   0  0  0  0  0  0  0  0  0  0  0  0
    8.4532    0.3482   26.0821 C   0  0  0  0  0  0  0  0  0  0  0  0
   10.4239   -1.7677   22.2230 N   0  0  0  0  0  0  0  0  0  0  0  0
    9.9468   -4.5953   20.1709 C   0  0  0  0  0  0  0  0  0  0  0  0
   10.0366   -3.0590   23.9864 N   0  0  0  0  0  0  0  0  0  0  0  0
    7.1191   -7.3636   15.7739 C   0  0  0  0  0  0  0  0  0  0  0  0
    5.9612   -8.3203   17.2732 N   0  0  0  0  0  0  0  0  0  0  0  0
    8.5296   -5.9814   17.1841 C   0  0  0  0  0  0  0  0  0  0  0  0
    9.1527   -5.2118   16.2116 C   0  0  0  0  0  0  0  0  0  0  0  0
   10.3364   -3.8368   22.9255 O   0  0  0  0  0  0  0  0  0  0  0  0
    9.6947   -4.8407   18.8534 C   0  0  0  0  0  0  0  0  0  0  0  0
    9.1596    1.7042   24.1381 C   0  0  0  0  0  0  0  0  0  0  0  0
   11.0456   -2.9774   18.2694 N   0  0  0  0  0  0  0  0  0  0  0  0
   10.4788   -3.0457   21.8593 C   0  0  0  0  0  0  0  0  0  0  0  0
    8.8693   -5.8099   18.4657 N   0  0  0  0  0  0  0  0  0  0  0  0
    8.9892   -0.7926   25.4573 C   0  0  0  0  0  0  0  0  0  0  0  0
   10.5677   -3.4462   20.5323 C   0  0  0  0  0  0  0  0  0  0  0  0
  1  8  1  0
  1 12  4  0
  1 14  4  0
  2  3  4  0
  2 18  4  0
  3 20  4  0
  3 22  4  0
  4 11  4  0
  4 21  4  0
  5  9  4  0
  5 16  4  0
  6 15  4  0
  6 16  4  0
  7 22  4  0
  7 26  4  0
  8 10  4  0
  8 25  4  0
  9 15  4  0
  9 17  1  0
 10 21  4  0
 11 25  4  0
 12 23  4  0
 13 20  4  0
 13 26  4  0
 14 19  4  0
 17 18  4  0
 17 24  4  0
 19 23  4  0
 20 24  4  0
 23 26  1  0
M  END
$$$$

 Created by Python create_sdf_string function

 26 30  0  0  0  0  0  0  0  0999 V2000
   10.0084   -1.8019   23.4945 C   0  0  0  0  0  0  0  0  0  0  0  0
   10.0005   -4.2520   16.5631 C   0  0  0  0  0  0  0  0  0  0  0  0
   10.2759   -4.0036   17.8845 C   0  0  0  0  0  0  0  0  0  0  0  0
    8.5652    1.5478   25.3778 N   0  0  0  0  0  0  0  0  0  0  0  0
    6.8048   -7.5457   17.8752 C   0  0  0  0  0  0  0  0  0  0  0  0
    6.1721   -8.2186   15.9886 N   0  0  0  0  0  0  0  0  0  0  0  0
   11.1764   -2.6600   19.5604 C   0  0  0  0  0  0  0  0  0  0  0  0
    9.5491   -0.6380   24.1912 C   0  0  0  0  0  0  0  0  0  0  0  0
    7.5337   -6.9256   16.9519 C   0  0  0  0  0  0  0  0  0  0  0  0
    9.6782    0.5671   23.5143 C   0  0  0  0  0  0  0  0  0  0  0  0
    8.4532    0.3482   26.0821 C   0  0  0  0  0  0  0  0  0  0  0  0
   10.4239   -1.7677   22.2230 N   0  0  0  0  0  0  0  0  0  0  0  0
    9.9468   -4.5953   20.1709 C   0  0  0  0  0  0  0  0  0  0  0  0
   10.0366   -3.0590   23.9864 N   0  0  0  0  0  0  0  0  0  0  0  0
    7.1191   -7.3636   15.7739 C   0  0  0  0  0  0  0  0  0  0  0  0
    5.9612   -8.3203   17.2732 N   0  0  0  0  0  0  0  0  0  0  0  0
    8.5296   -5.9814   17.1841 C   0  0  0  0  0  0  0  0  0  0  0  0
    9.1527   -5.2118   16.2116 C   0  0  0  0  0  0  0  0  0  0  0  0
   10.3364   -3.8368   22.9255 O   0  0  0  0  0  0  0  0  0  0  0  0
    9.6947   -4.8407   18.8534 C   0  0  0  0  0  0  0  0  0  0  0  0
    9.1596    1.7042   24.1381 C   0  0  0  0  0  0  0  0  0  0  0  0
   11.0456   -2.9774   18.2694 N   0  0  0  0  0  0  0  0  0  0  0  0
   10.4788   -3.0457   21.8593 C   0  0  0  0  0  0  0  0  0  0  0  0
    8.8693   -5.8099   18.4657 N   0  0  0  0  0  0  0  0  0  0  0  0
    8.9892   -0.7926   25.4573 C   0  0  0  0  0  0  0  0  0  0  0  0
   10.5677   -3.4462   20.5323 C   0  0  0  0  0  0  0  0  0  0  0  0
  1  8  1  0
  1 12  4  0
  1 14  4  0
  2  3  4  0
  2 18  4  0
  3 20  4  0
  3 22  4  0
  4 11  4  0
  4 21  4  0
  5  9  4  0
  5 16  4  0
  6 15  4  0
  6 16  4  0
  7 22  4  0
  7 26  4  0
  8 10  4  0
  8 25  4  0
  9 15  4  0
  9 17  1  0
 10 21  4  0
 11 25  4  0
 12 23  4  0
 13 20  4  0
 13 26  4  0
 14 19  4  0
 17 18  4  0
 17 24  4  0
 19 23  4  0
 20 24  4  0
 23 26  1  0
M  END
$$$$

 Created by Python create_sdf_string function

 26 30  0  0  0  0  0  0  0  0999 V2000
   10.0084   -1.8019   23.4945 C   0  0  0  0  0  0  0  0  0  0  0  0
   10.0005   -4.2520   16.5631 C   0  0  0  0  0  0  0  0  0  0  0  0
   10.2759   -4.0036   17.8845 C   0  0  0  0  0  0  0  0  0  0  0  0
    8.5652    1.5478   25.3778 N   0  0  0  0  0  0  0  0  0  0  0  0
    6.8048   -7.5457   17.8752 C   0  0  0  0  0  0  0  0  0  0  0  0
    6.1721   -8.2186   15.9886 N   0  0  0  0  0  0  0  0  0  0  0  0
   11.1764   -2.6600   19.5604 C   0  0  0  0  0  0  0  0  0  0  0  0
    9.5491   -0.6380   24.1912 C   0  0  0  0  0  0  0  0  0  0  0  0
    7.5337   -6.9256   16.9519 C   0  0  0  0  0  0  0  0  0  0  0  0
    9.6782    0.5671   23.5143 C   0  0  0  0  0  0  0  0  0  0  0  0
    8.4532    0.3482   26.0821 C   0  0  0  0  0  0  0  0  0  0  0  0
   10.4239   -1.7677   22.2230 N   0  0  0  0  0  0  0  0  0  0  0  0
    9.9468   -4.5953   20.1709 C   0  0  0  0  0  0  0  0  0  0  0  0
   10.0366   -3.0590   23.9864 N   0  0  0  0  0  0  0  0  0  0  0  0
    7.1191   -7.3636   15.7739 C   0  0  0  0  0  0  0  0  0  0  0  0
    5.9612   -8.3203   17.2732 N   0  0  0  0  0  0  0  0  0  0  0  0
    8.5296   -5.9814   17.1841 C   0  0  0  0  0  0  0  0  0  0  0  0
    9.1527   -5.2118   16.2116 C   0  0  0  0  0  0  0  0  0  0  0  0
   10.3364   -3.8368   22.9255 O   0  0  0  0  0  0  0  0  0  0  0  0
    9.6947   -4.8407   18.8534 C   0  0  0  0  0  0  0  0  0  0  0  0
    9.1596    1.7042   24.1381 C   0  0  0  0  0  0  0  0  0  0  0  0
   11.0456   -2.9774   18.2694 N   0  0  0  0  0  0  0  0  0  0  0  0
   10.4788   -3.0457   21.8593 C   0  0  0  0  0  0  0  0  0  0  0  0
    8.8693   -5.8099   18.4657 N   0  0  0  0  0  0  0  0  0  0  0  0
    8.9892   -0.7926   25.4573 C   0  0  0  0  0  0  0  0  0  0  0  0
   10.5677   -3.4462   20.5323 C   0  0  0  0  0  0  0  0  0  0  0  0
  1  8  1  0
  1 12  4  0
  1 14  4  0
  2  3  4  0
  2 18  4  0
  3 20  4  0
  3 22  4  0
  4 11  4  0
  4 21  4  0
  5  9  4  0
  5 16  4  0
  6 15  4  0
  6 16  4  0
  7 22  4  0
  7 26  4  0
  8 10  4  0
  8 25  4  0
  9 15  4  0
  9 17  1  0
 10 21  4  0
 11 25  4  0
 12 23  4  0
 13 20  4  0
 13 26  4  0
 14 19  4  0
 17 18  4  0
 17 24  4  0
 19 23  4  0
 20 24  4  0
 23 26  1  0
M  END
$$$$

 Created by Python create_sdf_string function

 26 30  0  0  0  0  0  0  0  0999 V2000
   10.0084   -1.8019   23.4945 C   0  0  0  0  0  0  0  0  0  0  0  0
   10.0005   -4.2520   16.5631 C   0  0  0  0  0  0  0  0  0  0  0  0
   10.2759   -4.0036   17.8845 C   0  0  0  0  0  0  0  0  0  0  0  0
    8.5652    1.5478   25.3778 N   0  0  0  0  0  0  0  0  0  0  0  0
    6.8048   -7.5457   17.8752 C   0  0  0  0  0  0  0  0  0  0  0  0
    6.1721   -8.2186   15.9886 N   0  0  0  0  0  0  0  0  0  0  0  0
   11.1764   -2.6600   19.5604 C   0  0  0  0  0  0  0  0  0  0  0  0
    9.5491   -0.6380   24.1912 C   0  0  0  0  0  0  0  0  0  0  0  0
    7.5337   -6.9256   16.9519 C   0  0  0  0  0  0  0  0  0  0  0  0
    9.6782    0.5671   23.5143 C   0  0  0  0  0  0  0  0  0  0  0  0
    8.4532    0.3482   26.0821 C   0  0  0  0  0  0  0  0  0  0  0  0
   10.4239   -1.7677   22.2230 N   0  0  0  0  0  0  0  0  0  0  0  0
    9.9468   -4.5953   20.1709 C   0  0  0  0  0  0  0  0  0  0  0  0
   10.0366   -3.0590   23.9864 N   0  0  0  0  0  0  0  0  0  0  0  0
    7.1191   -7.3636   15.7739 C   0  0  0  0  0  0  0  0  0  0  0  0
    5.9612   -8.3203   17.2732 N   0  0  0  0  0  0  0  0  0  0  0  0
    8.5296   -5.9814   17.1841 C   0  0  0  0  0  0  0  0  0  0  0  0
    9.1527   -5.2118   16.2116 C   0  0  0  0  0  0  0  0  0  0  0  0
   10.3364   -3.8368   22.9255 O   0  0  0  0  0  0  0  0  0  0  0  0
    9.6947   -4.8407   18.8534 C   0  0  0  0  0  0  0  0  0  0  0  0
    9.1596    1.7042   24.1381 C   0  0  0  0  0  0  0  0  0  0  0  0
   11.0456   -2.9774   18.2694 N   0  0  0  0  0  0  0  0  0  0  0  0
   10.4788   -3.0457   21.8593 C   0  0  0  0  0  0  0  0  0  0  0  0
    8.8693   -5.8099   18.4657 N   0  0  0  0  0  0  0  0  0  0  0  0
    8.9892   -0.7926   25.4573 C   0  0  0  0  0  0  0  0  0  0  0  0
   10.5677   -3.4462   20.5323 C   0  0  0  0  0  0  0  0  0  0  0  0
  1  8  1  0
  1 12  4  0
  1 14  4  0
  2  3  4  0
  2 18  4  0
  3 20  4  0
  3 22  4  0
  4 11  4  0
  4 21  4  0
  5  9  4  0
  5 16  4  0
  6 15  4  0
  6 16  4  0
  7 22  4  0
  7 26  4  0
  8 10  4  0
  8 25  4  0
  9 15  4  0
  9 17  1  0
 10 21  4  0
 11 25  4  0
 12 23  4  0
 13 20  4  0
 13 26  4  0
 14 19  4  0
 17 18  4  0
 17 24  4  0
 19 23  4  0
 20 24  4  0
 23 26  1  0
M  END
$$$$

 Created by Python create_sdf_string function

 26 30  0  0  0  0  0  0  0  0999 V2000
   10.0084   -1.8019   23.4945 C   0  0  0  0  0  0  0  0  0  0  0  0
   10.0005   -4.2520   16.5631 C   0  0  0  0  0  0  0  0  0  0  0  0
   10.2759   -4.0036   17.8845 C   0  0  0  0  0  0  0  0  0  0  0  0
    8.5652    1.5478   25.3778 N   0  0  0  0  0  0  0  0  0  0  0  0
    6.8048   -7.5457   17.8752 C   0  0  0  0  0  0  0  0  0  0  0  0
    6.1721   -8.2186   15.9886 N   0  0  0  0  0  0  0  0  0  0  0  0
   11.1764   -2.6600   19.5604 C   0  0  0  0  0  0  0  0  0  0  0  0
    9.5491   -0.6380   24.1912 C   0  0  0  0  0  0  0  0  0  0  0  0
    7.5337   -6.9256   16.9519 C   0  0  0  0  0  0  0  0  0  0  0  0
    9.6782    0.5671   23.5143 C   0  0  0  0  0  0  0  0  0  0  0  0
    8.4532    0.3482   26.0821 C   0  0  0  0  0  0  0  0  0  0  0  0
   10.4239   -1.7677   22.2230 N   0  0  0  0  0  0  0  0  0  0  0  0
    9.9468   -4.5953   20.1709 C   0  0  0  0  0  0  0  0  0  0  0  0
   10.0366   -3.0590   23.9864 N   0  0  0  0  0  0  0  0  0  0  0  0
    7.1191   -7.3636   15.7739 C   0  0  0  0  0  0  0  0  0  0  0  0
    5.9612   -8.3203   17.2732 N   0  0  0  0  0  0  0  0  0  0  0  0
    8.5296   -5.9814   17.1841 C   0  0  0  0  0  0  0  0  0  0  0  0
    9.1527   -5.2118   16.2116 C   0  0  0  0  0  0  0  0  0  0  0  0
   10.3364   -3.8368   22.9255 O   0  0  0  0  0  0  0  0  0  0  0  0
    9.6947   -4.8407   18.8534 C   0  0  0  0  0  0  0  0  0  0  0  0
    9.1596    1.7042   24.1381 C   0  0  0  0  0  0  0  0  0  0  0  0
   11.0456   -2.9774   18.2694 N   0  0  0  0  0  0  0  0  0  0  0  0
   10.4788   -3.0457   21.8593 C   0  0  0  0  0  0  0  0  0  0  0  0
    8.8693   -5.8099   18.4657 N   0  0  0  0  0  0  0  0  0  0  0  0
    8.9892   -0.7926   25.4573 C   0  0  0  0  0  0  0  0  0  0  0  0
   10.5677   -3.4462   20.5323 C   0  0  0  0  0  0  0  0  0  0  0  0
  1  8  1  0
  1 12  4  0
  1 14  4  0
  2  3  4  0
  2 18  4  0
  3 20  4  0
  3 22  4  0
  4 11  4  0
  4 21  4  0
  5  9  4  0
  5 16  4  0
  6 15  4  0
  6 16  4  0
  7 22  4  0
  7 26  4  0
  8 10  4  0
  8 25  4  0
  9 15  4  0
  9 17  1  0
 10 21  4  0
 11 25  4  0
 12 23  4  0
 13 20  4  0
 13 26  4  0
 14 19  4  0
 17 18  4  0
 17 24  4  0
 19 23  4  0
 20 24  4  0
 23 26  1  0
M  END
$$$$

 Created by Python create_sdf_string function

 26 30  0  0  0  0  0  0  0  0999 V2000
   10.0084   -1.8019   23.4945 C   0  0  0  0  0  0  0  0  0  0  0  0
   10.0005   -4.2520   16.5631 C   0  0  0  0  0  0  0  0  0  0  0  0
   10.2759   -4.0036   17.8845 C   0  0  0  0  0  0  0  0  0  0  0  0
    8.5652    1.5478   25.3778 N   0  0  0  0  0  0  0  0  0  0  0  0
    6.8048   -7.5457   17.8752 C   0  0  0  0  0  0  0  0  0  0  0  0
    6.1721   -8.2186   15.9886 N   0  0  0  0  0  0  0  0  0  0  0  0
   11.1764   -2.6600   19.5604 C   0  0  0  0  0  0  0  0  0  0  0  0
    9.5491   -0.6380   24.1912 C   0  0  0  0  0  0  0  0  0  0  0  0
    7.5337   -6.9256   16.9519 C   0  0  0  0  0  0  0  0  0  0  0  0
    9.6782    0.5671   23.5143 C   0  0  0  0  0  0  0  0  0  0  0  0
    8.4532    0.3482   26.0821 C   0  0  0  0  0  0  0  0  0  0  0  0
   10.4239   -1.7677   22.2230 N   0  0  0  0  0  0  0  0  0  0  0  0
    9.9468   -4.5953   20.1709 C   0  0  0  0  0  0  0  0  0  0  0  0
   10.0366   -3.0590   23.9864 N   0  0  0  0  0  0  0  0  0  0  0  0
    7.1191   -7.3636   15.7739 C   0  0  0  0  0  0  0  0  0  0  0  0
    5.9612   -8.3203   17.2732 N   0  0  0  0  0  0  0  0  0  0  0  0
    8.5296   -5.9814   17.1841 C   0  0  0  0  0  0  0  0  0  0  0  0
    9.1527   -5.2118   16.2116 C   0  0  0  0  0  0  0  0  0  0  0  0
   10.3364   -3.8368   22.9255 O   0  0  0  0  0  0  0  0  0  0  0  0
    9.6947   -4.8407   18.8534 C   0  0  0  0  0  0  0  0  0  0  0  0
    9.1596    1.7042   24.1381 C   0  0  0  0  0  0  0  0  0  0  0  0
   11.0456   -2.9774   18.2694 N   0  0  0  0  0  0  0  0  0  0  0  0
   10.4788   -3.0457   21.8593 C   0  0  0  0  0  0  0  0  0  0  0  0
    8.8693   -5.8099   18.4657 N   0  0  0  0  0  0  0  0  0  0  0  0
    8.9892   -0.7926   25.4573 C   0  0  0  0  0  0  0  0  0  0  0  0
   10.5677   -3.4462   20.5323 C   0  0  0  0  0  0  0  0  0  0  0  0
  1  8  1  0
  1 12  4  0
  1 14  4  0
  2  3  4  0
  2 18  4  0
  3 20  4  0
  3 22  4  0
  4 11  4  0
  4 21  4  0
  5  9  4  0
  5 16  4  0
  6 15  4  0
  6 16  4  0
  7 22  4  0
  7 26  4  0
  8 10  4  0
  8 25  4  0
  9 15  4  0
  9 17  1  0
 10 21  4  0
 11 25  4  0
 12 23  4  0
 13 20  4  0
 13 26  4  0
 14 19  4  0
 17 18  4  0
 17 24  4  0
 19 23  4  0
 20 24  4  0
 23 26  1  0
M  END
$$$$

 Created by Python create_sdf_string function

 26 30  0  0  0  0  0  0  0  0999 V2000
   10.0084   -1.8019   23.4945 C   0  0  0  0  0  0  0  0  0  0  0  0
   10.0005   -4.2520   16.5631 C   0  0  0  0  0  0  0  0  0  0  0  0
   10.2759   -4.0036   17.8845 C   0  0  0  0  0  0  0  0  0  0  0  0
    8.5652    1.5478   25.3778 N   0  0  0  0  0  0  0  0  0  0  0  0
    6.8048   -7.5457   17.8752 C   0  0  0  0  0  0  0  0  0  0  0  0
    6.1721   -8.2186   15.9886 N   0  0  0  0  0  0  0  0  0  0  0  0
   11.1764   -2.6600   19.5604 C   0  0  0  0  0  0  0  0  0  0  0  0
    9.5491   -0.6380   24.1912 C   0  0  0  0  0  0  0  0  0  0  0  0
    7.5337   -6.9256   16.9519 C   0  0  0  0  0  0  0  0  0  0  0  0
    9.6782    0.5671   23.5143 C   0  0  0  0  0  0  0  0  0  0  0  0
    8.4532    0.3482   26.0821 C   0  0  0  0  0  0  0  0  0  0  0  0
   10.4239   -1.7677   22.2230 N   0  0  0  0  0  0  0  0  0  0  0  0
    9.9468   -4.5953   20.1709 C   0  0  0  0  0  0  0  0  0  0  0  0
   10.0366   -3.0590   23.9864 N   0  0  0  0  0  0  0  0  0  0  0  0
    7.1191   -7.3636   15.7739 C   0  0  0  0  0  0  0  0  0  0  0  0
    5.9612   -8.3203   17.2732 N   0  0  0  0  0  0  0  0  0  0  0  0
    8.5296   -5.9814   17.1841 C   0  0  0  0  0  0  0  0  0  0  0  0
    9.1527   -5.2118   16.2116 C   0  0  0  0  0  0  0  0  0  0  0  0
   10.3364   -3.8368   22.9255 O   0  0  0  0  0  0  0  0  0  0  0  0
    9.6947   -4.8407   18.8534 C   0  0  0  0  0  0  0  0  0  0  0  0
    9.1596    1.7042   24.1381 C   0  0  0  0  0  0  0  0  0  0  0  0
   11.0456   -2.9774   18.2694 N   0  0  0  0  0  0  0  0  0  0  0  0
   10.4788   -3.0457   21.8593 C   0  0  0  0  0  0  0  0  0  0  0  0
    8.8693   -5.8099   18.4657 N   0  0  0  0  0  0  0  0  0  0  0  0
    8.9892   -0.7926   25.4573 C   0  0  0  0  0  0  0  0  0  0  0  0
   10.5677   -3.4462   20.5323 C   0  0  0  0  0  0  0  0  0  0  0  0
  1  8  1  0
  1 12  4  0
  1 14  4  0
  2  3  4  0
  2 18  4  0
  3 20  4  0
  3 22  4  0
  4 11  4  0
  4 21  4  0
  5  9  4  0
  5 16  4  0
  6 15  4  0
  6 16  4  0
  7 22  4  0
  7 26  4  0
  8 10  4  0
  8 25  4  0
  9 15  4  0
  9 17  1  0
 10 21  4  0
 11 25  4  0
 12 23  4  0
 13 20  4  0
 13 26  4  0
 14 19  4  0
 17 18  4  0
 17 24  4  0
 19 23  4  0
 20 24  4  0
 23 26  1  0
M  END
$$$$

 Created by Python create_sdf_string function

 26 30  0  0  0  0  0  0  0  0999 V2000
   10.0084   -1.8019   23.4945 C   0  0  0  0  0  0  0  0  0  0  0  0
   10.0005   -4.2520   16.5631 C   0  0  0  0  0  0  0  0  0  0  0  0
   10.2759   -4.0036   17.8845 C   0  0  0  0  0  0  0  0  0  0  0  0
    8.5652    1.5478   25.3778 N   0  0  0  0  0  0  0  0  0  0  0  0
    6.8048   -7.5457   17.8752 C   0  0  0  0  0  0  0  0  0  0  0  0
    6.1721   -8.2186   15.9886 N   0  0  0  0  0  0  0  0  0  0  0  0
   11.1764   -2.6600   19.5604 C   0  0  0  0  0  0  0  0  0  0  0  0
    9.5491   -0.6380   24.1912 C   0  0  0  0  0  0  0  0  0  0  0  0
    7.5337   -6.9256   16.9519 C   0  0  0  0  0  0  0  0  0  0  0  0
    9.6782    0.5671   23.5143 C   0  0  0  0  0  0  0  0  0  0  0  0
    8.4532    0.3482   26.0821 C   0  0  0  0  0  0  0  0  0  0  0  0
   10.4239   -1.7677   22.2230 N   0  0  0  0  0  0  0  0  0  0  0  0
    9.9468   -4.5953   20.1709 C   0  0  0  0  0  0  0  0  0  0  0  0
   10.0366   -3.0590   23.9864 N   0  0  0  0  0  0  0  0  0  0  0  0
    7.1191   -7.3636   15.7739 C   0  0  0  0  0  0  0  0  0  0  0  0
    5.9612   -8.3203   17.2732 N   0  0  0  0  0  0  0  0  0  0  0  0
    8.5296   -5.9814   17.1841 C   0  0  0  0  0  0  0  0  0  0  0  0
    9.1527   -5.2118   16.2116 C   0  0  0  0  0  0  0  0  0  0  0  0
   10.3364   -3.8368   22.9255 O   0  0  0  0  0  0  0  0  0  0  0  0
    9.6947   -4.8407   18.8534 C   0  0  0  0  0  0  0  0  0  0  0  0
    9.1596    1.7042   24.1381 C   0  0  0  0  0  0  0  0  0  0  0  0
   11.0456   -2.9774   18.2694 N   0  0  0  0  0  0  0  0  0  0  0  0
   10.4788   -3.0457   21.8593 C   0  0  0  0  0  0  0  0  0  0  0  0
    8.8693   -5.8099   18.4657 N   0  0  0  0  0  0  0  0  0  0  0  0
    8.9892   -0.7926   25.4573 C   0  0  0  0  0  0  0  0  0  0  0  0
   10.5677   -3.4462   20.5323 C   0  0  0  0  0  0  0  0  0  0  0  0
  1  8  1  0
  1 12  4  0
  1 14  4  0
  2  3  4  0
  2 18  4  0
  3 20  4  0
  3 22  4  0
  4 11  4  0
  4 21  4  0
  5  9  4  0
  5 16  4  0
  6 15  4  0
  6 16  4  0
  7 22  4  0
  7 26  4  0
  8 10  4  0
  8 25  4  0
  9 15  4  0
  9 17  1  0
 10 21  4  0
 11 25  4  0
 12 23  4  0
 13 20  4  0
 13 26  4  0
 14 19  4  0
 17 18  4  0
 17 24  4  0
 19 23  4  0
 20 24  4  0
 23 26  1  0
M  END
$$$$

 Created by Python create_sdf_string function

 26 30  0  0  0  0  0  0  0  0999 V2000
   10.0084   -1.8019   23.4945 C   0  0  0  0  0  0  0  0  0  0  0  0
   10.0005   -4.2520   16.5631 C   0  0  0  0  0  0  0  0  0  0  0  0
   10.2759   -4.0036   17.8845 C   0  0  0  0  0  0  0  0  0  0  0  0
    8.5652    1.5478   25.3778 N   0  0  0  0  0  0  0  0  0  0  0  0
    6.8048   -7.5457   17.8752 C   0  0  0  0  0  0  0  0  0  0  0  0
    6.1721   -8.2186   15.9886 N   0  0  0  0  0  0  0  0  0  0  0  0
   11.1764   -2.6600   19.5604 C   0  0  0  0  0  0  0  0  0  0  0  0
    9.5491   -0.6380   24.1912 C   0  0  0  0  0  0  0  0  0  0  0  0
    7.5337   -6.9256   16.9519 C   0  0  0  0  0  0  0  0  0  0  0  0
    9.6782    0.5671   23.5143 C   0  0  0  0  0  0  0  0  0  0  0  0
    8.4532    0.3482   26.0821 C   0  0  0  0  0  0  0  0  0  0  0  0
   10.4239   -1.7677   22.2230 N   0  0  0  0  0  0  0  0  0  0  0  0
    9.9468   -4.5953   20.1709 C   0  0  0  0  0  0  0  0  0  0  0  0
   10.0366   -3.0590   23.9864 N   0  0  0  0  0  0  0  0  0  0  0  0
    7.1191   -7.3636   15.7739 C   0  0  0  0  0  0  0  0  0  0  0  0
    5.9612   -8.3203   17.2732 N   0  0  0  0  0  0  0  0  0  0  0  0
    8.5296   -5.9814   17.1841 C   0  0  0  0  0  0  0  0  0  0  0  0
    9.1527   -5.2118   16.2116 C   0  0  0  0  0  0  0  0  0  0  0  0
   10.3364   -3.8368   22.9255 O   0  0  0  0  0  0  0  0  0  0  0  0
    9.6947   -4.8407   18.8534 C   0  0  0  0  0  0  0  0  0  0  0  0
    9.1596    1.7042   24.1381 C   0  0  0  0  0  0  0  0  0  0  0  0
   11.0456   -2.9774   18.2694 N   0  0  0  0  0  0  0  0  0  0  0  0
   10.4788   -3.0457   21.8593 C   0  0  0  0  0  0  0  0  0  0  0  0
    8.8693   -5.8099   18.4657 N   0  0  0  0  0  0  0  0  0  0  0  0
    8.9892   -0.7926   25.4573 C   0  0  0  0  0  0  0  0  0  0  0  0
   10.5677   -3.4462   20.5323 C   0  0  0  0  0  0  0  0  0  0  0  0
  1  8  1  0
  1 12  4  0
  1 14  4  0
  2  3  4  0
  2 18  4  0
  3 20  4  0
  3 22  4  0
  4 11  4  0
  4 21  4  0
  5  9  4  0
  5 16  4  0
  6 15  4  0
  6 16  4  0
  7 22  4  0
  7 26  4  0
  8 10  4  0
  8 25  4  0
  9 15  4  0
  9 17  1  0
 10 21  4  0
 11 25  4  0
 12 23  4  0
 13 20  4  0
 13 26  4  0
 14 19  4  0
 17 18  4  0
 17 24  4  0
 19 23  4  0
 20 24  4  0
 23 26  1  0
M  END
$$$$

 Created by Python create_sdf_string function

 26 30  0  0  0  0  0  0  0  0999 V2000
   10.0084   -1.8019   23.4945 C   0  0  0  0  0  0  0  0  0  0  0  0
   10.0005   -4.2520   16.5631 C   0  0  0  0  0  0  0  0  0  0  0  0
   10.2759   -4.0036   17.8845 C   0  0  0  0  0  0  0  0  0  0  0  0
    8.5652    1.5478   25.3778 N   0  0  0  0  0  0  0  0  0  0  0  0
    6.8048   -7.5457   17.8752 C   0  0  0  0  0  0  0  0  0  0  0  0
    6.1721   -8.2186   15.9886 N   0  0  0  0  0  0  0  0  0  0  0  0
   11.1764   -2.6600   19.5604 C   0  0  0  0  0  0  0  0  0  0  0  0
    9.5491   -0.6380   24.1912 C   0  0  0  0  0  0  0  0  0  0  0  0
    7.5337   -6.9256   16.9519 C   0  0  0  0  0  0  0  0  0  0  0  0
    9.6782    0.5671   23.5143 C   0  0  0  0  0  0  0  0  0  0  0  0
    8.4532    0.3482   26.0821 C   0  0  0  0  0  0  0  0  0  0  0  0
   10.4239   -1.7677   22.2230 N   0  0  0  0  0  0  0  0  0  0  0  0
    9.9468   -4.5953   20.1709 C   0  0  0  0  0  0  0  0  0  0  0  0
   10.0366   -3.0590   23.9864 N   0  0  0  0  0  0  0  0  0  0  0  0
    7.1191   -7.3636   15.7739 C   0  0  0  0  0  0  0  0  0  0  0  0
    5.9612   -8.3203   17.2732 N   0  0  0  0  0  0  0  0  0  0  0  0
    8.5296   -5.9814   17.1841 C   0  0  0  0  0  0  0  0  0  0  0  0
    9.1527   -5.2118   16.2116 C   0  0  0  0  0  0  0  0  0  0  0  0
   10.3364   -3.8368   22.9255 O   0  0  0  0  0  0  0  0  0  0  0  0
    9.6947   -4.8407   18.8534 C   0  0  0  0  0  0  0  0  0  0  0  0
    9.1596    1.7042   24.1381 C   0  0  0  0  0  0  0  0  0  0  0  0
   11.0456   -2.9774   18.2694 N   0  0  0  0  0  0  0  0  0  0  0  0
   10.4788   -3.0457   21.8593 C   0  0  0  0  0  0  0  0  0  0  0  0
    8.8693   -5.8099   18.4657 N   0  0  0  0  0  0  0  0  0  0  0  0
    8.9892   -0.7926   25.4573 C   0  0  0  0  0  0  0  0  0  0  0  0
   10.5677   -3.4462   20.5323 C   0  0  0  0  0  0  0  0  0  0  0  0
  1  8  1  0
  1 12  4  0
  1 14  4  0
  2  3  4  0
  2 18  4  0
  3 20  4  0
  3 22  4  0
  4 11  4  0
  4 21  4  0
  5  9  4  0
  5 16  4  0
  6 15  4  0
  6 16  4  0
  7 22  4  0
  7 26  4  0
  8 10  4  0
  8 25  4  0
  9 15  4  0
  9 17  1  0
 10 21  4  0
 11 25  4  0
 12 23  4  0
 13 20  4  0
 13 26  4  0
 14 19  4  0
 17 18  4  0
 17 24  4  0
 19 23  4  0
 20 24  4  0
 23 26  1  0
M  END
$$$$

 Created by Python create_sdf_string function

 26 30  0  0  0  0  0  0  0  0999 V2000
   10.0084   -1.8019   23.4945 C   0  0  0  0  0  0  0  0  0  0  0  0
   10.0005   -4.2520   16.5631 C   0  0  0  0  0  0  0  0  0  0  0  0
   10.2759   -4.0036   17.8845 C   0  0  0  0  0  0  0  0  0  0  0  0
    8.5652    1.5478   25.3778 N   0  0  0  0  0  0  0  0  0  0  0  0
    6.8048   -7.5457   17.8752 C   0  0  0  0  0  0  0  0  0  0  0  0
    6.1721   -8.2186   15.9886 N   0  0  0  0  0  0  0  0  0  0  0  0
   11.1764   -2.6600   19.5604 C   0  0  0  0  0  0  0  0  0  0  0  0
    9.5491   -0.6380   24.1912 C   0  0  0  0  0  0  0  0  0  0  0  0
    7.5337   -6.9256   16.9519 C   0  0  0  0  0  0  0  0  0  0  0  0
    9.6782    0.5671   23.5143 C   0  0  0  0  0  0  0  0  0  0  0  0
    8.4532    0.3482   26.0821 C   0  0  0  0  0  0  0  0  0  0  0  0
   10.4239   -1.7677   22.2230 N   0  0  0  0  0  0  0  0  0  0  0  0
    9.9468   -4.5953   20.1709 C   0  0  0  0  0  0  0  0  0  0  0  0
   10.0366   -3.0590   23.9864 N   0  0  0  0  0  0  0  0  0  0  0  0
    7.1191   -7.3636   15.7739 C   0  0  0  0  0  0  0  0  0  0  0  0
    5.9612   -8.3203   17.2732 N   0  0  0  0  0  0  0  0  0  0  0  0
    8.5296   -5.9814   17.1841 C   0  0  0  0  0  0  0  0  0  0  0  0
    9.1527   -5.2118   16.2116 C   0  0  0  0  0  0  0  0  0  0  0  0
   10.3364   -3.8368   22.9255 O   0  0  0  0  0  0  0  0  0  0  0  0
    9.6947   -4.8407   18.8534 C   0  0  0  0  0  0  0  0  0  0  0  0
    9.1596    1.7042   24.1381 C   0  0  0  0  0  0  0  0  0  0  0  0
   11.0456   -2.9774   18.2694 N   0  0  0  0  0  0  0  0  0  0  0  0
   10.4788   -3.0457   21.8593 C   0  0  0  0  0  0  0  0  0  0  0  0
    8.8693   -5.8099   18.4657 N   0  0  0  0  0  0  0  0  0  0  0  0
    8.9892   -0.7926   25.4573 C   0  0  0  0  0  0  0  0  0  0  0  0
   10.5677   -3.4462   20.5323 C   0  0  0  0  0  0  0  0  0  0  0  0
  1  8  1  0
  1 12  4  0
  1 14  4  0
  2  3  4  0
  2 18  4  0
  3 20  4  0
  3 22  4  0
  4 11  4  0
  4 21  4  0
  5  9  4  0
  5 16  4  0
  6 15  4  0
  6 16  4  0
  7 22  4  0
  7 26  4  0
  8 10  4  0
  8 25  4  0
  9 15  4  0
  9 17  1  0
 10 21  4  0
 11 25  4  0
 12 23  4  0
 13 20  4  0
 13 26  4  0
 14 19  4  0
 17 18  4  0
 17 24  4  0
 19 23  4  0
 20 24  4  0
 23 26  1  0
M  END
$$$$

 Created by Python create_sdf_string function

 26 30  0  0  0  0  0  0  0  0999 V2000
   10.0084   -1.8019   23.4945 C   0  0  0  0  0  0  0  0  0  0  0  0
   10.0005   -4.2520   16.5631 C   0  0  0  0  0  0  0  0  0  0  0  0
   10.2759   -4.0036   17.8845 C   0  0  0  0  0  0  0  0  0  0  0  0
    8.5652    1.5478   25.3778 N   0  0  0  0  0  0  0  0  0  0  0  0
    6.8048   -7.5457   17.8752 C   0  0  0  0  0  0  0  0  0  0  0  0
    6.1721   -8.2186   15.9886 N   0  0  0  0  0  0  0  0  0  0  0  0
   11.1764   -2.6600   19.5604 C   0  0  0  0  0  0  0  0  0  0  0  0
    9.5491   -0.6380   24.1912 C   0  0  0  0  0  0  0  0  0  0  0  0
    7.5337   -6.9256   16.9519 C   0  0  0  0  0  0  0  0  0  0  0  0
    9.6782    0.5671   23.5143 C   0  0  0  0  0  0  0  0  0  0  0  0
    8.4532    0.3482   26.0821 C   0  0  0  0  0  0  0  0  0  0  0  0
   10.4239   -1.7677   22.2230 N   0  0  0  0  0  0  0  0  0  0  0  0
    9.9468   -4.5953   20.1709 C   0  0  0  0  0  0  0  0  0  0  0  0
   10.0366   -3.0590   23.9864 N   0  0  0  0  0  0  0  0  0  0  0  0
    7.1191   -7.3636   15.7739 C   0  0  0  0  0  0  0  0  0  0  0  0
    5.9612   -8.3203   17.2732 N   0  0  0  0  0  0  0  0  0  0  0  0
    8.5296   -5.9814   17.1841 C   0  0  0  0  0  0  0  0  0  0  0  0
    9.1527   -5.2118   16.2116 C   0  0  0  0  0  0  0  0  0  0  0  0
   10.3364   -3.8368   22.9255 O   0  0  0  0  0  0  0  0  0  0  0  0
    9.6947   -4.8407   18.8534 C   0  0  0  0  0  0  0  0  0  0  0  0
    9.1596    1.7042   24.1381 C   0  0  0  0  0  0  0  0  0  0  0  0
   11.0456   -2.9774   18.2694 N   0  0  0  0  0  0  0  0  0  0  0  0
   10.4788   -3.0457   21.8593 C   0  0  0  0  0  0  0  0  0  0  0  0
    8.8693   -5.8099   18.4657 N   0  0  0  0  0  0  0  0  0  0  0  0
    8.9892   -0.7926   25.4573 C   0  0  0  0  0  0  0  0  0  0  0  0
   10.5677   -3.4462   20.5323 C   0  0  0  0  0  0  0  0  0  0  0  0
  1  8  1  0
  1 12  4  0
  1 14  4  0
  2  3  4  0
  2 18  4  0
  3 20  4  0
  3 22  4  0
  4 11  4  0
  4 21  4  0
  5  9  4  0
  5 16  4  0
  6 15  4  0
  6 16  4  0
  7 22  4  0
  7 26  4  0
  8 10  4  0
  8 25  4  0
  9 15  4  0
  9 17  1  0
 10 21  4  0
 11 25  4  0
 12 23  4  0
 13 20  4  0
 13 26  4  0
 14 19  4  0
 17 18  4  0
 17 24  4  0
 19 23  4  0
 20 24  4  0
 23 26  1  0
M  END
$$$$

 Created by Python create_sdf_string function

 26 30  0  0  0  0  0  0  0  0999 V2000
   10.0084   -1.8019   23.4945 C   0  0  0  0  0  0  0  0  0  0  0  0
   10.0005   -4.2520   16.5631 C   0  0  0  0  0  0  0  0  0  0  0  0
   10.2759   -4.0036   17.8845 C   0  0  0  0  0  0  0  0  0  0  0  0
    8.5652    1.5478   25.3778 N   0  0  0  0  0  0  0  0  0  0  0  0
    6.8048   -7.5457   17.8752 C   0  0  0  0  0  0  0  0  0  0  0  0
    6.1721   -8.2186   15.9886 N   0  0  0  0  0  0  0  0  0  0  0  0
   11.1764   -2.6600   19.5604 C   0  0  0  0  0  0  0  0  0  0  0  0
    9.5491   -0.6380   24.1912 C   0  0  0  0  0  0  0  0  0  0  0  0
    7.5337   -6.9256   16.9519 C   0  0  0  0  0  0  0  0  0  0  0  0
    9.6782    0.5671   23.5143 C   0  0  0  0  0  0  0  0  0  0  0  0
    8.4532    0.3482   26.0821 C   0  0  0  0  0  0  0  0  0  0  0  0
   10.4239   -1.7677   22.2230 N   0  0  0  0  0  0  0  0  0  0  0  0
    9.9468   -4.5953   20.1709 C   0  0  0  0  0  0  0  0  0  0  0  0
   10.0366   -3.0590   23.9864 N   0  0  0  0  0  0  0  0  0  0  0  0
    7.1191   -7.3636   15.7739 C   0  0  0  0  0  0  0  0  0  0  0  0
    5.9612   -8.3203   17.2732 N   0  0  0  0  0  0  0  0  0  0  0  0
    8.5296   -5.9814   17.1841 C   0  0  0  0  0  0  0  0  0  0  0  0
    9.1527   -5.2118   16.2116 C   0  0  0  0  0  0  0  0  0  0  0  0
   10.3364   -3.8368   22.9255 O   0  0  0  0  0  0  0  0  0  0  0  0
    9.6947   -4.8407   18.8534 C   0  0  0  0  0  0  0  0  0  0  0  0
    9.1596    1.7042   24.1381 C   0  0  0  0  0  0  0  0  0  0  0  0
   11.0456   -2.9774   18.2694 N   0  0  0  0  0  0  0  0  0  0  0  0
   10.4788   -3.0457   21.8593 C   0  0  0  0  0  0  0  0  0  0  0  0
    8.8693   -5.8099   18.4657 N   0  0  0  0  0  0  0  0  0  0  0  0
    8.9892   -0.7926   25.4573 C   0  0  0  0  0  0  0  0  0  0  0  0
   10.5677   -3.4462   20.5323 C   0  0  0  0  0  0  0  0  0  0  0  0
  1  8  1  0
  1 12  4  0
  1 14  4  0
  2  3  4  0
  2 18  4  0
  3 20  4  0
  3 22  4  0
  4 11  4  0
  4 21  4  0
  5  9  4  0
  5 16  4  0
  6 15  4  0
  6 16  4  0
  7 22  4  0
  7 26  4  0
  8 10  4  0
  8 25  4  0
  9 15  4  0
  9 17  1  0
 10 21  4  0
 11 25  4  0
 12 23  4  0
 13 20  4  0
 13 26  4  0
 14 19  4  0
 17 18  4  0
 17 24  4  0
 19 23  4  0
 20 24  4  0
 23 26  1  0
M  END
$$$$

 Created by Python create_sdf_string function

 26 30  0  0  0  0  0  0  0  0999 V2000
   10.0084   -1.8019   23.4945 C   0  0  0  0  0  0  0  0  0  0  0  0
   10.0005   -4.2520   16.5631 C   0  0  0  0  0  0  0  0  0  0  0  0
   10.2759   -4.0036   17.8845 C   0  0  0  0  0  0  0  0  0  0  0  0
    8.5652    1.5478   25.3778 N   0  0  0  0  0  0  0  0  0  0  0  0
    6.8048   -7.5457   17.8752 C   0  0  0  0  0  0  0  0  0  0  0  0
    6.1721   -8.2186   15.9886 N   0  0  0  0  0  0  0  0  0  0  0  0
   11.1764   -2.6600   19.5604 C   0  0  0  0  0  0  0  0  0  0  0  0
    9.5491   -0.6380   24.1912 C   0  0  0  0  0  0  0  0  0  0  0  0
    7.5337   -6.9256   16.9519 C   0  0  0  0  0  0  0  0  0  0  0  0
    9.6782    0.5671   23.5143 C   0  0  0  0  0  0  0  0  0  0  0  0
    8.4532    0.3482   26.0821 C   0  0  0  0  0  0  0  0  0  0  0  0
   10.4239   -1.7677   22.2230 N   0  0  0  0  0  0  0  0  0  0  0  0
    9.9468   -4.5953   20.1709 C   0  0  0  0  0  0  0  0  0  0  0  0
   10.0366   -3.0590   23.9864 N   0  0  0  0  0  0  0  0  0  0  0  0
    7.1191   -7.3636   15.7739 C   0  0  0  0  0  0  0  0  0  0  0  0
    5.9612   -8.3203   17.2732 N   0  0  0  0  0  0  0  0  0  0  0  0
    8.5296   -5.9814   17.1841 C   0  0  0  0  0  0  0  0  0  0  0  0
    9.1527   -5.2118   16.2116 C   0  0  0  0  0  0  0  0  0  0  0  0
   10.3364   -3.8368   22.9255 O   0  0  0  0  0  0  0  0  0  0  0  0
    9.6947   -4.8407   18.8534 C   0  0  0  0  0  0  0  0  0  0  0  0
    9.1596    1.7042   24.1381 C   0  0  0  0  0  0  0  0  0  0  0  0
   11.0456   -2.9774   18.2694 N   0  0  0  0  0  0  0  0  0  0  0  0
   10.4788   -3.0457   21.8593 C   0  0  0  0  0  0  0  0  0  0  0  0
    8.8693   -5.8099   18.4657 N   0  0  0  0  0  0  0  0  0  0  0  0
    8.9892   -0.7926   25.4573 C   0  0  0  0  0  0  0  0  0  0  0  0
   10.5677   -3.4462   20.5323 C   0  0  0  0  0  0  0  0  0  0  0  0
  1  8  1  0
  1 12  4  0
  1 14  4  0
  2  3  4  0
  2 18  4  0
  3 20  4  0
  3 22  4  0
  4 11  4  0
  4 21  4  0
  5  9  4  0
  5 16  4  0
  6 15  4  0
  6 16  4  0
  7 22  4  0
  7 26  4  0
  8 10  4  0
  8 25  4  0
  9 15  4  0
  9 17  1  0
 10 21  4  0
 11 25  4  0
 12 23  4  0
 13 20  4  0
 13 26  4  0
 14 19  4  0
 17 18  4  0
 17 24  4  0
 19 23  4  0
 20 24  4  0
 23 26  1  0
M  END
$$$$

 Created by Python create_sdf_string function

 26 30  0  0  0  0  0  0  0  0999 V2000
   10.0084   -1.8019   23.4945 C   0  0  0  0  0  0  0  0  0  0  0  0
   10.0005   -4.2520   16.5631 C   0  0  0  0  0  0  0  0  0  0  0  0
   10.2759   -4.0036   17.8845 C   0  0  0  0  0  0  0  0  0  0  0  0
    8.5652    1.5478   25.3778 N   0  0  0  0  0  0  0  0  0  0  0  0
    6.8048   -7.5457   17.8752 C   0  0  0  0  0  0  0  0  0  0  0  0
    6.1721   -8.2186   15.9886 N   0  0  0  0  0  0  0  0  0  0  0  0
   11.1764   -2.6600   19.5604 C   0  0  0  0  0  0  0  0  0  0  0  0
    9.5491   -0.6380   24.1912 C   0  0  0  0  0  0  0  0  0  0  0  0
    7.5337   -6.9256   16.9519 C   0  0  0  0  0  0  0  0  0  0  0  0
    9.6782    0.5671   23.5143 C   0  0  0  0  0  0  0  0  0  0  0  0
    8.4532    0.3482   26.0821 C   0  0  0  0  0  0  0  0  0  0  0  0
   10.4239   -1.7677   22.2230 N   0  0  0  0  0  0  0  0  0  0  0  0
    9.9468   -4.5953   20.1709 C   0  0  0  0  0  0  0  0  0  0  0  0
   10.0366   -3.0590   23.9864 N   0  0  0  0  0  0  0  0  0  0  0  0
    7.1191   -7.3636   15.7739 C   0  0  0  0  0  0  0  0  0  0  0  0
    5.9612   -8.3203   17.2732 N   0  0  0  0  0  0  0  0  0  0  0  0
    8.5296   -5.9814   17.1841 C   0  0  0  0  0  0  0  0  0  0  0  0
    9.1527   -5.2118   16.2116 C   0  0  0  0  0  0  0  0  0  0  0  0
   10.3364   -3.8368   22.9255 O   0  0  0  0  0  0  0  0  0  0  0  0
    9.6947   -4.8407   18.8534 C   0  0  0  0  0  0  0  0  0  0  0  0
    9.1596    1.7042   24.1381 C   0  0  0  0  0  0  0  0  0  0  0  0
   11.0456   -2.9774   18.2694 N   0  0  0  0  0  0  0  0  0  0  0  0
   10.4788   -3.0457   21.8593 C   0  0  0  0  0  0  0  0  0  0  0  0
    8.8693   -5.8099   18.4657 N   0  0  0  0  0  0  0  0  0  0  0  0
    8.9892   -0.7926   25.4573 C   0  0  0  0  0  0  0  0  0  0  0  0
   10.5677   -3.4462   20.5323 C   0  0  0  0  0  0  0  0  0  0  0  0
  1  8  1  0
  1 12  4  0
  1 14  4  0
  2  3  4  0
  2 18  4  0
  3 20  4  0
  3 22  4  0
  4 11  4  0
  4 21  4  0
  5  9  4  0
  5 16  4  0
  6 15  4  0
  6 16  4  0
  7 22  4  0
  7 26  4  0
  8 10  4  0
  8 25  4  0
  9 15  4  0
  9 17  1  0
 10 21  4  0
 11 25  4  0
 12 23  4  0
 13 20  4  0
 13 26  4  0
 14 19  4  0
 17 18  4  0
 17 24  4  0
 19 23  4  0
 20 24  4  0
 23 26  1  0
M  END
$$$$

 Created by Python create_sdf_string function

 26 30  0  0  0  0  0  0  0  0999 V2000
   10.0084   -1.8019   23.4945 C   0  0  0  0  0  0  0  0  0  0  0  0
   10.0005   -4.2520   16.5631 C   0  0  0  0  0  0  0  0  0  0  0  0
   10.2759   -4.0036   17.8845 C   0  0  0  0  0  0  0  0  0  0  0  0
    8.5652    1.5478   25.3778 N   0  0  0  0  0  0  0  0  0  0  0  0
    6.8048   -7.5457   17.8752 C   0  0  0  0  0  0  0  0  0  0  0  0
    6.1721   -8.2186   15.9886 N   0  0  0  0  0  0  0  0  0  0  0  0
   11.1764   -2.6600   19.5604 C   0  0  0  0  0  0  0  0  0  0  0  0
    9.5491   -0.6380   24.1912 C   0  0  0  0  0  0  0  0  0  0  0  0
    7.5337   -6.9256   16.9519 C   0  0  0  0  0  0  0  0  0  0  0  0
    9.6782    0.5671   23.5143 C   0  0  0  0  0  0  0  0  0  0  0  0
    8.4532    0.3482   26.0821 C   0  0  0  0  0  0  0  0  0  0  0  0
   10.4239   -1.7677   22.2230 N   0  0  0  0  0  0  0  0  0  0  0  0
    9.9468   -4.5953   20.1709 C   0  0  0  0  0  0  0  0  0  0  0  0
   10.0366   -3.0590   23.9864 N   0  0  0  0  0  0  0  0  0  0  0  0
    7.1191   -7.3636   15.7739 C   0  0  0  0  0  0  0  0  0  0  0  0
    5.9612   -8.3203   17.2732 N   0  0  0  0  0  0  0  0  0  0  0  0
    8.5296   -5.9814   17.1841 C   0  0  0  0  0  0  0  0  0  0  0  0
    9.1527   -5.2118   16.2116 C   0  0  0  0  0  0  0  0  0  0  0  0
   10.3364   -3.8368   22.9255 O   0  0  0  0  0  0  0  0  0  0  0  0
    9.6947   -4.8407   18.8534 C   0  0  0  0  0  0  0  0  0  0  0  0
    9.1596    1.7042   24.1381 C   0  0  0  0  0  0  0  0  0  0  0  0
   11.0456   -2.9774   18.2694 N   0  0  0  0  0  0  0  0  0  0  0  0
   10.4788   -3.0457   21.8593 C   0  0  0  0  0  0  0  0  0  0  0  0
    8.8693   -5.8099   18.4657 N   0  0  0  0  0  0  0  0  0  0  0  0
    8.9892   -0.7926   25.4573 C   0  0  0  0  0  0  0  0  0  0  0  0
   10.5677   -3.4462   20.5323 C   0  0  0  0  0  0  0  0  0  0  0  0
  1  8  1  0
  1 12  4  0
  1 14  4  0
  2  3  4  0
  2 18  4  0
  3 20  4  0
  3 22  4  0
  4 11  4  0
  4 21  4  0
  5  9  4  0
  5 16  4  0
  6 15  4  0
  6 16  4  0
  7 22  4  0
  7 26  4  0
  8 10  4  0
  8 25  4  0
  9 15  4  0
  9 17  1  0
 10 21  4  0
 11 25  4  0
 12 23  4  0
 13 20  4  0
 13 26  4  0
 14 19  4  0
 17 18  4  0
 17 24  4  0
 19 23  4  0
 20 24  4  0
 23 26  1  0
M  END
$$$$

 Created by Python create_sdf_string function

 26 30  0  0  0  0  0  0  0  0999 V2000
   10.0084   -1.8019   23.4945 C   0  0  0  0  0  0  0  0  0  0  0  0
   10.0005   -4.2520   16.5631 C   0  0  0  0  0  0  0  0  0  0  0  0
   10.2759   -4.0036   17.8845 C   0  0  0  0  0  0  0  0  0  0  0  0
    8.5652    1.5478   25.3778 N   0  0  0  0  0  0  0  0  0  0  0  0
    6.8048   -7.5457   17.8752 C   0  0  0  0  0  0  0  0  0  0  0  0
    6.1721   -8.2186   15.9886 N   0  0  0  0  0  0  0  0  0  0  0  0
   11.1764   -2.6600   19.5604 C   0  0  0  0  0  0  0  0  0  0  0  0
    9.5491   -0.6380   24.1912 C   0  0  0  0  0  0  0  0  0  0  0  0
    7.5337   -6.9256   16.9519 C   0  0  0  0  0  0  0  0  0  0  0  0
    9.6782    0.5671   23.5143 C   0  0  0  0  0  0  0  0  0  0  0  0
    8.4532    0.3482   26.0821 C   0  0  0  0  0  0  0  0  0  0  0  0
   10.4239   -1.7677   22.2230 N   0  0  0  0  0  0  0  0  0  0  0  0
    9.9468   -4.5953   20.1709 C   0  0  0  0  0  0  0  0  0  0  0  0
   10.0366   -3.0590   23.9864 N   0  0  0  0  0  0  0  0  0  0  0  0
    7.1191   -7.3636   15.7739 C   0  0  0  0  0  0  0  0  0  0  0  0
    5.9612   -8.3203   17.2732 N   0  0  0  0  0  0  0  0  0  0  0  0
    8.5296   -5.9814   17.1841 C   0  0  0  0  0  0  0  0  0  0  0  0
    9.1527   -5.2118   16.2116 C   0  0  0  0  0  0  0  0  0  0  0  0
   10.3364   -3.8368   22.9255 O   0  0  0  0  0  0  0  0  0  0  0  0
    9.6947   -4.8407   18.8534 C   0  0  0  0  0  0  0  0  0  0  0  0
    9.1596    1.7042   24.1381 C   0  0  0  0  0  0  0  0  0  0  0  0
   11.0456   -2.9774   18.2694 N   0  0  0  0  0  0  0  0  0  0  0  0
   10.4788   -3.0457   21.8593 C   0  0  0  0  0  0  0  0  0  0  0  0
    8.8693   -5.8099   18.4657 N   0  0  0  0  0  0  0  0  0  0  0  0
    8.9892   -0.7926   25.4573 C   0  0  0  0  0  0  0  0  0  0  0  0
   10.5677   -3.4462   20.5323 C   0  0  0  0  0  0  0  0  0  0  0  0
  1  8  1  0
  1 12  4  0
  1 14  4  0
  2  3  4  0
  2 18  4  0
  3 20  4  0
  3 22  4  0
  4 11  4  0
  4 21  4  0
  5  9  4  0
  5 16  4  0
  6 15  4  0
  6 16  4  0
  7 22  4  0
  7 26  4  0
  8 10  4  0
  8 25  4  0
  9 15  4  0
  9 17  1  0
 10 21  4  0
 11 25  4  0
 12 23  4  0
 13 20  4  0
 13 26  4  0
 14 19  4  0
 17 18  4  0
 17 24  4  0
 19 23  4  0
 20 24  4  0
 23 26  1  0
M  END
$$$$

 Created by Python create_sdf_string function

 26 30  0  0  0  0  0  0  0  0999 V2000
   10.0084   -1.8019   23.4945 C   0  0  0  0  0  0  0  0  0  0  0  0
   10.0005   -4.2520   16.5631 C   0  0  0  0  0  0  0  0  0  0  0  0
   10.2759   -4.0036   17.8845 C   0  0  0  0  0  0  0  0  0  0  0  0
    8.5652    1.5478   25.3778 N   0  0  0  0  0  0  0  0  0  0  0  0
    6.8048   -7.5457   17.8752 C   0  0  0  0  0  0  0  0  0  0  0  0
    6.1721   -8.2186   15.9886 N   0  0  0  0  0  0  0  0  0  0  0  0
   11.1764   -2.6600   19.5604 C   0  0  0  0  0  0  0  0  0  0  0  0
    9.5491   -0.6380   24.1912 C   0  0  0  0  0  0  0  0  0  0  0  0
    7.5337   -6.9256   16.9519 C   0  0  0  0  0  0  0  0  0  0  0  0
    9.6782    0.5671   23.5143 C   0  0  0  0  0  0  0  0  0  0  0  0
    8.4532    0.3482   26.0821 C   0  0  0  0  0  0  0  0  0  0  0  0
   10.4239   -1.7677   22.2230 N   0  0  0  0  0  0  0  0  0  0  0  0
    9.9468   -4.5953   20.1709 C   0  0  0  0  0  0  0  0  0  0  0  0
   10.0366   -3.0590   23.9864 N   0  0  0  0  0  0  0  0  0  0  0  0
    7.1191   -7.3636   15.7739 C   0  0  0  0  0  0  0  0  0  0  0  0
    5.9612   -8.3203   17.2732 N   0  0  0  0  0  0  0  0  0  0  0  0
    8.5296   -5.9814   17.1841 C   0  0  0  0  0  0  0  0  0  0  0  0
    9.1527   -5.2118   16.2116 C   0  0  0  0  0  0  0  0  0  0  0  0
   10.3364   -3.8368   22.9255 O   0  0  0  0  0  0  0  0  0  0  0  0
    9.6947   -4.8407   18.8534 C   0  0  0  0  0  0  0  0  0  0  0  0
    9.1596    1.7042   24.1381 C   0  0  0  0  0  0  0  0  0  0  0  0
   11.0456   -2.9774   18.2694 N   0  0  0  0  0  0  0  0  0  0  0  0
   10.4788   -3.0457   21.8593 C   0  0  0  0  0  0  0  0  0  0  0  0
    8.8693   -5.8099   18.4657 N   0  0  0  0  0  0  0  0  0  0  0  0
    8.9892   -0.7926   25.4573 C   0  0  0  0  0  0  0  0  0  0  0  0
   10.5677   -3.4462   20.5323 C   0  0  0  0  0  0  0  0  0  0  0  0
  1  8  1  0
  1 12  4  0
  1 14  4  0
  2  3  4  0
  2 18  4  0
  3 20  4  0
  3 22  4  0
  4 11  4  0
  4 21  4  0
  5  9  4  0
  5 16  4  0
  6 15  4  0
  6 16  4  0
  7 22  4  0
  7 26  4  0
  8 10  4  0
  8 25  4  0
  9 15  4  0
  9 17  1  0
 10 21  4  0
 11 25  4  0
 12 23  4  0
 13 20  4  0
 13 26  4  0
 14 19  4  0
 17 18  4  0
 17 24  4  0
 19 23  4  0
 20 24  4  0
 23 26  1  0
M  END
$$$$

 Created by Python create_sdf_string function

 26 30  0  0  0  0  0  0  0  0999 V2000
   10.0084   -1.8019   23.4945 C   0  0  0  0  0  0  0  0  0  0  0  0
   10.0005   -4.2520   16.5631 C   0  0  0  0  0  0  0  0  0  0  0  0
   10.2759   -4.0036   17.8845 C   0  0  0  0  0  0  0  0  0  0  0  0
    8.5652    1.5478   25.3778 N   0  0  0  0  0  0  0  0  0  0  0  0
    6.8048   -7.5457   17.8752 C   0  0  0  0  0  0  0  0  0  0  0  0
    6.1721   -8.2186   15.9886 N   0  0  0  0  0  0  0  0  0  0  0  0
   11.1764   -2.6600   19.5604 C   0  0  0  0  0  0  0  0  0  0  0  0
    9.5491   -0.6380   24.1912 C   0  0  0  0  0  0  0  0  0  0  0  0
    7.5337   -6.9256   16.9519 C   0  0  0  0  0  0  0  0  0  0  0  0
    9.6782    0.5671   23.5143 C   0  0  0  0  0  0  0  0  0  0  0  0
    8.4532    0.3482   26.0821 C   0  0  0  0  0  0  0  0  0  0  0  0
   10.4239   -1.7677   22.2230 N   0  0  0  0  0  0  0  0  0  0  0  0
    9.9468   -4.5953   20.1709 C   0  0  0  0  0  0  0  0  0  0  0  0
   10.0366   -3.0590   23.9864 N   0  0  0  0  0  0  0  0  0  0  0  0
    7.1191   -7.3636   15.7739 C   0  0  0  0  0  0  0  0  0  0  0  0
    5.9612   -8.3203   17.2732 N   0  0  0  0  0  0  0  0  0  0  0  0
    8.5296   -5.9814   17.1841 C   0  0  0  0  0  0  0  0  0  0  0  0
    9.1527   -5.2118   16.2116 C   0  0  0  0  0  0  0  0  0  0  0  0
   10.3364   -3.8368   22.9255 O   0  0  0  0  0  0  0  0  0  0  0  0
    9.6947   -4.8407   18.8534 C   0  0  0  0  0  0  0  0  0  0  0  0
    9.1596    1.7042   24.1381 C   0  0  0  0  0  0  0  0  0  0  0  0
   11.0456   -2.9774   18.2694 N   0  0  0  0  0  0  0  0  0  0  0  0
   10.4788   -3.0457   21.8593 C   0  0  0  0  0  0  0  0  0  0  0  0
    8.8693   -5.8099   18.4657 N   0  0  0  0  0  0  0  0  0  0  0  0
    8.9892   -0.7926   25.4573 C   0  0  0  0  0  0  0  0  0  0  0  0
   10.5677   -3.4462   20.5323 C   0  0  0  0  0  0  0  0  0  0  0  0
  1  8  1  0
  1 12  4  0
  1 14  4  0
  2  3  4  0
  2 18  4  0
  3 20  4  0
  3 22  4  0
  4 11  4  0
  4 21  4  0
  5  9  4  0
  5 16  4  0
  6 15  4  0
  6 16  4  0
  7 22  4  0
  7 26  4  0
  8 10  4  0
  8 25  4  0
  9 15  4  0
  9 17  1  0
 10 21  4  0
 11 25  4  0
 12 23  4  0
 13 20  4  0
 13 26  4  0
 14 19  4  0
 17 18  4  0
 17 24  4  0
 19 23  4  0
 20 24  4  0
 23 26  1  0
M  END
$$$$

 Created by Python create_sdf_string function

 26 30  0  0  0  0  0  0  0  0999 V2000
   10.0084   -1.8019   23.4945 C   0  0  0  0  0  0  0  0  0  0  0  0
   10.0005   -4.2520   16.5631 C   0  0  0  0  0  0  0  0  0  0  0  0
   10.2759   -4.0036   17.8845 C   0  0  0  0  0  0  0  0  0  0  0  0
    8.5652    1.5478   25.3778 N   0  0  0  0  0  0  0  0  0  0  0  0
    6.8048   -7.5457   17.8752 C   0  0  0  0  0  0  0  0  0  0  0  0
    6.1721   -8.2186   15.9886 N   0  0  0  0  0  0  0  0  0  0  0  0
   11.1764   -2.6600   19.5604 C   0  0  0  0  0  0  0  0  0  0  0  0
    9.5491   -0.6380   24.1912 C   0  0  0  0  0  0  0  0  0  0  0  0
    7.5337   -6.9256   16.9519 C   0  0  0  0  0  0  0  0  0  0  0  0
    9.6782    0.5671   23.5143 C   0  0  0  0  0  0  0  0  0  0  0  0
    8.4532    0.3482   26.0821 C   0  0  0  0  0  0  0  0  0  0  0  0
   10.4239   -1.7677   22.2230 N   0  0  0  0  0  0  0  0  0  0  0  0
    9.9468   -4.5953   20.1709 C   0  0  0  0  0  0  0  0  0  0  0  0
   10.0366   -3.0590   23.9864 N   0  0  0  0  0  0  0  0  0  0  0  0
    7.1191   -7.3636   15.7739 C   0  0  0  0  0  0  0  0  0  0  0  0
    5.9612   -8.3203   17.2732 N   0  0  0  0  0  0  0  0  0  0  0  0
    8.5296   -5.9814   17.1841 C   0  0  0  0  0  0  0  0  0  0  0  0
    9.1527   -5.2118   16.2116 C   0  0  0  0  0  0  0  0  0  0  0  0
   10.3364   -3.8368   22.9255 O   0  0  0  0  0  0  0  0  0  0  0  0
    9.6947   -4.8407   18.8534 C   0  0  0  0  0  0  0  0  0  0  0  0
    9.1596    1.7042   24.1381 C   0  0  0  0  0  0  0  0  0  0  0  0
   11.0456   -2.9774   18.2694 N   0  0  0  0  0  0  0  0  0  0  0  0
   10.4788   -3.0457   21.8593 C   0  0  0  0  0  0  0  0  0  0  0  0
    8.8693   -5.8099   18.4657 N   0  0  0  0  0  0  0  0  0  0  0  0
    8.9892   -0.7926   25.4573 C   0  0  0  0  0  0  0  0  0  0  0  0
   10.5677   -3.4462   20.5323 C   0  0  0  0  0  0  0  0  0  0  0  0
  1  8  1  0
  1 12  4  0
  1 14  4  0
  2  3  4  0
  2 18  4  0
  3 20  4  0
  3 22  4  0
  4 11  4  0
  4 21  4  0
  5  9  4  0
  5 16  4  0
  6 15  4  0
  6 16  4  0
  7 22  4  0
  7 26  4  0
  8 10  4  0
  8 25  4  0
  9 15  4  0
  9 17  1  0
 10 21  4  0
 11 25  4  0
 12 23  4  0
 13 20  4  0
 13 26  4  0
 14 19  4  0
 17 18  4  0
 17 24  4  0
 19 23  4  0
 20 24  4  0
 23 26  1  0
M  END
$$$$

 Created by Python create_sdf_string function

 26 30  0  0  0  0  0  0  0  0999 V2000
   10.0084   -1.8019   23.4945 C   0  0  0  0  0  0  0  0  0  0  0  0
   10.0005   -4.2520   16.5631 C   0  0  0  0  0  0  0  0  0  0  0  0
   10.2759   -4.0036   17.8845 C   0  0  0  0  0  0  0  0  0  0  0  0
    8.5652    1.5478   25.3778 N   0  0  0  0  0  0  0  0  0  0  0  0
    6.8048   -7.5457   17.8752 C   0  0  0  0  0  0  0  0  0  0  0  0
    6.1721   -8.2186   15.9886 N   0  0  0  0  0  0  0  0  0  0  0  0
   11.1764   -2.6600   19.5604 C   0  0  0  0  0  0  0  0  0  0  0  0
    9.5491   -0.6380   24.1912 C   0  0  0  0  0  0  0  0  0  0  0  0
    7.5337   -6.9256   16.9519 C   0  0  0  0  0  0  0  0  0  0  0  0
    9.6782    0.5671   23.5143 C   0  0  0  0  0  0  0  0  0  0  0  0
    8.4532    0.3482   26.0821 C   0  0  0  0  0  0  0  0  0  0  0  0
   10.4239   -1.7677   22.2230 N   0  0  0  0  0  0  0  0  0  0  0  0
    9.9468   -4.5953   20.1709 C   0  0  0  0  0  0  0  0  0  0  0  0
   10.0366   -3.0590   23.9864 N   0  0  0  0  0  0  0  0  0  0  0  0
    7.1191   -7.3636   15.7739 C   0  0  0  0  0  0  0  0  0  0  0  0
    5.9612   -8.3203   17.2732 N   0  0  0  0  0  0  0  0  0  0  0  0
    8.5296   -5.9814   17.1841 C   0  0  0  0  0  0  0  0  0  0  0  0
    9.1527   -5.2118   16.2116 C   0  0  0  0  0  0  0  0  0  0  0  0
   10.3364   -3.8368   22.9255 O   0  0  0  0  0  0  0  0  0  0  0  0
    9.6947   -4.8407   18.8534 C   0  0  0  0  0  0  0  0  0  0  0  0
    9.1596    1.7042   24.1381 C   0  0  0  0  0  0  0  0  0  0  0  0
   11.0456   -2.9774   18.2694 N   0  0  0  0  0  0  0  0  0  0  0  0
   10.4788   -3.0457   21.8593 C   0  0  0  0  0  0  0  0  0  0  0  0
    8.8693   -5.8099   18.4657 N   0  0  0  0  0  0  0  0  0  0  0  0
    8.9892   -0.7926   25.4573 C   0  0  0  0  0  0  0  0  0  0  0  0
   10.5677   -3.4462   20.5323 C   0  0  0  0  0  0  0  0  0  0  0  0
  1  8  1  0
  1 12  4  0
  1 14  4  0
  2  3  4  0
  2 18  4  0
  3 20  4  0
  3 22  4  0
  4 11  4  0
  4 21  4  0
  5  9  4  0
  5 16  4  0
  6 15  4  0
  6 16  4  0
  7 22  4  0
  7 26  4  0
  8 10  4  0
  8 25  4  0
  9 15  4  0
  9 17  1  0
 10 21  4  0
 11 25  4  0
 12 23  4  0
 13 20  4  0
 13 26  4  0
 14 19  4  0
 17 18  4  0
 17 24  4  0
 19 23  4  0
 20 24  4  0
 23 26  1  0
M  END
$$$$

 Created by Python create_sdf_string function

 26 30  0  0  0  0  0  0  0  0999 V2000
   10.0084   -1.8019   23.4945 C   0  0  0  0  0  0  0  0  0  0  0  0
   10.0005   -4.2520   16.5631 C   0  0  0  0  0  0  0  0  0  0  0  0
   10.2759   -4.0036   17.8845 C   0  0  0  0  0  0  0  0  0  0  0  0
    8.5652    1.5478   25.3778 N   0  0  0  0  0  0  0  0  0  0  0  0
    6.8048   -7.5457   17.8752 C   0  0  0  0  0  0  0  0  0  0  0  0
    6.1721   -8.2186   15.9886 N   0  0  0  0  0  0  0  0  0  0  0  0
   11.1764   -2.6600   19.5604 C   0  0  0  0  0  0  0  0  0  0  0  0
    9.5491   -0.6380   24.1912 C   0  0  0  0  0  0  0  0  0  0  0  0
    7.5337   -6.9256   16.9519 C   0  0  0  0  0  0  0  0  0  0  0  0
    9.6782    0.5671   23.5143 C   0  0  0  0  0  0  0  0  0  0  0  0
    8.4532    0.3482   26.0821 C   0  0  0  0  0  0  0  0  0  0  0  0
   10.4239   -1.7677   22.2230 N   0  0  0  0  0  0  0  0  0  0  0  0
    9.9468   -4.5953   20.1709 C   0  0  0  0  0  0  0  0  0  0  0  0
   10.0366   -3.0590   23.9864 N   0  0  0  0  0  0  0  0  0  0  0  0
    7.1191   -7.3636   15.7739 C   0  0  0  0  0  0  0  0  0  0  0  0
    5.9612   -8.3203   17.2732 N   0  0  0  0  0  0  0  0  0  0  0  0
    8.5296   -5.9814   17.1841 C   0  0  0  0  0  0  0  0  0  0  0  0
    9.1527   -5.2118   16.2116 C   0  0  0  0  0  0  0  0  0  0  0  0
   10.3364   -3.8368   22.9255 O   0  0  0  0  0  0  0  0  0  0  0  0
    9.6947   -4.8407   18.8534 C   0  0  0  0  0  0  0  0  0  0  0  0
    9.1596    1.7042   24.1381 C   0  0  0  0  0  0  0  0  0  0  0  0
   11.0456   -2.9774   18.2694 N   0  0  0  0  0  0  0  0  0  0  0  0
   10.4788   -3.0457   21.8593 C   0  0  0  0  0  0  0  0  0  0  0  0
    8.8693   -5.8099   18.4657 N   0  0  0  0  0  0  0  0  0  0  0  0
    8.9892   -0.7926   25.4573 C   0  0  0  0  0  0  0  0  0  0  0  0
   10.5677   -3.4462   20.5323 C   0  0  0  0  0  0  0  0  0  0  0  0
  1  8  1  0
  1 12  4  0
  1 14  4  0
  2  3  4  0
  2 18  4  0
  3 20  4  0
  3 22  4  0
  4 11  4  0
  4 21  4  0
  5  9  4  0
  5 16  4  0
  6 15  4  0
  6 16  4  0
  7 22  4  0
  7 26  4  0
  8 10  4  0
  8 25  4  0
  9 15  4  0
  9 17  1  0
 10 21  4  0
 11 25  4  0
 12 23  4  0
 13 20  4  0
 13 26  4  0
 14 19  4  0
 17 18  4  0
 17 24  4  0
 19 23  4  0
 20 24  4  0
 23 26  1  0
M  END
$$$$

 Created by Python create_sdf_string function

 26 30  0  0  0  0  0  0  0  0999 V2000
   10.0084   -1.8019   23.4945 C   0  0  0  0  0  0  0  0  0  0  0  0
   10.0005   -4.2520   16.5631 C   0  0  0  0  0  0  0  0  0  0  0  0
   10.2759   -4.0036   17.8845 C   0  0  0  0  0  0  0  0  0  0  0  0
    8.5652    1.5478   25.3778 N   0  0  0  0  0  0  0  0  0  0  0  0
    6.8048   -7.5457   17.8752 C   0  0  0  0  0  0  0  0  0  0  0  0
    6.1721   -8.2186   15.9886 N   0  0  0  0  0  0  0  0  0  0  0  0
   11.1764   -2.6600   19.5604 C   0  0  0  0  0  0  0  0  0  0  0  0
    9.5491   -0.6380   24.1912 C   0  0  0  0  0  0  0  0  0  0  0  0
    7.5337   -6.9256   16.9519 C   0  0  0  0  0  0  0  0  0  0  0  0
    9.6782    0.5671   23.5143 C   0  0  0  0  0  0  0  0  0  0  0  0
    8.4532    0.3482   26.0821 C   0  0  0  0  0  0  0  0  0  0  0  0
   10.4239   -1.7677   22.2230 N   0  0  0  0  0  0  0  0  0  0  0  0
    9.9468   -4.5953   20.1709 C   0  0  0  0  0  0  0  0  0  0  0  0
   10.0366   -3.0590   23.9864 N   0  0  0  0  0  0  0  0  0  0  0  0
    7.1191   -7.3636   15.7739 C   0  0  0  0  0  0  0  0  0  0  0  0
    5.9612   -8.3203   17.2732 N   0  0  0  0  0  0  0  0  0  0  0  0
    8.5296   -5.9814   17.1841 C   0  0  0  0  0  0  0  0  0  0  0  0
    9.1527   -5.2118   16.2116 C   0  0  0  0  0  0  0  0  0  0  0  0
   10.3364   -3.8368   22.9255 O   0  0  0  0  0  0  0  0  0  0  0  0
    9.6947   -4.8407   18.8534 C   0  0  0  0  0  0  0  0  0  0  0  0
    9.1596    1.7042   24.1381 C   0  0  0  0  0  0  0  0  0  0  0  0
   11.0456   -2.9774   18.2694 N   0  0  0  0  0  0  0  0  0  0  0  0
   10.4788   -3.0457   21.8593 C   0  0  0  0  0  0  0  0  0  0  0  0
    8.8693   -5.8099   18.4657 N   0  0  0  0  0  0  0  0  0  0  0  0
    8.9892   -0.7926   25.4573 C   0  0  0  0  0  0  0  0  0  0  0  0
   10.5677   -3.4462   20.5323 C   0  0  0  0  0  0  0  0  0  0  0  0
  1  8  1  0
  1 12  4  0
  1 14  4  0
  2  3  4  0
  2 18  4  0
  3 20  4  0
  3 22  4  0
  4 11  4  0
  4 21  4  0
  5  9  4  0
  5 16  4  0
  6 15  4  0
  6 16  4  0
  7 22  4  0
  7 26  4  0
  8 10  4  0
  8 25  4  0
  9 15  4  0
  9 17  1  0
 10 21  4  0
 11 25  4  0
 12 23  4  0
 13 20  4  0
 13 26  4  0
 14 19  4  0
 17 18  4  0
 17 24  4  0
 19 23  4  0
 20 24  4  0
 23 26  1  0
M  END
$$$$

 Created by Python create_sdf_string function

 26 30  0  0  0  0  0  0  0  0999 V2000
   10.0084   -1.8019   23.4945 C   0  0  0  0  0  0  0  0  0  0  0  0
   10.0005   -4.2520   16.5631 C   0  0  0  0  0  0  0  0  0  0  0  0
   10.2759   -4.0036   17.8845 C   0  0  0  0  0  0  0  0  0  0  0  0
    8.5652    1.5478   25.3778 N   0  0  0  0  0  0  0  0  0  0  0  0
    6.8048   -7.5457   17.8752 C   0  0  0  0  0  0  0  0  0  0  0  0
    6.1721   -8.2186   15.9886 N   0  0  0  0  0  0  0  0  0  0  0  0
   11.1764   -2.6600   19.5604 C   0  0  0  0  0  0  0  0  0  0  0  0
    9.5491   -0.6380   24.1912 C   0  0  0  0  0  0  0  0  0  0  0  0
    7.5337   -6.9256   16.9519 C   0  0  0  0  0  0  0  0  0  0  0  0
    9.6782    0.5671   23.5143 C   0  0  0  0  0  0  0  0  0  0  0  0
    8.4532    0.3482   26.0821 C   0  0  0  0  0  0  0  0  0  0  0  0
   10.4239   -1.7677   22.2230 N   0  0  0  0  0  0  0  0  0  0  0  0
    9.9468   -4.5953   20.1709 C   0  0  0  0  0  0  0  0  0  0  0  0
   10.0366   -3.0590   23.9864 N   0  0  0  0  0  0  0  0  0  0  0  0
    7.1191   -7.3636   15.7739 C   0  0  0  0  0  0  0  0  0  0  0  0
    5.9612   -8.3203   17.2732 N   0  0  0  0  0  0  0  0  0  0  0  0
    8.5296   -5.9814   17.1841 C   0  0  0  0  0  0  0  0  0  0  0  0
    9.1527   -5.2118   16.2116 C   0  0  0  0  0  0  0  0  0  0  0  0
   10.3364   -3.8368   22.9255 O   0  0  0  0  0  0  0  0  0  0  0  0
    9.6947   -4.8407   18.8534 C   0  0  0  0  0  0  0  0  0  0  0  0
    9.1596    1.7042   24.1381 C   0  0  0  0  0  0  0  0  0  0  0  0
   11.0456   -2.9774   18.2694 N   0  0  0  0  0  0  0  0  0  0  0  0
   10.4788   -3.0457   21.8593 C   0  0  0  0  0  0  0  0  0  0  0  0
    8.8693   -5.8099   18.4657 N   0  0  0  0  0  0  0  0  0  0  0  0
    8.9892   -0.7926   25.4573 C   0  0  0  0  0  0  0  0  0  0  0  0
   10.5677   -3.4462   20.5323 C   0  0  0  0  0  0  0  0  0  0  0  0
  1  8  1  0
  1 12  4  0
  1 14  4  0
  2  3  4  0
  2 18  4  0
  3 20  4  0
  3 22  4  0
  4 11  4  0
  4 21  4  0
  5  9  4  0
  5 16  4  0
  6 15  4  0
  6 16  4  0
  7 22  4  0
  7 26  4  0
  8 10  4  0
  8 25  4  0
  9 15  4  0
  9 17  1  0
 10 21  4  0
 11 25  4  0
 12 23  4  0
 13 20  4  0
 13 26  4  0
 14 19  4  0
 17 18  4  0
 17 24  4  0
 19 23  4  0
 20 24  4  0
 23 26  1  0
M  END
$$$$

 Created by Python create_sdf_string function

 26 30  0  0  0  0  0  0  0  0999 V2000
   10.0084   -1.8019   23.4945 C   0  0  0  0  0  0  0  0  0  0  0  0
   10.0005   -4.2520   16.5631 C   0  0  0  0  0  0  0  0  0  0  0  0
   10.2759   -4.0036   17.8845 C   0  0  0  0  0  0  0  0  0  0  0  0
    8.5652    1.5478   25.3778 N   0  0  0  0  0  0  0  0  0  0  0  0
    6.8048   -7.5457   17.8752 C   0  0  0  0  0  0  0  0  0  0  0  0
    6.1721   -8.2186   15.9886 N   0  0  0  0  0  0  0  0  0  0  0  0
   11.1764   -2.6600   19.5604 C   0  0  0  0  0  0  0  0  0  0  0  0
    9.5491   -0.6380   24.1912 C   0  0  0  0  0  0  0  0  0  0  0  0
    7.5337   -6.9256   16.9519 C   0  0  0  0  0  0  0  0  0  0  0  0
    9.6782    0.5671   23.5143 C   0  0  0  0  0  0  0  0  0  0  0  0
    8.4532    0.3482   26.0821 C   0  0  0  0  0  0  0  0  0  0  0  0
   10.4239   -1.7677   22.2230 N   0  0  0  0  0  0  0  0  0  0  0  0
    9.9468   -4.5953   20.1709 C   0  0  0  0  0  0  0  0  0  0  0  0
   10.0366   -3.0590   23.9864 N   0  0  0  0  0  0  0  0  0  0  0  0
    7.1191   -7.3636   15.7739 C   0  0  0  0  0  0  0  0  0  0  0  0
    5.9612   -8.3203   17.2732 N   0  0  0  0  0  0  0  0  0  0  0  0
    8.5296   -5.9814   17.1841 C   0  0  0  0  0  0  0  0  0  0  0  0
    9.1527   -5.2118   16.2116 C   0  0  0  0  0  0  0  0  0  0  0  0
   10.3364   -3.8368   22.9255 O   0  0  0  0  0  0  0  0  0  0  0  0
    9.6947   -4.8407   18.8534 C   0  0  0  0  0  0  0  0  0  0  0  0
    9.1596    1.7042   24.1381 C   0  0  0  0  0  0  0  0  0  0  0  0
   11.0456   -2.9774   18.2694 N   0  0  0  0  0  0  0  0  0  0  0  0
   10.4788   -3.0457   21.8593 C   0  0  0  0  0  0  0  0  0  0  0  0
    8.8693   -5.8099   18.4657 N   0  0  0  0  0  0  0  0  0  0  0  0
    8.9892   -0.7926   25.4573 C   0  0  0  0  0  0  0  0  0  0  0  0
   10.5677   -3.4462   20.5323 C   0  0  0  0  0  0  0  0  0  0  0  0
  1  8  1  0
  1 12  4  0
  1 14  4  0
  2  3  4  0
  2 18  4  0
  3 20  4  0
  3 22  4  0
  4 11  4  0
  4 21  4  0
  5  9  4  0
  5 16  4  0
  6 15  4  0
  6 16  4  0
  7 22  4  0
  7 26  4  0
  8 10  4  0
  8 25  4  0
  9 15  4  0
  9 17  1  0
 10 21  4  0
 11 25  4  0
 12 23  4  0
 13 20  4  0
 13 26  4  0
 14 19  4  0
 17 18  4  0
 17 24  4  0
 19 23  4  0
 20 24  4  0
 23 26  1  0
M  END
$$$$

 Created by Python create_sdf_string function

 26 30  0  0  0  0  0  0  0  0999 V2000
   10.0084   -1.8019   23.4945 C   0  0  0  0  0  0  0  0  0  0  0  0
   10.0005   -4.2520   16.5631 C   0  0  0  0  0  0  0  0  0  0  0  0
   10.2759   -4.0036   17.8845 C   0  0  0  0  0  0  0  0  0  0  0  0
    8.5652    1.5478   25.3778 N   0  0  0  0  0  0  0  0  0  0  0  0
    6.8048   -7.5457   17.8752 C   0  0  0  0  0  0  0  0  0  0  0  0
    6.1721   -8.2186   15.9886 N   0  0  0  0  0  0  0  0  0  0  0  0
   11.1764   -2.6600   19.5604 C   0  0  0  0  0  0  0  0  0  0  0  0
    9.5491   -0.6380   24.1912 C   0  0  0  0  0  0  0  0  0  0  0  0
    7.5337   -6.9256   16.9519 C   0  0  0  0  0  0  0  0  0  0  0  0
    9.6782    0.5671   23.5143 C   0  0  0  0  0  0  0  0  0  0  0  0
    8.4532    0.3482   26.0821 C   0  0  0  0  0  0  0  0  0  0  0  0
   10.4239   -1.7677   22.2230 N   0  0  0  0  0  0  0  0  0  0  0  0
    9.9468   -4.5953   20.1709 C   0  0  0  0  0  0  0  0  0  0  0  0
   10.0366   -3.0590   23.9864 N   0  0  0  0  0  0  0  0  0  0  0  0
    7.1191   -7.3636   15.7739 C   0  0  0  0  0  0  0  0  0  0  0  0
    5.9612   -8.3203   17.2732 N   0  0  0  0  0  0  0  0  0  0  0  0
    8.5296   -5.9814   17.1841 C   0  0  0  0  0  0  0  0  0  0  0  0
    9.1527   -5.2118   16.2116 C   0  0  0  0  0  0  0  0  0  0  0  0
   10.3364   -3.8368   22.9255 O   0  0  0  0  0  0  0  0  0  0  0  0
    9.6947   -4.8407   18.8534 C   0  0  0  0  0  0  0  0  0  0  0  0
    9.1596    1.7042   24.1381 C   0  0  0  0  0  0  0  0  0  0  0  0
   11.0456   -2.9774   18.2694 N   0  0  0  0  0  0  0  0  0  0  0  0
   10.4788   -3.0457   21.8593 C   0  0  0  0  0  0  0  0  0  0  0  0
    8.8693   -5.8099   18.4657 N   0  0  0  0  0  0  0  0  0  0  0  0
    8.9892   -0.7926   25.4573 C   0  0  0  0  0  0  0  0  0  0  0  0
   10.5677   -3.4462   20.5323 C   0  0  0  0  0  0  0  0  0  0  0  0
  1  8  1  0
  1 12  4  0
  1 14  4  0
  2  3  4  0
  2 18  4  0
  3 20  4  0
  3 22  4  0
  4 11  4  0
  4 21  4  0
  5  9  4  0
  5 16  4  0
  6 15  4  0
  6 16  4  0
  7 22  4  0
  7 26  4  0
  8 10  4  0
  8 25  4  0
  9 15  4  0
  9 17  1  0
 10 21  4  0
 11 25  4  0
 12 23  4  0
 13 20  4  0
 13 26  4  0
 14 19  4  0
 17 18  4  0
 17 24  4  0
 19 23  4  0
 20 24  4  0
 23 26  1  0
M  END
$$$$

 Created by Python create_sdf_string function

 26 30  0  0  0  0  0  0  0  0999 V2000
   10.0084   -1.8019   23.4945 C   0  0  0  0  0  0  0  0  0  0  0  0
   10.0005   -4.2520   16.5631 C   0  0  0  0  0  0  0  0  0  0  0  0
   10.2759   -4.0036   17.8845 C   0  0  0  0  0  0  0  0  0  0  0  0
    8.5652    1.5478   25.3778 N   0  0  0  0  0  0  0  0  0  0  0  0
    6.8048   -7.5457   17.8752 C   0  0  0  0  0  0  0  0  0  0  0  0
    6.1721   -8.2186   15.9886 N   0  0  0  0  0  0  0  0  0  0  0  0
   11.1764   -2.6600   19.5604 C   0  0  0  0  0  0  0  0  0  0  0  0
    9.5491   -0.6380   24.1912 C   0  0  0  0  0  0  0  0  0  0  0  0
    7.5337   -6.9256   16.9519 C   0  0  0  0  0  0  0  0  0  0  0  0
    9.6782    0.5671   23.5143 C   0  0  0  0  0  0  0  0  0  0  0  0
    8.4532    0.3482   26.0821 C   0  0  0  0  0  0  0  0  0  0  0  0
   10.4239   -1.7677   22.2230 N   0  0  0  0  0  0  0  0  0  0  0  0
    9.9468   -4.5953   20.1709 C   0  0  0  0  0  0  0  0  0  0  0  0
   10.0366   -3.0590   23.9864 N   0  0  0  0  0  0  0  0  0  0  0  0
    7.1191   -7.3636   15.7739 C   0  0  0  0  0  0  0  0  0  0  0  0
    5.9612   -8.3203   17.2732 N   0  0  0  0  0  0  0  0  0  0  0  0
    8.5296   -5.9814   17.1841 C   0  0  0  0  0  0  0  0  0  0  0  0
    9.1527   -5.2118   16.2116 C   0  0  0  0  0  0  0  0  0  0  0  0
   10.3364   -3.8368   22.9255 O   0  0  0  0  0  0  0  0  0  0  0  0
    9.6947   -4.8407   18.8534 C   0  0  0  0  0  0  0  0  0  0  0  0
    9.1596    1.7042   24.1381 C   0  0  0  0  0  0  0  0  0  0  0  0
   11.0456   -2.9774   18.2694 N   0  0  0  0  0  0  0  0  0  0  0  0
   10.4788   -3.0457   21.8593 C   0  0  0  0  0  0  0  0  0  0  0  0
    8.8693   -5.8099   18.4657 N   0  0  0  0  0  0  0  0  0  0  0  0
    8.9892   -0.7926   25.4573 C   0  0  0  0  0  0  0  0  0  0  0  0
   10.5677   -3.4462   20.5323 C   0  0  0  0  0  0  0  0  0  0  0  0
  1  8  1  0
  1 12  4  0
  1 14  4  0
  2  3  4  0
  2 18  4  0
  3 20  4  0
  3 22  4  0
  4 11  4  0
  4 21  4  0
  5  9  4  0
  5 16  4  0
  6 15  4  0
  6 16  4  0
  7 22  4  0
  7 26  4  0
  8 10  4  0
  8 25  4  0
  9 15  4  0
  9 17  1  0
 10 21  4  0
 11 25  4  0
 12 23  4  0
 13 20  4  0
 13 26  4  0
 14 19  4  0
 17 18  4  0
 17 24  4  0
 19 23  4  0
 20 24  4  0
 23 26  1  0
M  END
$$$$

 Created by Python create_sdf_string function

 26 30  0  0  0  0  0  0  0  0999 V2000
   10.0084   -1.8019   23.4945 C   0  0  0  0  0  0  0  0  0  0  0  0
   10.0005   -4.2520   16.5631 C   0  0  0  0  0  0  0  0  0  0  0  0
   10.2759   -4.0036   17.8845 C   0  0  0  0  0  0  0  0  0  0  0  0
    8.5652    1.5478   25.3778 N   0  0  0  0  0  0  0  0  0  0  0  0
    6.8048   -7.5457   17.8752 C   0  0  0  0  0  0  0  0  0  0  0  0
    6.1721   -8.2186   15.9886 N   0  0  0  0  0  0  0  0  0  0  0  0
   11.1764   -2.6600   19.5604 C   0  0  0  0  0  0  0  0  0  0  0  0
    9.5491   -0.6380   24.1912 C   0  0  0  0  0  0  0  0  0  0  0  0
    7.5337   -6.9256   16.9519 C   0  0  0  0  0  0  0  0  0  0  0  0
    9.6782    0.5671   23.5143 C   0  0  0  0  0  0  0  0  0  0  0  0
    8.4532    0.3482   26.0821 C   0  0  0  0  0  0  0  0  0  0  0  0
   10.4239   -1.7677   22.2230 N   0  0  0  0  0  0  0  0  0  0  0  0
    9.9468   -4.5953   20.1709 C   0  0  0  0  0  0  0  0  0  0  0  0
   10.0366   -3.0590   23.9864 N   0  0  0  0  0  0  0  0  0  0  0  0
    7.1191   -7.3636   15.7739 C   0  0  0  0  0  0  0  0  0  0  0  0
    5.9612   -8.3203   17.2732 N   0  0  0  0  0  0  0  0  0  0  0  0
    8.5296   -5.9814   17.1841 C   0  0  0  0  0  0  0  0  0  0  0  0
    9.1527   -5.2118   16.2116 C   0  0  0  0  0  0  0  0  0  0  0  0
   10.3364   -3.8368   22.9255 O   0  0  0  0  0  0  0  0  0  0  0  0
    9.6947   -4.8407   18.8534 C   0  0  0  0  0  0  0  0  0  0  0  0
    9.1596    1.7042   24.1381 C   0  0  0  0  0  0  0  0  0  0  0  0
   11.0456   -2.9774   18.2694 N   0  0  0  0  0  0  0  0  0  0  0  0
   10.4788   -3.0457   21.8593 C   0  0  0  0  0  0  0  0  0  0  0  0
    8.8693   -5.8099   18.4657 N   0  0  0  0  0  0  0  0  0  0  0  0
    8.9892   -0.7926   25.4573 C   0  0  0  0  0  0  0  0  0  0  0  0
   10.5677   -3.4462   20.5323 C   0  0  0  0  0  0  0  0  0  0  0  0
  1  8  1  0
  1 12  4  0
  1 14  4  0
  2  3  4  0
  2 18  4  0
  3 20  4  0
  3 22  4  0
  4 11  4  0
  4 21  4  0
  5  9  4  0
  5 16  4  0
  6 15  4  0
  6 16  4  0
  7 22  4  0
  7 26  4  0
  8 10  4  0
  8 25  4  0
  9 15  4  0
  9 17  1  0
 10 21  4  0
 11 25  4  0
 12 23  4  0
 13 20  4  0
 13 26  4  0
 14 19  4  0
 17 18  4  0
 17 24  4  0
 19 23  4  0
 20 24  4  0
 23 26  1  0
M  END
$$$$

 Created by Python create_sdf_string function

 26 30  0  0  0  0  0  0  0  0999 V2000
   10.0084   -1.8019   23.4945 C   0  0  0  0  0  0  0  0  0  0  0  0
   10.0005   -4.2520   16.5631 C   0  0  0  0  0  0  0  0  0  0  0  0
   10.2759   -4.0036   17.8845 C   0  0  0  0  0  0  0  0  0  0  0  0
    8.5652    1.5478   25.3778 N   0  0  0  0  0  0  0  0  0  0  0  0
    6.8048   -7.5457   17.8752 C   0  0  0  0  0  0  0  0  0  0  0  0
    6.1721   -8.2186   15.9886 N   0  0  0  0  0  0  0  0  0  0  0  0
   11.1764   -2.6600   19.5604 C   0  0  0  0  0  0  0  0  0  0  0  0
    9.5491   -0.6380   24.1912 C   0  0  0  0  0  0  0  0  0  0  0  0
    7.5337   -6.9256   16.9519 C   0  0  0  0  0  0  0  0  0  0  0  0
    9.6782    0.5671   23.5143 C   0  0  0  0  0  0  0  0  0  0  0  0
    8.4532    0.3482   26.0821 C   0  0  0  0  0  0  0  0  0  0  0  0
   10.4239   -1.7677   22.2230 N   0  0  0  0  0  0  0  0  0  0  0  0
    9.9468   -4.5953   20.1709 C   0  0  0  0  0  0  0  0  0  0  0  0
   10.0366   -3.0590   23.9864 N   0  0  0  0  0  0  0  0  0  0  0  0
    7.1191   -7.3636   15.7739 C   0  0  0  0  0  0  0  0  0  0  0  0
    5.9612   -8.3203   17.2732 N   0  0  0  0  0  0  0  0  0  0  0  0
    8.5296   -5.9814   17.1841 C   0  0  0  0  0  0  0  0  0  0  0  0
    9.1527   -5.2118   16.2116 C   0  0  0  0  0  0  0  0  0  0  0  0
   10.3364   -3.8368   22.9255 O   0  0  0  0  0  0  0  0  0  0  0  0
    9.6947   -4.8407   18.8534 C   0  0  0  0  0  0  0  0  0  0  0  0
    9.1596    1.7042   24.1381 C   0  0  0  0  0  0  0  0  0  0  0  0
   11.0456   -2.9774   18.2694 N   0  0  0  0  0  0  0  0  0  0  0  0
   10.4788   -3.0457   21.8593 C   0  0  0  0  0  0  0  0  0  0  0  0
    8.8693   -5.8099   18.4657 N   0  0  0  0  0  0  0  0  0  0  0  0
    8.9892   -0.7926   25.4573 C   0  0  0  0  0  0  0  0  0  0  0  0
   10.5677   -3.4462   20.5323 C   0  0  0  0  0  0  0  0  0  0  0  0
  1  8  1  0
  1 12  4  0
  1 14  4  0
  2  3  4  0
  2 18  4  0
  3 20  4  0
  3 22  4  0
  4 11  4  0
  4 21  4  0
  5  9  4  0
  5 16  4  0
  6 15  4  0
  6 16  4  0
  7 22  4  0
  7 26  4  0
  8 10  4  0
  8 25  4  0
  9 15  4  0
  9 17  1  0
 10 21  4  0
 11 25  4  0
 12 23  4  0
 13 20  4  0
 13 26  4  0
 14 19  4  0
 17 18  4  0
 17 24  4  0
 19 23  4  0
 20 24  4  0
 23 26  1  0
M  END
$$$$

 Created by Python create_sdf_string function

 26 30  0  0  0  0  0  0  0  0999 V2000
   10.0084   -1.8019   23.4945 C   0  0  0  0  0  0  0  0  0  0  0  0
   10.0005   -4.2520   16.5631 C   0  0  0  0  0  0  0  0  0  0  0  0
   10.2759   -4.0036   17.8845 C   0  0  0  0  0  0  0  0  0  0  0  0
    8.5652    1.5478   25.3778 N   0  0  0  0  0  0  0  0  0  0  0  0
    6.8048   -7.5457   17.8752 C   0  0  0  0  0  0  0  0  0  0  0  0
    6.1721   -8.2186   15.9886 N   0  0  0  0  0  0  0  0  0  0  0  0
   11.1764   -2.6600   19.5604 C   0  0  0  0  0  0  0  0  0  0  0  0
    9.5491   -0.6380   24.1912 C   0  0  0  0  0  0  0  0  0  0  0  0
    7.5337   -6.9256   16.9519 C   0  0  0  0  0  0  0  0  0  0  0  0
    9.6782    0.5671   23.5143 C   0  0  0  0  0  0  0  0  0  0  0  0
    8.4532    0.3482   26.0821 C   0  0  0  0  0  0  0  0  0  0  0  0
   10.4239   -1.7677   22.2230 N   0  0  0  0  0  0  0  0  0  0  0  0
    9.9468   -4.5953   20.1709 C   0  0  0  0  0  0  0  0  0  0  0  0
   10.0366   -3.0590   23.9864 N   0  0  0  0  0  0  0  0  0  0  0  0
    7.1191   -7.3636   15.7739 C   0  0  0  0  0  0  0  0  0  0  0  0
    5.9612   -8.3203   17.2732 N   0  0  0  0  0  0  0  0  0  0  0  0
    8.5296   -5.9814   17.1841 C   0  0  0  0  0  0  0  0  0  0  0  0
    9.1527   -5.2118   16.2116 C   0  0  0  0  0  0  0  0  0  0  0  0
   10.3364   -3.8368   22.9255 O   0  0  0  0  0  0  0  0  0  0  0  0
    9.6947   -4.8407   18.8534 C   0  0  0  0  0  0  0  0  0  0  0  0
    9.1596    1.7042   24.1381 C   0  0  0  0  0  0  0  0  0  0  0  0
   11.0456   -2.9774   18.2694 N   0  0  0  0  0  0  0  0  0  0  0  0
   10.4788   -3.0457   21.8593 C   0  0  0  0  0  0  0  0  0  0  0  0
    8.8693   -5.8099   18.4657 N   0  0  0  0  0  0  0  0  0  0  0  0
    8.9892   -0.7926   25.4573 C   0  0  0  0  0  0  0  0  0  0  0  0
   10.5677   -3.4462   20.5323 C   0  0  0  0  0  0  0  0  0  0  0  0
  1  8  1  0
  1 12  4  0
  1 14  4  0
  2  3  4  0
  2 18  4  0
  3 20  4  0
  3 22  4  0
  4 11  4  0
  4 21  4  0
  5  9  4  0
  5 16  4  0
  6 15  4  0
  6 16  4  0
  7 22  4  0
  7 26  4  0
  8 10  4  0
  8 25  4  0
  9 15  4  0
  9 17  1  0
 10 21  4  0
 11 25  4  0
 12 23  4  0
 13 20  4  0
 13 26  4  0
 14 19  4  0
 17 18  4  0
 17 24  4  0
 19 23  4  0
 20 24  4  0
 23 26  1  0
M  END
$$$$

 Created by Python create_sdf_string function

 26 30  0  0  0  0  0  0  0  0999 V2000
   10.0084   -1.8019   23.4945 C   0  0  0  0  0  0  0  0  0  0  0  0
   10.0005   -4.2520   16.5631 C   0  0  0  0  0  0  0  0  0  0  0  0
   10.2759   -4.0036   17.8845 C   0  0  0  0  0  0  0  0  0  0  0  0
    8.5652    1.5478   25.3778 N   0  0  0  0  0  0  0  0  0  0  0  0
    6.8048   -7.5457   17.8752 C   0  0  0  0  0  0  0  0  0  0  0  0
    6.1721   -8.2186   15.9886 N   0  0  0  0  0  0  0  0  0  0  0  0
   11.1764   -2.6600   19.5604 C   0  0  0  0  0  0  0  0  0  0  0  0
    9.5491   -0.6380   24.1912 C   0  0  0  0  0  0  0  0  0  0  0  0
    7.5337   -6.9256   16.9519 C   0  0  0  0  0  0  0  0  0  0  0  0
    9.6782    0.5671   23.5143 C   0  0  0  0  0  0  0  0  0  0  0  0
    8.4532    0.3482   26.0821 C   0  0  0  0  0  0  0  0  0  0  0  0
   10.4239   -1.7677   22.2230 N   0  0  0  0  0  0  0  0  0  0  0  0
    9.9468   -4.5953   20.1709 C   0  0  0  0  0  0  0  0  0  0  0  0
   10.0366   -3.0590   23.9864 N   0  0  0  0  0  0  0  0  0  0  0  0
    7.1191   -7.3636   15.7739 C   0  0  0  0  0  0  0  0  0  0  0  0
    5.9612   -8.3203   17.2732 N   0  0  0  0  0  0  0  0  0  0  0  0
    8.5296   -5.9814   17.1841 C   0  0  0  0  0  0  0  0  0  0  0  0
    9.1527   -5.2118   16.2116 C   0  0  0  0  0  0  0  0  0  0  0  0
   10.3364   -3.8368   22.9255 O   0  0  0  0  0  0  0  0  0  0  0  0
    9.6947   -4.8407   18.8534 C   0  0  0  0  0  0  0  0  0  0  0  0
    9.1596    1.7042   24.1381 C   0  0  0  0  0  0  0  0  0  0  0  0
   11.0456   -2.9774   18.2694 N   0  0  0  0  0  0  0  0  0  0  0  0
   10.4788   -3.0457   21.8593 C   0  0  0  0  0  0  0  0  0  0  0  0
    8.8693   -5.8099   18.4657 N   0  0  0  0  0  0  0  0  0  0  0  0
    8.9892   -0.7926   25.4573 C   0  0  0  0  0  0  0  0  0  0  0  0
   10.5677   -3.4462   20.5323 C   0  0  0  0  0  0  0  0  0  0  0  0
  1  8  1  0
  1 12  4  0
  1 14  4  0
  2  3  4  0
  2 18  4  0
  3 20  4  0
  3 22  4  0
  4 11  4  0
  4 21  4  0
  5  9  4  0
  5 16  4  0
  6 15  4  0
  6 16  4  0
  7 22  4  0
  7 26  4  0
  8 10  4  0
  8 25  4  0
  9 15  4  0
  9 17  1  0
 10 21  4  0
 11 25  4  0
 12 23  4  0
 13 20  4  0
 13 26  4  0
 14 19  4  0
 17 18  4  0
 17 24  4  0
 19 23  4  0
 20 24  4  0
 23 26  1  0
M  END
$$$$

 Created by Python create_sdf_string function

 26 30  0  0  0  0  0  0  0  0999 V2000
   10.0084   -1.8019   23.4945 C   0  0  0  0  0  0  0  0  0  0  0  0
   10.0005   -4.2520   16.5631 C   0  0  0  0  0  0  0  0  0  0  0  0
   10.2759   -4.0036   17.8845 C   0  0  0  0  0  0  0  0  0  0  0  0
    8.5652    1.5478   25.3778 N   0  0  0  0  0  0  0  0  0  0  0  0
    6.8048   -7.5457   17.8752 C   0  0  0  0  0  0  0  0  0  0  0  0
    6.1721   -8.2186   15.9886 N   0  0  0  0  0  0  0  0  0  0  0  0
   11.1764   -2.6600   19.5604 C   0  0  0  0  0  0  0  0  0  0  0  0
    9.5491   -0.6380   24.1912 C   0  0  0  0  0  0  0  0  0  0  0  0
    7.5337   -6.9256   16.9519 C   0  0  0  0  0  0  0  0  0  0  0  0
    9.6782    0.5671   23.5143 C   0  0  0  0  0  0  0  0  0  0  0  0
    8.4532    0.3482   26.0821 C   0  0  0  0  0  0  0  0  0  0  0  0
   10.4239   -1.7677   22.2230 N   0  0  0  0  0  0  0  0  0  0  0  0
    9.9468   -4.5953   20.1709 C   0  0  0  0  0  0  0  0  0  0  0  0
   10.0366   -3.0590   23.9864 N   0  0  0  0  0  0  0  0  0  0  0  0
    7.1191   -7.3636   15.7739 C   0  0  0  0  0  0  0  0  0  0  0  0
    5.9612   -8.3203   17.2732 N   0  0  0  0  0  0  0  0  0  0  0  0
    8.5296   -5.9814   17.1841 C   0  0  0  0  0  0  0  0  0  0  0  0
    9.1527   -5.2118   16.2116 C   0  0  0  0  0  0  0  0  0  0  0  0
   10.3364   -3.8368   22.9255 O   0  0  0  0  0  0  0  0  0  0  0  0
    9.6947   -4.8407   18.8534 C   0  0  0  0  0  0  0  0  0  0  0  0
    9.1596    1.7042   24.1381 C   0  0  0  0  0  0  0  0  0  0  0  0
   11.0456   -2.9774   18.2694 N   0  0  0  0  0  0  0  0  0  0  0  0
   10.4788   -3.0457   21.8593 C   0  0  0  0  0  0  0  0  0  0  0  0
    8.8693   -5.8099   18.4657 N   0  0  0  0  0  0  0  0  0  0  0  0
    8.9892   -0.7926   25.4573 C   0  0  0  0  0  0  0  0  0  0  0  0
   10.5677   -3.4462   20.5323 C   0  0  0  0  0  0  0  0  0  0  0  0
  1  8  1  0
  1 12  4  0
  1 14  4  0
  2  3  4  0
  2 18  4  0
  3 20  4  0
  3 22  4  0
  4 11  4  0
  4 21  4  0
  5  9  4  0
  5 16  4  0
  6 15  4  0
  6 16  4  0
  7 22  4  0
  7 26  4  0
  8 10  4  0
  8 25  4  0
  9 15  4  0
  9 17  1  0
 10 21  4  0
 11 25  4  0
 12 23  4  0
 13 20  4  0
 13 26  4  0
 14 19  4  0
 17 18  4  0
 17 24  4  0
 19 23  4  0
 20 24  4  0
 23 26  1  0
M  END
$$$$

 Created by Python create_sdf_string function

 26 30  0  0  0  0  0  0  0  0999 V2000
   10.0084   -1.8019   23.4945 C   0  0  0  0  0  0  0  0  0  0  0  0
   10.0005   -4.2520   16.5631 C   0  0  0  0  0  0  0  0  0  0  0  0
   10.2759   -4.0036   17.8845 C   0  0  0  0  0  0  0  0  0  0  0  0
    8.5652    1.5478   25.3778 N   0  0  0  0  0  0  0  0  0  0  0  0
    6.8048   -7.5457   17.8752 C   0  0  0  0  0  0  0  0  0  0  0  0
    6.1721   -8.2186   15.9886 N   0  0  0  0  0  0  0  0  0  0  0  0
   11.1764   -2.6600   19.5604 C   0  0  0  0  0  0  0  0  0  0  0  0
    9.5491   -0.6380   24.1912 C   0  0  0  0  0  0  0  0  0  0  0  0
    7.5337   -6.9256   16.9519 C   0  0  0  0  0  0  0  0  0  0  0  0
    9.6782    0.5671   23.5143 C   0  0  0  0  0  0  0  0  0  0  0  0
    8.4532    0.3482   26.0821 C   0  0  0  0  0  0  0  0  0  0  0  0
   10.4239   -1.7677   22.2230 N   0  0  0  0  0  0  0  0  0  0  0  0
    9.9468   -4.5953   20.1709 C   0  0  0  0  0  0  0  0  0  0  0  0
   10.0366   -3.0590   23.9864 N   0  0  0  0  0  0  0  0  0  0  0  0
    7.1191   -7.3636   15.7739 C   0  0  0  0  0  0  0  0  0  0  0  0
    5.9612   -8.3203   17.2732 N   0  0  0  0  0  0  0  0  0  0  0  0
    8.5296   -5.9814   17.1841 C   0  0  0  0  0  0  0  0  0  0  0  0
    9.1527   -5.2118   16.2116 C   0  0  0  0  0  0  0  0  0  0  0  0
   10.3364   -3.8368   22.9255 O   0  0  0  0  0  0  0  0  0  0  0  0
    9.6947   -4.8407   18.8534 C   0  0  0  0  0  0  0  0  0  0  0  0
    9.1596    1.7042   24.1381 C   0  0  0  0  0  0  0  0  0  0  0  0
   11.0456   -2.9774   18.2694 N   0  0  0  0  0  0  0  0  0  0  0  0
   10.4788   -3.0457   21.8593 C   0  0  0  0  0  0  0  0  0  0  0  0
    8.8693   -5.8099   18.4657 N   0  0  0  0  0  0  0  0  0  0  0  0
    8.9892   -0.7926   25.4573 C   0  0  0  0  0  0  0  0  0  0  0  0
   10.5677   -3.4462   20.5323 C   0  0  0  0  0  0  0  0  0  0  0  0
  1  8  1  0
  1 12  4  0
  1 14  4  0
  2  3  4  0
  2 18  4  0
  3 20  4  0
  3 22  4  0
  4 11  4  0
  4 21  4  0
  5  9  4  0
  5 16  4  0
  6 15  4  0
  6 16  4  0
  7 22  4  0
  7 26  4  0
  8 10  4  0
  8 25  4  0
  9 15  4  0
  9 17  1  0
 10 21  4  0
 11 25  4  0
 12 23  4  0
 13 20  4  0
 13 26  4  0
 14 19  4  0
 17 18  4  0
 17 24  4  0
 19 23  4  0
 20 24  4  0
 23 26  1  0
M  END
$$$$

 Created by Python create_sdf_string function

 26 30  0  0  0  0  0  0  0  0999 V2000
   10.0084   -1.8019   23.4945 C   0  0  0  0  0  0  0  0  0  0  0  0
   10.0005   -4.2520   16.5631 C   0  0  0  0  0  0  0  0  0  0  0  0
   10.2759   -4.0036   17.8845 C   0  0  0  0  0  0  0  0  0  0  0  0
    8.5652    1.5478   25.3778 N   0  0  0  0  0  0  0  0  0  0  0  0
    6.8048   -7.5457   17.8752 C   0  0  0  0  0  0  0  0  0  0  0  0
    6.1721   -8.2186   15.9886 N   0  0  0  0  0  0  0  0  0  0  0  0
   11.1764   -2.6600   19.5604 C   0  0  0  0  0  0  0  0  0  0  0  0
    9.5491   -0.6380   24.1912 C   0  0  0  0  0  0  0  0  0  0  0  0
    7.5337   -6.9256   16.9519 C   0  0  0  0  0  0  0  0  0  0  0  0
    9.6782    0.5671   23.5143 C   0  0  0  0  0  0  0  0  0  0  0  0
    8.4532    0.3482   26.0821 C   0  0  0  0  0  0  0  0  0  0  0  0
   10.4239   -1.7677   22.2230 N   0  0  0  0  0  0  0  0  0  0  0  0
    9.9468   -4.5953   20.1709 C   0  0  0  0  0  0  0  0  0  0  0  0
   10.0366   -3.0590   23.9864 N   0  0  0  0  0  0  0  0  0  0  0  0
    7.1191   -7.3636   15.7739 C   0  0  0  0  0  0  0  0  0  0  0  0
    5.9612   -8.3203   17.2732 N   0  0  0  0  0  0  0  0  0  0  0  0
    8.5296   -5.9814   17.1841 C   0  0  0  0  0  0  0  0  0  0  0  0
    9.1527   -5.2118   16.2116 C   0  0  0  0  0  0  0  0  0  0  0  0
   10.3364   -3.8368   22.9255 O   0  0  0  0  0  0  0  0  0  0  0  0
    9.6947   -4.8407   18.8534 C   0  0  0  0  0  0  0  0  0  0  0  0
    9.1596    1.7042   24.1381 C   0  0  0  0  0  0  0  0  0  0  0  0
   11.0456   -2.9774   18.2694 N   0  0  0  0  0  0  0  0  0  0  0  0
   10.4788   -3.0457   21.8593 C   0  0  0  0  0  0  0  0  0  0  0  0
    8.8693   -5.8099   18.4657 N   0  0  0  0  0  0  0  0  0  0  0  0
    8.9892   -0.7926   25.4573 C   0  0  0  0  0  0  0  0  0  0  0  0
   10.5677   -3.4462   20.5323 C   0  0  0  0  0  0  0  0  0  0  0  0
  1  8  1  0
  1 12  4  0
  1 14  4  0
  2  3  4  0
  2 18  4  0
  3 20  4  0
  3 22  4  0
  4 11  4  0
  4 21  4  0
  5  9  4  0
  5 16  4  0
  6 15  4  0
  6 16  4  0
  7 22  4  0
  7 26  4  0
  8 10  4  0
  8 25  4  0
  9 15  4  0
  9 17  1  0
 10 21  4  0
 11 25  4  0
 12 23  4  0
 13 20  4  0
 13 26  4  0
 14 19  4  0
 17 18  4  0
 17 24  4  0
 19 23  4  0
 20 24  4  0
 23 26  1  0
M  END
$$$$

 Created by Python create_sdf_string function

 26 30  0  0  0  0  0  0  0  0999 V2000
   10.0084   -1.8019   23.4945 C   0  0  0  0  0  0  0  0  0  0  0  0
   10.0005   -4.2520   16.5631 C   0  0  0  0  0  0  0  0  0  0  0  0
   10.2759   -4.0036   17.8845 C   0  0  0  0  0  0  0  0  0  0  0  0
    8.5652    1.5478   25.3778 N   0  0  0  0  0  0  0  0  0  0  0  0
    6.8048   -7.5457   17.8752 C   0  0  0  0  0  0  0  0  0  0  0  0
    6.1721   -8.2186   15.9886 N   0  0  0  0  0  0  0  0  0  0  0  0
   11.1764   -2.6600   19.5604 C   0  0  0  0  0  0  0  0  0  0  0  0
    9.5491   -0.6380   24.1912 C   0  0  0  0  0  0  0  0  0  0  0  0
    7.5337   -6.9256   16.9519 C   0  0  0  0  0  0  0  0  0  0  0  0
    9.6782    0.5671   23.5143 C   0  0  0  0  0  0  0  0  0  0  0  0
    8.4532    0.3482   26.0821 C   0  0  0  0  0  0  0  0  0  0  0  0
   10.4239   -1.7677   22.2230 N   0  0  0  0  0  0  0  0  0  0  0  0
    9.9468   -4.5953   20.1709 C   0  0  0  0  0  0  0  0  0  0  0  0
   10.0366   -3.0590   23.9864 N   0  0  0  0  0  0  0  0  0  0  0  0
    7.1191   -7.3636   15.7739 C   0  0  0  0  0  0  0  0  0  0  0  0
    5.9612   -8.3203   17.2732 N   0  0  0  0  0  0  0  0  0  0  0  0
    8.5296   -5.9814   17.1841 C   0  0  0  0  0  0  0  0  0  0  0  0
    9.1527   -5.2118   16.2116 C   0  0  0  0  0  0  0  0  0  0  0  0
   10.3364   -3.8368   22.9255 O   0  0  0  0  0  0  0  0  0  0  0  0
    9.6947   -4.8407   18.8534 C   0  0  0  0  0  0  0  0  0  0  0  0
    9.1596    1.7042   24.1381 C   0  0  0  0  0  0  0  0  0  0  0  0
   11.0456   -2.9774   18.2694 N   0  0  0  0  0  0  0  0  0  0  0  0
   10.4788   -3.0457   21.8593 C   0  0  0  0  0  0  0  0  0  0  0  0
    8.8693   -5.8099   18.4657 N   0  0  0  0  0  0  0  0  0  0  0  0
    8.9892   -0.7926   25.4573 C   0  0  0  0  0  0  0  0  0  0  0  0
   10.5677   -3.4462   20.5323 C   0  0  0  0  0  0  0  0  0  0  0  0
  1  8  1  0
  1 12  4  0
  1 14  4  0
  2  3  4  0
  2 18  4  0
  3 20  4  0
  3 22  4  0
  4 11  4  0
  4 21  4  0
  5  9  4  0
  5 16  4  0
  6 15  4  0
  6 16  4  0
  7 22  4  0
  7 26  4  0
  8 10  4  0
  8 25  4  0
  9 15  4  0
  9 17  1  0
 10 21  4  0
 11 25  4  0
 12 23  4  0
 13 20  4  0
 13 26  4  0
 14 19  4  0
 17 18  4  0
 17 24  4  0
 19 23  4  0
 20 24  4  0
 23 26  1  0
M  END
$$$$

 Created by Python create_sdf_string function

 26 30  0  0  0  0  0  0  0  0999 V2000
   10.0084   -1.8019   23.4945 C   0  0  0  0  0  0  0  0  0  0  0  0
   10.0005   -4.2520   16.5631 C   0  0  0  0  0  0  0  0  0  0  0  0
   10.2759   -4.0036   17.8845 C   0  0  0  0  0  0  0  0  0  0  0  0
    8.5652    1.5478   25.3778 N   0  0  0  0  0  0  0  0  0  0  0  0
    6.8048   -7.5457   17.8752 C   0  0  0  0  0  0  0  0  0  0  0  0
    6.1721   -8.2186   15.9886 N   0  0  0  0  0  0  0  0  0  0  0  0
   11.1764   -2.6600   19.5604 C   0  0  0  0  0  0  0  0  0  0  0  0
    9.5491   -0.6380   24.1912 C   0  0  0  0  0  0  0  0  0  0  0  0
    7.5337   -6.9256   16.9519 C   0  0  0  0  0  0  0  0  0  0  0  0
    9.6782    0.5671   23.5143 C   0  0  0  0  0  0  0  0  0  0  0  0
    8.4532    0.3482   26.0821 C   0  0  0  0  0  0  0  0  0  0  0  0
   10.4239   -1.7677   22.2230 N   0  0  0  0  0  0  0  0  0  0  0  0
    9.9468   -4.5953   20.1709 C   0  0  0  0  0  0  0  0  0  0  0  0
   10.0366   -3.0590   23.9864 N   0  0  0  0  0  0  0  0  0  0  0  0
    7.1191   -7.3636   15.7739 C   0  0  0  0  0  0  0  0  0  0  0  0
    5.9612   -8.3203   17.2732 N   0  0  0  0  0  0  0  0  0  0  0  0
    8.5296   -5.9814   17.1841 C   0  0  0  0  0  0  0  0  0  0  0  0
    9.1527   -5.2118   16.2116 C   0  0  0  0  0  0  0  0  0  0  0  0
   10.3364   -3.8368   22.9255 O   0  0  0  0  0  0  0  0  0  0  0  0
    9.6947   -4.8407   18.8534 C   0  0  0  0  0  0  0  0  0  0  0  0
    9.1596    1.7042   24.1381 C   0  0  0  0  0  0  0  0  0  0  0  0
   11.0456   -2.9774   18.2694 N   0  0  0  0  0  0  0  0  0  0  0  0
   10.4788   -3.0457   21.8593 C   0  0  0  0  0  0  0  0  0  0  0  0
    8.8693   -5.8099   18.4657 N   0  0  0  0  0  0  0  0  0  0  0  0
    8.9892   -0.7926   25.4573 C   0  0  0  0  0  0  0  0  0  0  0  0
   10.5677   -3.4462   20.5323 C   0  0  0  0  0  0  0  0  0  0  0  0
  1  8  1  0
  1 12  4  0
  1 14  4  0
  2  3  4  0
  2 18  4  0
  3 20  4  0
  3 22  4  0
  4 11  4  0
  4 21  4  0
  5  9  4  0
  5 16  4  0
  6 15  4  0
  6 16  4  0
  7 22  4  0
  7 26  4  0
  8 10  4  0
  8 25  4  0
  9 15  4  0
  9 17  1  0
 10 21  4  0
 11 25  4  0
 12 23  4  0
 13 20  4  0
 13 26  4  0
 14 19  4  0
 17 18  4  0
 17 24  4  0
 19 23  4  0
 20 24  4  0
 23 26  1  0
M  END
$$$$

 Created by Python create_sdf_string function

 26 30  0  0  0  0  0  0  0  0999 V2000
   10.0084   -1.8019   23.4945 C   0  0  0  0  0  0  0  0  0  0  0  0
   10.0005   -4.2520   16.5631 C   0  0  0  0  0  0  0  0  0  0  0  0
   10.2759   -4.0036   17.8845 C   0  0  0  0  0  0  0  0  0  0  0  0
    8.5652    1.5478   25.3778 N   0  0  0  0  0  0  0  0  0  0  0  0
    6.8048   -7.5457   17.8752 C   0  0  0  0  0  0  0  0  0  0  0  0
    6.1721   -8.2186   15.9886 N   0  0  0  0  0  0  0  0  0  0  0  0
   11.1764   -2.6600   19.5604 C   0  0  0  0  0  0  0  0  0  0  0  0
    9.5491   -0.6380   24.1912 C   0  0  0  0  0  0  0  0  0  0  0  0
    7.5337   -6.9256   16.9519 C   0  0  0  0  0  0  0  0  0  0  0  0
    9.6782    0.5671   23.5143 C   0  0  0  0  0  0  0  0  0  0  0  0
    8.4532    0.3482   26.0821 C   0  0  0  0  0  0  0  0  0  0  0  0
   10.4239   -1.7677   22.2230 N   0  0  0  0  0  0  0  0  0  0  0  0
    9.9468   -4.5953   20.1709 C   0  0  0  0  0  0  0  0  0  0  0  0
   10.0366   -3.0590   23.9864 N   0  0  0  0  0  0  0  0  0  0  0  0
    7.1191   -7.3636   15.7739 C   0  0  0  0  0  0  0  0  0  0  0  0
    5.9612   -8.3203   17.2732 N   0  0  0  0  0  0  0  0  0  0  0  0
    8.5296   -5.9814   17.1841 C   0  0  0  0  0  0  0  0  0  0  0  0
    9.1527   -5.2118   16.2116 C   0  0  0  0  0  0  0  0  0  0  0  0
   10.3364   -3.8368   22.9255 O   0  0  0  0  0  0  0  0  0  0  0  0
    9.6947   -4.8407   18.8534 C   0  0  0  0  0  0  0  0  0  0  0  0
    9.1596    1.7042   24.1381 C   0  0  0  0  0  0  0  0  0  0  0  0
   11.0456   -2.9774   18.2694 N   0  0  0  0  0  0  0  0  0  0  0  0
   10.4788   -3.0457   21.8593 C   0  0  0  0  0  0  0  0  0  0  0  0
    8.8693   -5.8099   18.4657 N   0  0  0  0  0  0  0  0  0  0  0  0
    8.9892   -0.7926   25.4573 C   0  0  0  0  0  0  0  0  0  0  0  0
   10.5677   -3.4462   20.5323 C   0  0  0  0  0  0  0  0  0  0  0  0
  1  8  1  0
  1 12  4  0
  1 14  4  0
  2  3  4  0
  2 18  4  0
  3 20  4  0
  3 22  4  0
  4 11  4  0
  4 21  4  0
  5  9  4  0
  5 16  4  0
  6 15  4  0
  6 16  4  0
  7 22  4  0
  7 26  4  0
  8 10  4  0
  8 25  4  0
  9 15  4  0
  9 17  1  0
 10 21  4  0
 11 25  4  0
 12 23  4  0
 13 20  4  0
 13 26  4  0
 14 19  4  0
 17 18  4  0
 17 24  4  0
 19 23  4  0
 20 24  4  0
 23 26  1  0
M  END
$$$$

 Created by Python create_sdf_string function

 26 30  0  0  0  0  0  0  0  0999 V2000
   10.0084   -1.8019   23.4945 C   0  0  0  0  0  0  0  0  0  0  0  0
   10.0005   -4.2520   16.5631 C   0  0  0  0  0  0  0  0  0  0  0  0
   10.2759   -4.0036   17.8845 C   0  0  0  0  0  0  0  0  0  0  0  0
    8.5652    1.5478   25.3778 N   0  0  0  0  0  0  0  0  0  0  0  0
    6.8048   -7.5457   17.8752 C   0  0  0  0  0  0  0  0  0  0  0  0
    6.1721   -8.2186   15.9886 N   0  0  0  0  0  0  0  0  0  0  0  0
   11.1764   -2.6600   19.5604 C   0  0  0  0  0  0  0  0  0  0  0  0
    9.5491   -0.6380   24.1912 C   0  0  0  0  0  0  0  0  0  0  0  0
    7.5337   -6.9256   16.9519 C   0  0  0  0  0  0  0  0  0  0  0  0
    9.6782    0.5671   23.5143 C   0  0  0  0  0  0  0  0  0  0  0  0
    8.4532    0.3482   26.0821 C   0  0  0  0  0  0  0  0  0  0  0  0
   10.4239   -1.7677   22.2230 N   0  0  0  0  0  0  0  0  0  0  0  0
    9.9468   -4.5953   20.1709 C   0  0  0  0  0  0  0  0  0  0  0  0
   10.0366   -3.0590   23.9864 N   0  0  0  0  0  0  0  0  0  0  0  0
    7.1191   -7.3636   15.7739 C   0  0  0  0  0  0  0  0  0  0  0  0
    5.9612   -8.3203   17.2732 N   0  0  0  0  0  0  0  0  0  0  0  0
    8.5296   -5.9814   17.1841 C   0  0  0  0  0  0  0  0  0  0  0  0
    9.1527   -5.2118   16.2116 C   0  0  0  0  0  0  0  0  0  0  0  0
   10.3364   -3.8368   22.9255 O   0  0  0  0  0  0  0  0  0  0  0  0
    9.6947   -4.8407   18.8534 C   0  0  0  0  0  0  0  0  0  0  0  0
    9.1596    1.7042   24.1381 C   0  0  0  0  0  0  0  0  0  0  0  0
   11.0456   -2.9774   18.2694 N   0  0  0  0  0  0  0  0  0  0  0  0
   10.4788   -3.0457   21.8593 C   0  0  0  0  0  0  0  0  0  0  0  0
    8.8693   -5.8099   18.4657 N   0  0  0  0  0  0  0  0  0  0  0  0
    8.9892   -0.7926   25.4573 C   0  0  0  0  0  0  0  0  0  0  0  0
   10.5677   -3.4462   20.5323 C   0  0  0  0  0  0  0  0  0  0  0  0
  1  8  1  0
  1 12  4  0
  1 14  4  0
  2  3  4  0
  2 18  4  0
  3 20  4  0
  3 22  4  0
  4 11  4  0
  4 21  4  0
  5  9  4  0
  5 16  4  0
  6 15  4  0
  6 16  4  0
  7 22  4  0
  7 26  4  0
  8 10  4  0
  8 25  4  0
  9 15  4  0
  9 17  1  0
 10 21  4  0
 11 25  4  0
 12 23  4  0
 13 20  4  0
 13 26  4  0
 14 19  4  0
 17 18  4  0
 17 24  4  0
 19 23  4  0
 20 24  4  0
 23 26  1  0
M  END
$$$$

 Created by Python create_sdf_string function

 26 30  0  0  0  0  0  0  0  0999 V2000
   10.0084   -1.8019   23.4945 C   0  0  0  0  0  0  0  0  0  0  0  0
   10.0005   -4.2520   16.5631 C   0  0  0  0  0  0  0  0  0  0  0  0
   10.2759   -4.0036   17.8845 C   0  0  0  0  0  0  0  0  0  0  0  0
    8.5652    1.5478   25.3778 N   0  0  0  0  0  0  0  0  0  0  0  0
    6.8048   -7.5457   17.8752 C   0  0  0  0  0  0  0  0  0  0  0  0
    6.1721   -8.2186   15.9886 N   0  0  0  0  0  0  0  0  0  0  0  0
   11.1764   -2.6600   19.5604 C   0  0  0  0  0  0  0  0  0  0  0  0
    9.5491   -0.6380   24.1912 C   0  0  0  0  0  0  0  0  0  0  0  0
    7.5337   -6.9256   16.9519 C   0  0  0  0  0  0  0  0  0  0  0  0
    9.6782    0.5671   23.5143 C   0  0  0  0  0  0  0  0  0  0  0  0
    8.4532    0.3482   26.0821 C   0  0  0  0  0  0  0  0  0  0  0  0
   10.4239   -1.7677   22.2230 N   0  0  0  0  0  0  0  0  0  0  0  0
    9.9468   -4.5953   20.1709 C   0  0  0  0  0  0  0  0  0  0  0  0
   10.0366   -3.0590   23.9864 N   0  0  0  0  0  0  0  0  0  0  0  0
    7.1191   -7.3636   15.7739 C   0  0  0  0  0  0  0  0  0  0  0  0
    5.9612   -8.3203   17.2732 N   0  0  0  0  0  0  0  0  0  0  0  0
    8.5296   -5.9814   17.1841 C   0  0  0  0  0  0  0  0  0  0  0  0
    9.1527   -5.2118   16.2116 C   0  0  0  0  0  0  0  0  0  0  0  0
   10.3364   -3.8368   22.9255 O   0  0  0  0  0  0  0  0  0  0  0  0
    9.6947   -4.8407   18.8534 C   0  0  0  0  0  0  0  0  0  0  0  0
    9.1596    1.7042   24.1381 C   0  0  0  0  0  0  0  0  0  0  0  0
   11.0456   -2.9774   18.2694 N   0  0  0  0  0  0  0  0  0  0  0  0
   10.4788   -3.0457   21.8593 C   0  0  0  0  0  0  0  0  0  0  0  0
    8.8693   -5.8099   18.4657 N   0  0  0  0  0  0  0  0  0  0  0  0
    8.9892   -0.7926   25.4573 C   0  0  0  0  0  0  0  0  0  0  0  0
   10.5677   -3.4462   20.5323 C   0  0  0  0  0  0  0  0  0  0  0  0
  1  8  1  0
  1 12  4  0
  1 14  4  0
  2  3  4  0
  2 18  4  0
  3 20  4  0
  3 22  4  0
  4 11  4  0
  4 21  4  0
  5  9  4  0
  5 16  4  0
  6 15  4  0
  6 16  4  0
  7 22  4  0
  7 26  4  0
  8 10  4  0
  8 25  4  0
  9 15  4  0
  9 17  1  0
 10 21  4  0
 11 25  4  0
 12 23  4  0
 13 20  4  0
 13 26  4  0
 14 19  4  0
 17 18  4  0
 17 24  4  0
 19 23  4  0
 20 24  4  0
 23 26  1  0
M  END
$$$$

 Created by Python create_sdf_string function

 26 30  0  0  0  0  0  0  0  0999 V2000
   10.0084   -1.8019   23.4945 C   0  0  0  0  0  0  0  0  0  0  0  0
   10.0005   -4.2520   16.5631 C   0  0  0  0  0  0  0  0  0  0  0  0
   10.2759   -4.0036   17.8845 C   0  0  0  0  0  0  0  0  0  0  0  0
    8.5652    1.5478   25.3778 N   0  0  0  0  0  0  0  0  0  0  0  0
    6.8048   -7.5457   17.8752 C   0  0  0  0  0  0  0  0  0  0  0  0
    6.1721   -8.2186   15.9886 N   0  0  0  0  0  0  0  0  0  0  0  0
   11.1764   -2.6600   19.5604 C   0  0  0  0  0  0  0  0  0  0  0  0
    9.5491   -0.6380   24.1912 C   0  0  0  0  0  0  0  0  0  0  0  0
    7.5337   -6.9256   16.9519 C   0  0  0  0  0  0  0  0  0  0  0  0
    9.6782    0.5671   23.5143 C   0  0  0  0  0  0  0  0  0  0  0  0
    8.4532    0.3482   26.0821 C   0  0  0  0  0  0  0  0  0  0  0  0
   10.4239   -1.7677   22.2230 N   0  0  0  0  0  0  0  0  0  0  0  0
    9.9468   -4.5953   20.1709 C   0  0  0  0  0  0  0  0  0  0  0  0
   10.0366   -3.0590   23.9864 N   0  0  0  0  0  0  0  0  0  0  0  0
    7.1191   -7.3636   15.7739 C   0  0  0  0  0  0  0  0  0  0  0  0
    5.9612   -8.3203   17.2732 N   0  0  0  0  0  0  0  0  0  0  0  0
    8.5296   -5.9814   17.1841 C   0  0  0  0  0  0  0  0  0  0  0  0
    9.1527   -5.2118   16.2116 C   0  0  0  0  0  0  0  0  0  0  0  0
   10.3364   -3.8368   22.9255 O   0  0  0  0  0  0  0  0  0  0  0  0
    9.6947   -4.8407   18.8534 C   0  0  0  0  0  0  0  0  0  0  0  0
    9.1596    1.7042   24.1381 C   0  0  0  0  0  0  0  0  0  0  0  0
   11.0456   -2.9774   18.2694 N   0  0  0  0  0  0  0  0  0  0  0  0
   10.4788   -3.0457   21.8593 C   0  0  0  0  0  0  0  0  0  0  0  0
    8.8693   -5.8099   18.4657 N   0  0  0  0  0  0  0  0  0  0  0  0
    8.9892   -0.7926   25.4573 C   0  0  0  0  0  0  0  0  0  0  0  0
   10.5677   -3.4462   20.5323 C   0  0  0  0  0  0  0  0  0  0  0  0
  1  8  1  0
  1 12  4  0
  1 14  4  0
  2  3  4  0
  2 18  4  0
  3 20  4  0
  3 22  4  0
  4 11  4  0
  4 21  4  0
  5  9  4  0
  5 16  4  0
  6 15  4  0
  6 16  4  0
  7 22  4  0
  7 26  4  0
  8 10  4  0
  8 25  4  0
  9 15  4  0
  9 17  1  0
 10 21  4  0
 11 25  4  0
 12 23  4  0
 13 20  4  0
 13 26  4  0
 14 19  4  0
 17 18  4  0
 17 24  4  0
 19 23  4  0
 20 24  4  0
 23 26  1  0
M  END
$$$$

 Created by Python create_sdf_string function

 26 30  0  0  0  0  0  0  0  0999 V2000
   10.0084   -1.8019   23.4945 C   0  0  0  0  0  0  0  0  0  0  0  0
   10.0005   -4.2520   16.5631 C   0  0  0  0  0  0  0  0  0  0  0  0
   10.2759   -4.0036   17.8845 C   0  0  0  0  0  0  0  0  0  0  0  0
    8.5652    1.5478   25.3778 N   0  0  0  0  0  0  0  0  0  0  0  0
    6.8048   -7.5457   17.8752 C   0  0  0  0  0  0  0  0  0  0  0  0
    6.1721   -8.2186   15.9886 N   0  0  0  0  0  0  0  0  0  0  0  0
   11.1764   -2.6600   19.5604 C   0  0  0  0  0  0  0  0  0  0  0  0
    9.5491   -0.6380   24.1912 C   0  0  0  0  0  0  0  0  0  0  0  0
    7.5337   -6.9256   16.9519 C   0  0  0  0  0  0  0  0  0  0  0  0
    9.6782    0.5671   23.5143 C   0  0  0  0  0  0  0  0  0  0  0  0
    8.4532    0.3482   26.0821 C   0  0  0  0  0  0  0  0  0  0  0  0
   10.4239   -1.7677   22.2230 N   0  0  0  0  0  0  0  0  0  0  0  0
    9.9468   -4.5953   20.1709 C   0  0  0  0  0  0  0  0  0  0  0  0
   10.0366   -3.0590   23.9864 N   0  0  0  0  0  0  0  0  0  0  0  0
    7.1191   -7.3636   15.7739 C   0  0  0  0  0  0  0  0  0  0  0  0
    5.9612   -8.3203   17.2732 N   0  0  0  0  0  0  0  0  0  0  0  0
    8.5296   -5.9814   17.1841 C   0  0  0  0  0  0  0  0  0  0  0  0
    9.1527   -5.2118   16.2116 C   0  0  0  0  0  0  0  0  0  0  0  0
   10.3364   -3.8368   22.9255 O   0  0  0  0  0  0  0  0  0  0  0  0
    9.6947   -4.8407   18.8534 C   0  0  0  0  0  0  0  0  0  0  0  0
    9.1596    1.7042   24.1381 C   0  0  0  0  0  0  0  0  0  0  0  0
   11.0456   -2.9774   18.2694 N   0  0  0  0  0  0  0  0  0  0  0  0
   10.4788   -3.0457   21.8593 C   0  0  0  0  0  0  0  0  0  0  0  0
    8.8693   -5.8099   18.4657 N   0  0  0  0  0  0  0  0  0  0  0  0
    8.9892   -0.7926   25.4573 C   0  0  0  0  0  0  0  0  0  0  0  0
   10.5677   -3.4462   20.5323 C   0  0  0  0  0  0  0  0  0  0  0  0
  1  8  1  0
  1 12  4  0
  1 14  4  0
  2  3  4  0
  2 18  4  0
  3 20  4  0
  3 22  4  0
  4 11  4  0
  4 21  4  0
  5  9  4  0
  5 16  4  0
  6 15  4  0
  6 16  4  0
  7 22  4  0
  7 26  4  0
  8 10  4  0
  8 25  4  0
  9 15  4  0
  9 17  1  0
 10 21  4  0
 11 25  4  0
 12 23  4  0
 13 20  4  0
 13 26  4  0
 14 19  4  0
 17 18  4  0
 17 24  4  0
 19 23  4  0
 20 24  4  0
 23 26  1  0
M  END
$$$$

 Created by Python create_sdf_string function

 26 30  0  0  0  0  0  0  0  0999 V2000
   10.0084   -1.8019   23.4945 C   0  0  0  0  0  0  0  0  0  0  0  0
   10.0005   -4.2520   16.5631 C   0  0  0  0  0  0  0  0  0  0  0  0
   10.2759   -4.0036   17.8845 C   0  0  0  0  0  0  0  0  0  0  0  0
    8.5652    1.5478   25.3778 N   0  0  0  0  0  0  0  0  0  0  0  0
    6.8048   -7.5457   17.8752 C   0  0  0  0  0  0  0  0  0  0  0  0
    6.1721   -8.2186   15.9886 N   0  0  0  0  0  0  0  0  0  0  0  0
   11.1764   -2.6600   19.5604 C   0  0  0  0  0  0  0  0  0  0  0  0
    9.5491   -0.6380   24.1912 C   0  0  0  0  0  0  0  0  0  0  0  0
    7.5337   -6.9256   16.9519 C   0  0  0  0  0  0  0  0  0  0  0  0
    9.6782    0.5671   23.5143 C   0  0  0  0  0  0  0  0  0  0  0  0
    8.4532    0.3482   26.0821 C   0  0  0  0  0  0  0  0  0  0  0  0
   10.4239   -1.7677   22.2230 N   0  0  0  0  0  0  0  0  0  0  0  0
    9.9468   -4.5953   20.1709 C   0  0  0  0  0  0  0  0  0  0  0  0
   10.0366   -3.0590   23.9864 N   0  0  0  0  0  0  0  0  0  0  0  0
    7.1191   -7.3636   15.7739 C   0  0  0  0  0  0  0  0  0  0  0  0
    5.9612   -8.3203   17.2732 N   0  0  0  0  0  0  0  0  0  0  0  0
    8.5296   -5.9814   17.1841 C   0  0  0  0  0  0  0  0  0  0  0  0
    9.1527   -5.2118   16.2116 C   0  0  0  0  0  0  0  0  0  0  0  0
   10.3364   -3.8368   22.9255 O   0  0  0  0  0  0  0  0  0  0  0  0
    9.6947   -4.8407   18.8534 C   0  0  0  0  0  0  0  0  0  0  0  0
    9.1596    1.7042   24.1381 C   0  0  0  0  0  0  0  0  0  0  0  0
   11.0456   -2.9774   18.2694 N   0  0  0  0  0  0  0  0  0  0  0  0
   10.4788   -3.0457   21.8593 C   0  0  0  0  0  0  0  0  0  0  0  0
    8.8693   -5.8099   18.4657 N   0  0  0  0  0  0  0  0  0  0  0  0
    8.9892   -0.7926   25.4573 C   0  0  0  0  0  0  0  0  0  0  0  0
   10.5677   -3.4462   20.5323 C   0  0  0  0  0  0  0  0  0  0  0  0
  1  8  1  0
  1 12  4  0
  1 14  4  0
  2  3  4  0
  2 18  4  0
  3 20  4  0
  3 22  4  0
  4 11  4  0
  4 21  4  0
  5  9  4  0
  5 16  4  0
  6 15  4  0
  6 16  4  0
  7 22  4  0
  7 26  4  0
  8 10  4  0
  8 25  4  0
  9 15  4  0
  9 17  1  0
 10 21  4  0
 11 25  4  0
 12 23  4  0
 13 20  4  0
 13 26  4  0
 14 19  4  0
 17 18  4  0
 17 24  4  0
 19 23  4  0
 20 24  4  0
 23 26  1  0
M  END
$$$$

 Created by Python create_sdf_string function

 26 30  0  0  0  0  0  0  0  0999 V2000
   10.0084   -1.8019   23.4945 C   0  0  0  0  0  0  0  0  0  0  0  0
   10.0005   -4.2520   16.5631 C   0  0  0  0  0  0  0  0  0  0  0  0
   10.2759   -4.0036   17.8845 C   0  0  0  0  0  0  0  0  0  0  0  0
    8.5652    1.5478   25.3778 N   0  0  0  0  0  0  0  0  0  0  0  0
    6.8048   -7.5457   17.8752 C   0  0  0  0  0  0  0  0  0  0  0  0
    6.1721   -8.2186   15.9886 N   0  0  0  0  0  0  0  0  0  0  0  0
   11.1764   -2.6600   19.5604 C   0  0  0  0  0  0  0  0  0  0  0  0
    9.5491   -0.6380   24.1912 C   0  0  0  0  0  0  0  0  0  0  0  0
    7.5337   -6.9256   16.9519 C   0  0  0  0  0  0  0  0  0  0  0  0
    9.6782    0.5671   23.5143 C   0  0  0  0  0  0  0  0  0  0  0  0
    8.4532    0.3482   26.0821 C   0  0  0  0  0  0  0  0  0  0  0  0
   10.4239   -1.7677   22.2230 N   0  0  0  0  0  0  0  0  0  0  0  0
    9.9468   -4.5953   20.1709 C   0  0  0  0  0  0  0  0  0  0  0  0
   10.0366   -3.0590   23.9864 N   0  0  0  0  0  0  0  0  0  0  0  0
    7.1191   -7.3636   15.7739 C   0  0  0  0  0  0  0  0  0  0  0  0
    5.9612   -8.3203   17.2732 N   0  0  0  0  0  0  0  0  0  0  0  0
    8.5296   -5.9814   17.1841 C   0  0  0  0  0  0  0  0  0  0  0  0
    9.1527   -5.2118   16.2116 C   0  0  0  0  0  0  0  0  0  0  0  0
   10.3364   -3.8368   22.9255 O   0  0  0  0  0  0  0  0  0  0  0  0
    9.6947   -4.8407   18.8534 C   0  0  0  0  0  0  0  0  0  0  0  0
    9.1596    1.7042   24.1381 C   0  0  0  0  0  0  0  0  0  0  0  0
   11.0456   -2.9774   18.2694 N   0  0  0  0  0  0  0  0  0  0  0  0
   10.4788   -3.0457   21.8593 C   0  0  0  0  0  0  0  0  0  0  0  0
    8.8693   -5.8099   18.4657 N   0  0  0  0  0  0  0  0  0  0  0  0
    8.9892   -0.7926   25.4573 C   0  0  0  0  0  0  0  0  0  0  0  0
   10.5677   -3.4462   20.5323 C   0  0  0  0  0  0  0  0  0  0  0  0
  1  8  1  0
  1 12  4  0
  1 14  4  0
  2  3  4  0
  2 18  4  0
  3 20  4  0
  3 22  4  0
  4 11  4  0
  4 21  4  0
  5  9  4  0
  5 16  4  0
  6 15  4  0
  6 16  4  0
  7 22  4  0
  7 26  4  0
  8 10  4  0
  8 25  4  0
  9 15  4  0
  9 17  1  0
 10 21  4  0
 11 25  4  0
 12 23  4  0
 13 20  4  0
 13 26  4  0
 14 19  4  0
 17 18  4  0
 17 24  4  0
 19 23  4  0
 20 24  4  0
 23 26  1  0
M  END
$$$$

 Created by Python create_sdf_string function

 26 30  0  0  0  0  0  0  0  0999 V2000
   10.0084   -1.8019   23.4945 C   0  0  0  0  0  0  0  0  0  0  0  0
   10.0005   -4.2520   16.5631 C   0  0  0  0  0  0  0  0  0  0  0  0
   10.2759   -4.0036   17.8845 C   0  0  0  0  0  0  0  0  0  0  0  0
    8.5652    1.5478   25.3778 N   0  0  0  0  0  0  0  0  0  0  0  0
    6.8048   -7.5457   17.8752 C   0  0  0  0  0  0  0  0  0  0  0  0
    6.1721   -8.2186   15.9886 N   0  0  0  0  0  0  0  0  0  0  0  0
   11.1764   -2.6600   19.5604 C   0  0  0  0  0  0  0  0  0  0  0  0
    9.5491   -0.6380   24.1912 C   0  0  0  0  0  0  0  0  0  0  0  0
    7.5337   -6.9256   16.9519 C   0  0  0  0  0  0  0  0  0  0  0  0
    9.6782    0.5671   23.5143 C   0  0  0  0  0  0  0  0  0  0  0  0
    8.4532    0.3482   26.0821 C   0  0  0  0  0  0  0  0  0  0  0  0
   10.4239   -1.7677   22.2230 N   0  0  0  0  0  0  0  0  0  0  0  0
    9.9468   -4.5953   20.1709 C   0  0  0  0  0  0  0  0  0  0  0  0
   10.0366   -3.0590   23.9864 N   0  0  0  0  0  0  0  0  0  0  0  0
    7.1191   -7.3636   15.7739 C   0  0  0  0  0  0  0  0  0  0  0  0
    5.9612   -8.3203   17.2732 N   0  0  0  0  0  0  0  0  0  0  0  0
    8.5296   -5.9814   17.1841 C   0  0  0  0  0  0  0  0  0  0  0  0
    9.1527   -5.2118   16.2116 C   0  0  0  0  0  0  0  0  0  0  0  0
   10.3364   -3.8368   22.9255 O   0  0  0  0  0  0  0  0  0  0  0  0
    9.6947   -4.8407   18.8534 C   0  0  0  0  0  0  0  0  0  0  0  0
    9.1596    1.7042   24.1381 C   0  0  0  0  0  0  0  0  0  0  0  0
   11.0456   -2.9774   18.2694 N   0  0  0  0  0  0  0  0  0  0  0  0
   10.4788   -3.0457   21.8593 C   0  0  0  0  0  0  0  0  0  0  0  0
    8.8693   -5.8099   18.4657 N   0  0  0  0  0  0  0  0  0  0  0  0
    8.9892   -0.7926   25.4573 C   0  0  0  0  0  0  0  0  0  0  0  0
   10.5677   -3.4462   20.5323 C   0  0  0  0  0  0  0  0  0  0  0  0
  1  8  1  0
  1 12  4  0
  1 14  4  0
  2  3  4  0
  2 18  4  0
  3 20  4  0
  3 22  4  0
  4 11  4  0
  4 21  4  0
  5  9  4  0
  5 16  4  0
  6 15  4  0
  6 16  4  0
  7 22  4  0
  7 26  4  0
  8 10  4  0
  8 25  4  0
  9 15  4  0
  9 17  1  0
 10 21  4  0
 11 25  4  0
 12 23  4  0
 13 20  4  0
 13 26  4  0
 14 19  4  0
 17 18  4  0
 17 24  4  0
 19 23  4  0
 20 24  4  0
 23 26  1  0
M  END
$$$$

 Created by Python create_sdf_string function

 26 30  0  0  0  0  0  0  0  0999 V2000
   10.0084   -1.8019   23.4945 C   0  0  0  0  0  0  0  0  0  0  0  0
   10.0005   -4.2520   16.5631 C   0  0  0  0  0  0  0  0  0  0  0  0
   10.2759   -4.0036   17.8845 C   0  0  0  0  0  0  0  0  0  0  0  0
    8.5652    1.5478   25.3778 N   0  0  0  0  0  0  0  0  0  0  0  0
    6.8048   -7.5457   17.8752 C   0  0  0  0  0  0  0  0  0  0  0  0
    6.1721   -8.2186   15.9886 N   0  0  0  0  0  0  0  0  0  0  0  0
   11.1764   -2.6600   19.5604 C   0  0  0  0  0  0  0  0  0  0  0  0
    9.5491   -0.6380   24.1912 C   0  0  0  0  0  0  0  0  0  0  0  0
    7.5337   -6.9256   16.9519 C   0  0  0  0  0  0  0  0  0  0  0  0
    9.6782    0.5671   23.5143 C   0  0  0  0  0  0  0  0  0  0  0  0
    8.4532    0.3482   26.0821 C   0  0  0  0  0  0  0  0  0  0  0  0
   10.4239   -1.7677   22.2230 N   0  0  0  0  0  0  0  0  0  0  0  0
    9.9468   -4.5953   20.1709 C   0  0  0  0  0  0  0  0  0  0  0  0
   10.0366   -3.0590   23.9864 N   0  0  0  0  0  0  0  0  0  0  0  0
    7.1191   -7.3636   15.7739 C   0  0  0  0  0  0  0  0  0  0  0  0
    5.9612   -8.3203   17.2732 N   0  0  0  0  0  0  0  0  0  0  0  0
    8.5296   -5.9814   17.1841 C   0  0  0  0  0  0  0  0  0  0  0  0
    9.1527   -5.2118   16.2116 C   0  0  0  0  0  0  0  0  0  0  0  0
   10.3364   -3.8368   22.9255 O   0  0  0  0  0  0  0  0  0  0  0  0
    9.6947   -4.8407   18.8534 C   0  0  0  0  0  0  0  0  0  0  0  0
    9.1596    1.7042   24.1381 C   0  0  0  0  0  0  0  0  0  0  0  0
   11.0456   -2.9774   18.2694 N   0  0  0  0  0  0  0  0  0  0  0  0
   10.4788   -3.0457   21.8593 C   0  0  0  0  0  0  0  0  0  0  0  0
    8.8693   -5.8099   18.4657 N   0  0  0  0  0  0  0  0  0  0  0  0
    8.9892   -0.7926   25.4573 C   0  0  0  0  0  0  0  0  0  0  0  0
   10.5677   -3.4462   20.5323 C   0  0  0  0  0  0  0  0  0  0  0  0
  1  8  1  0
  1 12  4  0
  1 14  4  0
  2  3  4  0
  2 18  4  0
  3 20  4  0
  3 22  4  0
  4 11  4  0
  4 21  4  0
  5  9  4  0
  5 16  4  0
  6 15  4  0
  6 16  4  0
  7 22  4  0
  7 26  4  0
  8 10  4  0
  8 25  4  0
  9 15  4  0
  9 17  1  0
 10 21  4  0
 11 25  4  0
 12 23  4  0
 13 20  4  0
 13 26  4  0
 14 19  4  0
 17 18  4  0
 17 24  4  0
 19 23  4  0
 20 24  4  0
 23 26  1  0
M  END
$$$$

 Created by Python create_sdf_string function

 26 30  0  0  0  0  0  0  0  0999 V2000
   10.0084   -1.8019   23.4945 C   0  0  0  0  0  0  0  0  0  0  0  0
   10.0005   -4.2520   16.5631 C   0  0  0  0  0  0  0  0  0  0  0  0
   10.2759   -4.0036   17.8845 C   0  0  0  0  0  0  0  0  0  0  0  0
    8.5652    1.5478   25.3778 N   0  0  0  0  0  0  0  0  0  0  0  0
    6.8048   -7.5457   17.8752 C   0  0  0  0  0  0  0  0  0  0  0  0
    6.1721   -8.2186   15.9886 N   0  0  0  0  0  0  0  0  0  0  0  0
   11.1764   -2.6600   19.5604 C   0  0  0  0  0  0  0  0  0  0  0  0
    9.5491   -0.6380   24.1912 C   0  0  0  0  0  0  0  0  0  0  0  0
    7.5337   -6.9256   16.9519 C   0  0  0  0  0  0  0  0  0  0  0  0
    9.6782    0.5671   23.5143 C   0  0  0  0  0  0  0  0  0  0  0  0
    8.4532    0.3482   26.0821 C   0  0  0  0  0  0  0  0  0  0  0  0
   10.4239   -1.7677   22.2230 N   0  0  0  0  0  0  0  0  0  0  0  0
    9.9468   -4.5953   20.1709 C   0  0  0  0  0  0  0  0  0  0  0  0
   10.0366   -3.0590   23.9864 N   0  0  0  0  0  0  0  0  0  0  0  0
    7.1191   -7.3636   15.7739 C   0  0  0  0  0  0  0  0  0  0  0  0
    5.9612   -8.3203   17.2732 N   0  0  0  0  0  0  0  0  0  0  0  0
    8.5296   -5.9814   17.1841 C   0  0  0  0  0  0  0  0  0  0  0  0
    9.1527   -5.2118   16.2116 C   0  0  0  0  0  0  0  0  0  0  0  0
   10.3364   -3.8368   22.9255 O   0  0  0  0  0  0  0  0  0  0  0  0
    9.6947   -4.8407   18.8534 C   0  0  0  0  0  0  0  0  0  0  0  0
    9.1596    1.7042   24.1381 C   0  0  0  0  0  0  0  0  0  0  0  0
   11.0456   -2.9774   18.2694 N   0  0  0  0  0  0  0  0  0  0  0  0
   10.4788   -3.0457   21.8593 C   0  0  0  0  0  0  0  0  0  0  0  0
    8.8693   -5.8099   18.4657 N   0  0  0  0  0  0  0  0  0  0  0  0
    8.9892   -0.7926   25.4573 C   0  0  0  0  0  0  0  0  0  0  0  0
   10.5677   -3.4462   20.5323 C   0  0  0  0  0  0  0  0  0  0  0  0
  1  8  1  0
  1 12  4  0
  1 14  4  0
  2  3  4  0
  2 18  4  0
  3 20  4  0
  3 22  4  0
  4 11  4  0
  4 21  4  0
  5  9  4  0
  5 16  4  0
  6 15  4  0
  6 16  4  0
  7 22  4  0
  7 26  4  0
  8 10  4  0
  8 25  4  0
  9 15  4  0
  9 17  1  0
 10 21  4  0
 11 25  4  0
 12 23  4  0
 13 20  4  0
 13 26  4  0
 14 19  4  0
 17 18  4  0
 17 24  4  0
 19 23  4  0
 20 24  4  0
 23 26  1  0
M  END
$$$$

 Created by Python create_sdf_string function

 26 30  0  0  0  0  0  0  0  0999 V2000
   10.0084   -1.8019   23.4945 C   0  0  0  0  0  0  0  0  0  0  0  0
   10.0005   -4.2520   16.5631 C   0  0  0  0  0  0  0  0  0  0  0  0
   10.2759   -4.0036   17.8845 C   0  0  0  0  0  0  0  0  0  0  0  0
    8.5652    1.5478   25.3778 N   0  0  0  0  0  0  0  0  0  0  0  0
    6.8048   -7.5457   17.8752 C   0  0  0  0  0  0  0  0  0  0  0  0
    6.1721   -8.2186   15.9886 N   0  0  0  0  0  0  0  0  0  0  0  0
   11.1764   -2.6600   19.5604 C   0  0  0  0  0  0  0  0  0  0  0  0
    9.5491   -0.6380   24.1912 C   0  0  0  0  0  0  0  0  0  0  0  0
    7.5337   -6.9256   16.9519 C   0  0  0  0  0  0  0  0  0  0  0  0
    9.6782    0.5671   23.5143 C   0  0  0  0  0  0  0  0  0  0  0  0
    8.4532    0.3482   26.0821 C   0  0  0  0  0  0  0  0  0  0  0  0
   10.4239   -1.7677   22.2230 N   0  0  0  0  0  0  0  0  0  0  0  0
    9.9468   -4.5953   20.1709 C   0  0  0  0  0  0  0  0  0  0  0  0
   10.0366   -3.0590   23.9864 N   0  0  0  0  0  0  0  0  0  0  0  0
    7.1191   -7.3636   15.7739 C   0  0  0  0  0  0  0  0  0  0  0  0
    5.9612   -8.3203   17.2732 N   0  0  0  0  0  0  0  0  0  0  0  0
    8.5296   -5.9814   17.1841 C   0  0  0  0  0  0  0  0  0  0  0  0
    9.1527   -5.2118   16.2116 C   0  0  0  0  0  0  0  0  0  0  0  0
   10.3364   -3.8368   22.9255 O   0  0  0  0  0  0  0  0  0  0  0  0
    9.6947   -4.8407   18.8534 C   0  0  0  0  0  0  0  0  0  0  0  0
    9.1596    1.7042   24.1381 C   0  0  0  0  0  0  0  0  0  0  0  0
   11.0456   -2.9774   18.2694 N   0  0  0  0  0  0  0  0  0  0  0  0
   10.4788   -3.0457   21.8593 C   0  0  0  0  0  0  0  0  0  0  0  0
    8.8693   -5.8099   18.4657 N   0  0  0  0  0  0  0  0  0  0  0  0
    8.9892   -0.7926   25.4573 C   0  0  0  0  0  0  0  0  0  0  0  0
   10.5677   -3.4462   20.5323 C   0  0  0  0  0  0  0  0  0  0  0  0
  1  8  1  0
  1 12  4  0
  1 14  4  0
  2  3  4  0
  2 18  4  0
  3 20  4  0
  3 22  4  0
  4 11  4  0
  4 21  4  0
  5  9  4  0
  5 16  4  0
  6 15  4  0
  6 16  4  0
  7 22  4  0
  7 26  4  0
  8 10  4  0
  8 25  4  0
  9 15  4  0
  9 17  1  0
 10 21  4  0
 11 25  4  0
 12 23  4  0
 13 20  4  0
 13 26  4  0
 14 19  4  0
 17 18  4  0
 17 24  4  0
 19 23  4  0
 20 24  4  0
 23 26  1  0
M  END
$$$$

 Created by Python create_sdf_string function

 26 30  0  0  0  0  0  0  0  0999 V2000
   10.0084   -1.8019   23.4945 C   0  0  0  0  0  0  0  0  0  0  0  0
   10.0005   -4.2520   16.5631 C   0  0  0  0  0  0  0  0  0  0  0  0
   10.2759   -4.0036   17.8845 C   0  0  0  0  0  0  0  0  0  0  0  0
    8.5652    1.5478   25.3778 N   0  0  0  0  0  0  0  0  0  0  0  0
    6.8048   -7.5457   17.8752 C   0  0  0  0  0  0  0  0  0  0  0  0
    6.1721   -8.2186   15.9886 N   0  0  0  0  0  0  0  0  0  0  0  0
   11.1764   -2.6600   19.5604 C   0  0  0  0  0  0  0  0  0  0  0  0
    9.5491   -0.6380   24.1912 C   0  0  0  0  0  0  0  0  0  0  0  0
    7.5337   -6.9256   16.9519 C   0  0  0  0  0  0  0  0  0  0  0  0
    9.6782    0.5671   23.5143 C   0  0  0  0  0  0  0  0  0  0  0  0
    8.4532    0.3482   26.0821 C   0  0  0  0  0  0  0  0  0  0  0  0
   10.4239   -1.7677   22.2230 N   0  0  0  0  0  0  0  0  0  0  0  0
    9.9468   -4.5953   20.1709 C   0  0  0  0  0  0  0  0  0  0  0  0
   10.0366   -3.0590   23.9864 N   0  0  0  0  0  0  0  0  0  0  0  0
    7.1191   -7.3636   15.7739 C   0  0  0  0  0  0  0  0  0  0  0  0
    5.9612   -8.3203   17.2732 N   0  0  0  0  0  0  0  0  0  0  0  0
    8.5296   -5.9814   17.1841 C   0  0  0  0  0  0  0  0  0  0  0  0
    9.1527   -5.2118   16.2116 C   0  0  0  0  0  0  0  0  0  0  0  0
   10.3364   -3.8368   22.9255 O   0  0  0  0  0  0  0  0  0  0  0  0
    9.6947   -4.8407   18.8534 C   0  0  0  0  0  0  0  0  0  0  0  0
    9.1596    1.7042   24.1381 C   0  0  0  0  0  0  0  0  0  0  0  0
   11.0456   -2.9774   18.2694 N   0  0  0  0  0  0  0  0  0  0  0  0
   10.4788   -3.0457   21.8593 C   0  0  0  0  0  0  0  0  0  0  0  0
    8.8693   -5.8099   18.4657 N   0  0  0  0  0  0  0  0  0  0  0  0
    8.9892   -0.7926   25.4573 C   0  0  0  0  0  0  0  0  0  0  0  0
   10.5677   -3.4462   20.5323 C   0  0  0  0  0  0  0  0  0  0  0  0
  1  8  1  0
  1 12  4  0
  1 14  4  0
  2  3  4  0
  2 18  4  0
  3 20  4  0
  3 22  4  0
  4 11  4  0
  4 21  4  0
  5  9  4  0
  5 16  4  0
  6 15  4  0
  6 16  4  0
  7 22  4  0
  7 26  4  0
  8 10  4  0
  8 25  4  0
  9 15  4  0
  9 17  1  0
 10 21  4  0
 11 25  4  0
 12 23  4  0
 13 20  4  0
 13 26  4  0
 14 19  4  0
 17 18  4  0
 17 24  4  0
 19 23  4  0
 20 24  4  0
 23 26  1  0
M  END
$$$$

 Created by Python create_sdf_string function

 26 30  0  0  0  0  0  0  0  0999 V2000
   10.0084   -1.8019   23.4945 C   0  0  0  0  0  0  0  0  0  0  0  0
   10.0005   -4.2520   16.5631 C   0  0  0  0  0  0  0  0  0  0  0  0
   10.2759   -4.0036   17.8845 C   0  0  0  0  0  0  0  0  0  0  0  0
    8.5652    1.5478   25.3778 N   0  0  0  0  0  0  0  0  0  0  0  0
    6.8048   -7.5457   17.8752 C   0  0  0  0  0  0  0  0  0  0  0  0
    6.1721   -8.2186   15.9886 N   0  0  0  0  0  0  0  0  0  0  0  0
   11.1764   -2.6600   19.5604 C   0  0  0  0  0  0  0  0  0  0  0  0
    9.5491   -0.6380   24.1912 C   0  0  0  0  0  0  0  0  0  0  0  0
    7.5337   -6.9256   16.9519 C   0  0  0  0  0  0  0  0  0  0  0  0
    9.6782    0.5671   23.5143 C   0  0  0  0  0  0  0  0  0  0  0  0
    8.4532    0.3482   26.0821 C   0  0  0  0  0  0  0  0  0  0  0  0
   10.4239   -1.7677   22.2230 N   0  0  0  0  0  0  0  0  0  0  0  0
    9.9468   -4.5953   20.1709 C   0  0  0  0  0  0  0  0  0  0  0  0
   10.0366   -3.0590   23.9864 N   0  0  0  0  0  0  0  0  0  0  0  0
    7.1191   -7.3636   15.7739 C   0  0  0  0  0  0  0  0  0  0  0  0
    5.9612   -8.3203   17.2732 N   0  0  0  0  0  0  0  0  0  0  0  0
    8.5296   -5.9814   17.1841 C   0  0  0  0  0  0  0  0  0  0  0  0
    9.1527   -5.2118   16.2116 C   0  0  0  0  0  0  0  0  0  0  0  0
   10.3364   -3.8368   22.9255 O   0  0  0  0  0  0  0  0  0  0  0  0
    9.6947   -4.8407   18.8534 C   0  0  0  0  0  0  0  0  0  0  0  0
    9.1596    1.7042   24.1381 C   0  0  0  0  0  0  0  0  0  0  0  0
   11.0456   -2.9774   18.2694 N   0  0  0  0  0  0  0  0  0  0  0  0
   10.4788   -3.0457   21.8593 C   0  0  0  0  0  0  0  0  0  0  0  0
    8.8693   -5.8099   18.4657 N   0  0  0  0  0  0  0  0  0  0  0  0
    8.9892   -0.7926   25.4573 C   0  0  0  0  0  0  0  0  0  0  0  0
   10.5677   -3.4462   20.5323 C   0  0  0  0  0  0  0  0  0  0  0  0
  1  8  1  0
  1 12  4  0
  1 14  4  0
  2  3  4  0
  2 18  4  0
  3 20  4  0
  3 22  4  0
  4 11  4  0
  4 21  4  0
  5  9  4  0
  5 16  4  0
  6 15  4  0
  6 16  4  0
  7 22  4  0
  7 26  4  0
  8 10  4  0
  8 25  4  0
  9 15  4  0
  9 17  1  0
 10 21  4  0
 11 25  4  0
 12 23  4  0
 13 20  4  0
 13 26  4  0
 14 19  4  0
 17 18  4  0
 17 24  4  0
 19 23  4  0
 20 24  4  0
 23 26  1  0
M  END
$$$$

 Created by Python create_sdf_string function

 26 30  0  0  0  0  0  0  0  0999 V2000
   10.0084   -1.8019   23.4945 C   0  0  0  0  0  0  0  0  0  0  0  0
   10.0005   -4.2520   16.5631 C   0  0  0  0  0  0  0  0  0  0  0  0
   10.2759   -4.0036   17.8845 C   0  0  0  0  0  0  0  0  0  0  0  0
    8.5652    1.5478   25.3778 N   0  0  0  0  0  0  0  0  0  0  0  0
    6.8048   -7.5457   17.8752 C   0  0  0  0  0  0  0  0  0  0  0  0
    6.1721   -8.2186   15.9886 N   0  0  0  0  0  0  0  0  0  0  0  0
   11.1764   -2.6600   19.5604 C   0  0  0  0  0  0  0  0  0  0  0  0
    9.5491   -0.6380   24.1912 C   0  0  0  0  0  0  0  0  0  0  0  0
    7.5337   -6.9256   16.9519 C   0  0  0  0  0  0  0  0  0  0  0  0
    9.6782    0.5671   23.5143 C   0  0  0  0  0  0  0  0  0  0  0  0
    8.4532    0.3482   26.0821 C   0  0  0  0  0  0  0  0  0  0  0  0
   10.4239   -1.7677   22.2230 N   0  0  0  0  0  0  0  0  0  0  0  0
    9.9468   -4.5953   20.1709 C   0  0  0  0  0  0  0  0  0  0  0  0
   10.0366   -3.0590   23.9864 N   0  0  0  0  0  0  0  0  0  0  0  0
    7.1191   -7.3636   15.7739 C   0  0  0  0  0  0  0  0  0  0  0  0
    5.9612   -8.3203   17.2732 N   0  0  0  0  0  0  0  0  0  0  0  0
    8.5296   -5.9814   17.1841 C   0  0  0  0  0  0  0  0  0  0  0  0
    9.1527   -5.2118   16.2116 C   0  0  0  0  0  0  0  0  0  0  0  0
   10.3364   -3.8368   22.9255 O   0  0  0  0  0  0  0  0  0  0  0  0
    9.6947   -4.8407   18.8534 C   0  0  0  0  0  0  0  0  0  0  0  0
    9.1596    1.7042   24.1381 C   0  0  0  0  0  0  0  0  0  0  0  0
   11.0456   -2.9774   18.2694 N   0  0  0  0  0  0  0  0  0  0  0  0
   10.4788   -3.0457   21.8593 C   0  0  0  0  0  0  0  0  0  0  0  0
    8.8693   -5.8099   18.4657 N   0  0  0  0  0  0  0  0  0  0  0  0
    8.9892   -0.7926   25.4573 C   0  0  0  0  0  0  0  0  0  0  0  0
   10.5677   -3.4462   20.5323 C   0  0  0  0  0  0  0  0  0  0  0  0
  1  8  1  0
  1 12  4  0
  1 14  4  0
  2  3  4  0
  2 18  4  0
  3 20  4  0
  3 22  4  0
  4 11  4  0
  4 21  4  0
  5  9  4  0
  5 16  4  0
  6 15  4  0
  6 16  4  0
  7 22  4  0
  7 26  4  0
  8 10  4  0
  8 25  4  0
  9 15  4  0
  9 17  1  0
 10 21  4  0
 11 25  4  0
 12 23  4  0
 13 20  4  0
 13 26  4  0
 14 19  4  0
 17 18  4  0
 17 24  4  0
 19 23  4  0
 20 24  4  0
 23 26  1  0
M  END
$$$$

 Created by Python create_sdf_string function

 26 30  0  0  0  0  0  0  0  0999 V2000
   10.0084   -1.8019   23.4945 C   0  0  0  0  0  0  0  0  0  0  0  0
   10.0005   -4.2520   16.5631 C   0  0  0  0  0  0  0  0  0  0  0  0
   10.2759   -4.0036   17.8845 C   0  0  0  0  0  0  0  0  0  0  0  0
    8.5652    1.5478   25.3778 N   0  0  0  0  0  0  0  0  0  0  0  0
    6.8048   -7.5457   17.8752 C   0  0  0  0  0  0  0  0  0  0  0  0
    6.1721   -8.2186   15.9886 N   0  0  0  0  0  0  0  0  0  0  0  0
   11.1764   -2.6600   19.5604 C   0  0  0  0  0  0  0  0  0  0  0  0
    9.5491   -0.6380   24.1912 C   0  0  0  0  0  0  0  0  0  0  0  0
    7.5337   -6.9256   16.9519 C   0  0  0  0  0  0  0  0  0  0  0  0
    9.6782    0.5671   23.5143 C   0  0  0  0  0  0  0  0  0  0  0  0
    8.4532    0.3482   26.0821 C   0  0  0  0  0  0  0  0  0  0  0  0
   10.4239   -1.7677   22.2230 N   0  0  0  0  0  0  0  0  0  0  0  0
    9.9468   -4.5953   20.1709 C   0  0  0  0  0  0  0  0  0  0  0  0
   10.0366   -3.0590   23.9864 N   0  0  0  0  0  0  0  0  0  0  0  0
    7.1191   -7.3636   15.7739 C   0  0  0  0  0  0  0  0  0  0  0  0
    5.9612   -8.3203   17.2732 N   0  0  0  0  0  0  0  0  0  0  0  0
    8.5296   -5.9814   17.1841 C   0  0  0  0  0  0  0  0  0  0  0  0
    9.1527   -5.2118   16.2116 C   0  0  0  0  0  0  0  0  0  0  0  0
   10.3364   -3.8368   22.9255 O   0  0  0  0  0  0  0  0  0  0  0  0
    9.6947   -4.8407   18.8534 C   0  0  0  0  0  0  0  0  0  0  0  0
    9.1596    1.7042   24.1381 C   0  0  0  0  0  0  0  0  0  0  0  0
   11.0456   -2.9774   18.2694 N   0  0  0  0  0  0  0  0  0  0  0  0
   10.4788   -3.0457   21.8593 C   0  0  0  0  0  0  0  0  0  0  0  0
    8.8693   -5.8099   18.4657 N   0  0  0  0  0  0  0  0  0  0  0  0
    8.9892   -0.7926   25.4573 C   0  0  0  0  0  0  0  0  0  0  0  0
   10.5677   -3.4462   20.5323 C   0  0  0  0  0  0  0  0  0  0  0  0
  1  8  1  0
  1 12  4  0
  1 14  4  0
  2  3  4  0
  2 18  4  0
  3 20  4  0
  3 22  4  0
  4 11  4  0
  4 21  4  0
  5  9  4  0
  5 16  4  0
  6 15  4  0
  6 16  4  0
  7 22  4  0
  7 26  4  0
  8 10  4  0
  8 25  4  0
  9 15  4  0
  9 17  1  0
 10 21  4  0
 11 25  4  0
 12 23  4  0
 13 20  4  0
 13 26  4  0
 14 19  4  0
 17 18  4  0
 17 24  4  0
 19 23  4  0
 20 24  4  0
 23 26  1  0
M  END
$$$$

 Created by Python create_sdf_string function

 26 30  0  0  0  0  0  0  0  0999 V2000
   10.0084   -1.8019   23.4945 C   0  0  0  0  0  0  0  0  0  0  0  0
   10.0005   -4.2520   16.5631 C   0  0  0  0  0  0  0  0  0  0  0  0
   10.2759   -4.0036   17.8845 C   0  0  0  0  0  0  0  0  0  0  0  0
    8.5652    1.5478   25.3778 N   0  0  0  0  0  0  0  0  0  0  0  0
    6.8048   -7.5457   17.8752 C   0  0  0  0  0  0  0  0  0  0  0  0
    6.1721   -8.2186   15.9886 N   0  0  0  0  0  0  0  0  0  0  0  0
   11.1764   -2.6600   19.5604 C   0  0  0  0  0  0  0  0  0  0  0  0
    9.5491   -0.6380   24.1912 C   0  0  0  0  0  0  0  0  0  0  0  0
    7.5337   -6.9256   16.9519 C   0  0  0  0  0  0  0  0  0  0  0  0
    9.6782    0.5671   23.5143 C   0  0  0  0  0  0  0  0  0  0  0  0
    8.4532    0.3482   26.0821 C   0  0  0  0  0  0  0  0  0  0  0  0
   10.4239   -1.7677   22.2230 N   0  0  0  0  0  0  0  0  0  0  0  0
    9.9468   -4.5953   20.1709 C   0  0  0  0  0  0  0  0  0  0  0  0
   10.0366   -3.0590   23.9864 N   0  0  0  0  0  0  0  0  0  0  0  0
    7.1191   -7.3636   15.7739 C   0  0  0  0  0  0  0  0  0  0  0  0
    5.9612   -8.3203   17.2732 N   0  0  0  0  0  0  0  0  0  0  0  0
    8.5296   -5.9814   17.1841 C   0  0  0  0  0  0  0  0  0  0  0  0
    9.1527   -5.2118   16.2116 C   0  0  0  0  0  0  0  0  0  0  0  0
   10.3364   -3.8368   22.9255 O   0  0  0  0  0  0  0  0  0  0  0  0
    9.6947   -4.8407   18.8534 C   0  0  0  0  0  0  0  0  0  0  0  0
    9.1596    1.7042   24.1381 C   0  0  0  0  0  0  0  0  0  0  0  0
   11.0456   -2.9774   18.2694 N   0  0  0  0  0  0  0  0  0  0  0  0
   10.4788   -3.0457   21.8593 C   0  0  0  0  0  0  0  0  0  0  0  0
    8.8693   -5.8099   18.4657 N   0  0  0  0  0  0  0  0  0  0  0  0
    8.9892   -0.7926   25.4573 C   0  0  0  0  0  0  0  0  0  0  0  0
   10.5677   -3.4462   20.5323 C   0  0  0  0  0  0  0  0  0  0  0  0
  1  8  1  0
  1 12  4  0
  1 14  4  0
  2  3  4  0
  2 18  4  0
  3 20  4  0
  3 22  4  0
  4 11  4  0
  4 21  4  0
  5  9  4  0
  5 16  4  0
  6 15  4  0
  6 16  4  0
  7 22  4  0
  7 26  4  0
  8 10  4  0
  8 25  4  0
  9 15  4  0
  9 17  1  0
 10 21  4  0
 11 25  4  0
 12 23  4  0
 13 20  4  0
 13 26  4  0
 14 19  4  0
 17 18  4  0
 17 24  4  0
 19 23  4  0
 20 24  4  0
 23 26  1  0
M  END
$$$$

 Created by Python create_sdf_string function

 26 30  0  0  0  0  0  0  0  0999 V2000
   10.0084   -1.8019   23.4945 C   0  0  0  0  0  0  0  0  0  0  0  0
   10.0005   -4.2520   16.5631 C   0  0  0  0  0  0  0  0  0  0  0  0
   10.2759   -4.0036   17.8845 C   0  0  0  0  0  0  0  0  0  0  0  0
    8.5652    1.5478   25.3778 N   0  0  0  0  0  0  0  0  0  0  0  0
    6.8048   -7.5457   17.8752 C   0  0  0  0  0  0  0  0  0  0  0  0
    6.1721   -8.2186   15.9886 N   0  0  0  0  0  0  0  0  0  0  0  0
   11.1764   -2.6600   19.5604 C   0  0  0  0  0  0  0  0  0  0  0  0
    9.5491   -0.6380   24.1912 C   0  0  0  0  0  0  0  0  0  0  0  0
    7.5337   -6.9256   16.9519 C   0  0  0  0  0  0  0  0  0  0  0  0
    9.6782    0.5671   23.5143 C   0  0  0  0  0  0  0  0  0  0  0  0
    8.4532    0.3482   26.0821 C   0  0  0  0  0  0  0  0  0  0  0  0
   10.4239   -1.7677   22.2230 N   0  0  0  0  0  0  0  0  0  0  0  0
    9.9468   -4.5953   20.1709 C   0  0  0  0  0  0  0  0  0  0  0  0
   10.0366   -3.0590   23.9864 N   0  0  0  0  0  0  0  0  0  0  0  0
    7.1191   -7.3636   15.7739 C   0  0  0  0  0  0  0  0  0  0  0  0
    5.9612   -8.3203   17.2732 N   0  0  0  0  0  0  0  0  0  0  0  0
    8.5296   -5.9814   17.1841 C   0  0  0  0  0  0  0  0  0  0  0  0
    9.1527   -5.2118   16.2116 C   0  0  0  0  0  0  0  0  0  0  0  0
   10.3364   -3.8368   22.9255 O   0  0  0  0  0  0  0  0  0  0  0  0
    9.6947   -4.8407   18.8534 C   0  0  0  0  0  0  0  0  0  0  0  0
    9.1596    1.7042   24.1381 C   0  0  0  0  0  0  0  0  0  0  0  0
   11.0456   -2.9774   18.2694 N   0  0  0  0  0  0  0  0  0  0  0  0
   10.4788   -3.0457   21.8593 C   0  0  0  0  0  0  0  0  0  0  0  0
    8.8693   -5.8099   18.4657 N   0  0  0  0  0  0  0  0  0  0  0  0
    8.9892   -0.7926   25.4573 C   0  0  0  0  0  0  0  0  0  0  0  0
   10.5677   -3.4462   20.5323 C   0  0  0  0  0  0  0  0  0  0  0  0
  1  8  1  0
  1 12  4  0
  1 14  4  0
  2  3  4  0
  2 18  4  0
  3 20  4  0
  3 22  4  0
  4 11  4  0
  4 21  4  0
  5  9  4  0
  5 16  4  0
  6 15  4  0
  6 16  4  0
  7 22  4  0
  7 26  4  0
  8 10  4  0
  8 25  4  0
  9 15  4  0
  9 17  1  0
 10 21  4  0
 11 25  4  0
 12 23  4  0
 13 20  4  0
 13 26  4  0
 14 19  4  0
 17 18  4  0
 17 24  4  0
 19 23  4  0
 20 24  4  0
 23 26  1  0
M  END
$$$$

 Created by Python create_sdf_string function

 26 30  0  0  0  0  0  0  0  0999 V2000
   10.0084   -1.8019   23.4945 C   0  0  0  0  0  0  0  0  0  0  0  0
   10.0005   -4.2520   16.5631 C   0  0  0  0  0  0  0  0  0  0  0  0
   10.2759   -4.0036   17.8845 C   0  0  0  0  0  0  0  0  0  0  0  0
    8.5652    1.5478   25.3778 N   0  0  0  0  0  0  0  0  0  0  0  0
    6.8048   -7.5457   17.8752 C   0  0  0  0  0  0  0  0  0  0  0  0
    6.1721   -8.2186   15.9886 N   0  0  0  0  0  0  0  0  0  0  0  0
   11.1764   -2.6600   19.5604 C   0  0  0  0  0  0  0  0  0  0  0  0
    9.5491   -0.6380   24.1912 C   0  0  0  0  0  0  0  0  0  0  0  0
    7.5337   -6.9256   16.9519 C   0  0  0  0  0  0  0  0  0  0  0  0
    9.6782    0.5671   23.5143 C   0  0  0  0  0  0  0  0  0  0  0  0
    8.4532    0.3482   26.0821 C   0  0  0  0  0  0  0  0  0  0  0  0
   10.4239   -1.7677   22.2230 N   0  0  0  0  0  0  0  0  0  0  0  0
    9.9468   -4.5953   20.1709 C   0  0  0  0  0  0  0  0  0  0  0  0
   10.0366   -3.0590   23.9864 N   0  0  0  0  0  0  0  0  0  0  0  0
    7.1191   -7.3636   15.7739 C   0  0  0  0  0  0  0  0  0  0  0  0
    5.9612   -8.3203   17.2732 N   0  0  0  0  0  0  0  0  0  0  0  0
    8.5296   -5.9814   17.1841 C   0  0  0  0  0  0  0  0  0  0  0  0
    9.1527   -5.2118   16.2116 C   0  0  0  0  0  0  0  0  0  0  0  0
   10.3364   -3.8368   22.9255 O   0  0  0  0  0  0  0  0  0  0  0  0
    9.6947   -4.8407   18.8534 C   0  0  0  0  0  0  0  0  0  0  0  0
    9.1596    1.7042   24.1381 C   0  0  0  0  0  0  0  0  0  0  0  0
   11.0456   -2.9774   18.2694 N   0  0  0  0  0  0  0  0  0  0  0  0
   10.4788   -3.0457   21.8593 C   0  0  0  0  0  0  0  0  0  0  0  0
    8.8693   -5.8099   18.4657 N   0  0  0  0  0  0  0  0  0  0  0  0
    8.9892   -0.7926   25.4573 C   0  0  0  0  0  0  0  0  0  0  0  0
   10.5677   -3.4462   20.5323 C   0  0  0  0  0  0  0  0  0  0  0  0
  1  8  1  0
  1 12  4  0
  1 14  4  0
  2  3  4  0
  2 18  4  0
  3 20  4  0
  3 22  4  0
  4 11  4  0
  4 21  4  0
  5  9  4  0
  5 16  4  0
  6 15  4  0
  6 16  4  0
  7 22  4  0
  7 26  4  0
  8 10  4  0
  8 25  4  0
  9 15  4  0
  9 17  1  0
 10 21  4  0
 11 25  4  0
 12 23  4  0
 13 20  4  0
 13 26  4  0
 14 19  4  0
 17 18  4  0
 17 24  4  0
 19 23  4  0
 20 24  4  0
 23 26  1  0
M  END
$$$$

 Created by Python create_sdf_string function

 26 30  0  0  0  0  0  0  0  0999 V2000
   10.0084   -1.8019   23.4945 C   0  0  0  0  0  0  0  0  0  0  0  0
   10.0005   -4.2520   16.5631 C   0  0  0  0  0  0  0  0  0  0  0  0
   10.2759   -4.0036   17.8845 C   0  0  0  0  0  0  0  0  0  0  0  0
    8.5652    1.5478   25.3778 N   0  0  0  0  0  0  0  0  0  0  0  0
    6.8048   -7.5457   17.8752 C   0  0  0  0  0  0  0  0  0  0  0  0
    6.1721   -8.2186   15.9886 N   0  0  0  0  0  0  0  0  0  0  0  0
   11.1764   -2.6600   19.5604 C   0  0  0  0  0  0  0  0  0  0  0  0
    9.5491   -0.6380   24.1912 C   0  0  0  0  0  0  0  0  0  0  0  0
    7.5337   -6.9256   16.9519 C   0  0  0  0  0  0  0  0  0  0  0  0
    9.6782    0.5671   23.5143 C   0  0  0  0  0  0  0  0  0  0  0  0
    8.4532    0.3482   26.0821 C   0  0  0  0  0  0  0  0  0  0  0  0
   10.4239   -1.7677   22.2230 N   0  0  0  0  0  0  0  0  0  0  0  0
    9.9468   -4.5953   20.1709 C   0  0  0  0  0  0  0  0  0  0  0  0
   10.0366   -3.0590   23.9864 N   0  0  0  0  0  0  0  0  0  0  0  0
    7.1191   -7.3636   15.7739 C   0  0  0  0  0  0  0  0  0  0  0  0
    5.9612   -8.3203   17.2732 N   0  0  0  0  0  0  0  0  0  0  0  0
    8.5296   -5.9814   17.1841 C   0  0  0  0  0  0  0  0  0  0  0  0
    9.1527   -5.2118   16.2116 C   0  0  0  0  0  0  0  0  0  0  0  0
   10.3364   -3.8368   22.9255 O   0  0  0  0  0  0  0  0  0  0  0  0
    9.6947   -4.8407   18.8534 C   0  0  0  0  0  0  0  0  0  0  0  0
    9.1596    1.7042   24.1381 C   0  0  0  0  0  0  0  0  0  0  0  0
   11.0456   -2.9774   18.2694 N   0  0  0  0  0  0  0  0  0  0  0  0
   10.4788   -3.0457   21.8593 C   0  0  0  0  0  0  0  0  0  0  0  0
    8.8693   -5.8099   18.4657 N   0  0  0  0  0  0  0  0  0  0  0  0
    8.9892   -0.7926   25.4573 C   0  0  0  0  0  0  0  0  0  0  0  0
   10.5677   -3.4462   20.5323 C   0  0  0  0  0  0  0  0  0  0  0  0
  1  8  1  0
  1 12  4  0
  1 14  4  0
  2  3  4  0
  2 18  4  0
  3 20  4  0
  3 22  4  0
  4 11  4  0
  4 21  4  0
  5  9  4  0
  5 16  4  0
  6 15  4  0
  6 16  4  0
  7 22  4  0
  7 26  4  0
  8 10  4  0
  8 25  4  0
  9 15  4  0
  9 17  1  0
 10 21  4  0
 11 25  4  0
 12 23  4  0
 13 20  4  0
 13 26  4  0
 14 19  4  0
 17 18  4  0
 17 24  4  0
 19 23  4  0
 20 24  4  0
 23 26  1  0
M  END
$$$$

 Created by Python create_sdf_string function

 26 30  0  0  0  0  0  0  0  0999 V2000
   10.0084   -1.8019   23.4945 C   0  0  0  0  0  0  0  0  0  0  0  0
   10.0005   -4.2520   16.5631 C   0  0  0  0  0  0  0  0  0  0  0  0
   10.2759   -4.0036   17.8845 C   0  0  0  0  0  0  0  0  0  0  0  0
    8.5652    1.5478   25.3778 N   0  0  0  0  0  0  0  0  0  0  0  0
    6.8048   -7.5457   17.8752 C   0  0  0  0  0  0  0  0  0  0  0  0
    6.1721   -8.2186   15.9886 N   0  0  0  0  0  0  0  0  0  0  0  0
   11.1764   -2.6600   19.5604 C   0  0  0  0  0  0  0  0  0  0  0  0
    9.5491   -0.6380   24.1912 C   0  0  0  0  0  0  0  0  0  0  0  0
    7.5337   -6.9256   16.9519 C   0  0  0  0  0  0  0  0  0  0  0  0
    9.6782    0.5671   23.5143 C   0  0  0  0  0  0  0  0  0  0  0  0
    8.4532    0.3482   26.0821 C   0  0  0  0  0  0  0  0  0  0  0  0
   10.4239   -1.7677   22.2230 N   0  0  0  0  0  0  0  0  0  0  0  0
    9.9468   -4.5953   20.1709 C   0  0  0  0  0  0  0  0  0  0  0  0
   10.0366   -3.0590   23.9864 N   0  0  0  0  0  0  0  0  0  0  0  0
    7.1191   -7.3636   15.7739 C   0  0  0  0  0  0  0  0  0  0  0  0
    5.9612   -8.3203   17.2732 N   0  0  0  0  0  0  0  0  0  0  0  0
    8.5296   -5.9814   17.1841 C   0  0  0  0  0  0  0  0  0  0  0  0
    9.1527   -5.2118   16.2116 C   0  0  0  0  0  0  0  0  0  0  0  0
   10.3364   -3.8368   22.9255 O   0  0  0  0  0  0  0  0  0  0  0  0
    9.6947   -4.8407   18.8534 C   0  0  0  0  0  0  0  0  0  0  0  0
    9.1596    1.7042   24.1381 C   0  0  0  0  0  0  0  0  0  0  0  0
   11.0456   -2.9774   18.2694 N   0  0  0  0  0  0  0  0  0  0  0  0
   10.4788   -3.0457   21.8593 C   0  0  0  0  0  0  0  0  0  0  0  0
    8.8693   -5.8099   18.4657 N   0  0  0  0  0  0  0  0  0  0  0  0
    8.9892   -0.7926   25.4573 C   0  0  0  0  0  0  0  0  0  0  0  0
   10.5677   -3.4462   20.5323 C   0  0  0  0  0  0  0  0  0  0  0  0
  1  8  1  0
  1 12  4  0
  1 14  4  0
  2  3  4  0
  2 18  4  0
  3 20  4  0
  3 22  4  0
  4 11  4  0
  4 21  4  0
  5  9  4  0
  5 16  4  0
  6 15  4  0
  6 16  4  0
  7 22  4  0
  7 26  4  0
  8 10  4  0
  8 25  4  0
  9 15  4  0
  9 17  1  0
 10 21  4  0
 11 25  4  0
 12 23  4  0
 13 20  4  0
 13 26  4  0
 14 19  4  0
 17 18  4  0
 17 24  4  0
 19 23  4  0
 20 24  4  0
 23 26  1  0
M  END
$$$$

 Created by Python create_sdf_string function

 26 30  0  0  0  0  0  0  0  0999 V2000
   10.0084   -1.8019   23.4945 C   0  0  0  0  0  0  0  0  0  0  0  0
   10.0005   -4.2520   16.5631 C   0  0  0  0  0  0  0  0  0  0  0  0
   10.2759   -4.0036   17.8845 C   0  0  0  0  0  0  0  0  0  0  0  0
    8.5652    1.5478   25.3778 N   0  0  0  0  0  0  0  0  0  0  0  0
    6.8048   -7.5457   17.8752 C   0  0  0  0  0  0  0  0  0  0  0  0
    6.1721   -8.2186   15.9886 N   0  0  0  0  0  0  0  0  0  0  0  0
   11.1764   -2.6600   19.5604 C   0  0  0  0  0  0  0  0  0  0  0  0
    9.5491   -0.6380   24.1912 C   0  0  0  0  0  0  0  0  0  0  0  0
    7.5337   -6.9256   16.9519 C   0  0  0  0  0  0  0  0  0  0  0  0
    9.6782    0.5671   23.5143 C   0  0  0  0  0  0  0  0  0  0  0  0
    8.4532    0.3482   26.0821 C   0  0  0  0  0  0  0  0  0  0  0  0
   10.4239   -1.7677   22.2230 N   0  0  0  0  0  0  0  0  0  0  0  0
    9.9468   -4.5953   20.1709 C   0  0  0  0  0  0  0  0  0  0  0  0
   10.0366   -3.0590   23.9864 N   0  0  0  0  0  0  0  0  0  0  0  0
    7.1191   -7.3636   15.7739 C   0  0  0  0  0  0  0  0  0  0  0  0
    5.9612   -8.3203   17.2732 N   0  0  0  0  0  0  0  0  0  0  0  0
    8.5296   -5.9814   17.1841 C   0  0  0  0  0  0  0  0  0  0  0  0
    9.1527   -5.2118   16.2116 C   0  0  0  0  0  0  0  0  0  0  0  0
   10.3364   -3.8368   22.9255 O   0  0  0  0  0  0  0  0  0  0  0  0
    9.6947   -4.8407   18.8534 C   0  0  0  0  0  0  0  0  0  0  0  0
    9.1596    1.7042   24.1381 C   0  0  0  0  0  0  0  0  0  0  0  0
   11.0456   -2.9774   18.2694 N   0  0  0  0  0  0  0  0  0  0  0  0
   10.4788   -3.0457   21.8593 C   0  0  0  0  0  0  0  0  0  0  0  0
    8.8693   -5.8099   18.4657 N   0  0  0  0  0  0  0  0  0  0  0  0
    8.9892   -0.7926   25.4573 C   0  0  0  0  0  0  0  0  0  0  0  0
   10.5677   -3.4462   20.5323 C   0  0  0  0  0  0  0  0  0  0  0  0
  1  8  1  0
  1 12  4  0
  1 14  4  0
  2  3  4  0
  2 18  4  0
  3 20  4  0
  3 22  4  0
  4 11  4  0
  4 21  4  0
  5  9  4  0
  5 16  4  0
  6 15  4  0
  6 16  4  0
  7 22  4  0
  7 26  4  0
  8 10  4  0
  8 25  4  0
  9 15  4  0
  9 17  1  0
 10 21  4  0
 11 25  4  0
 12 23  4  0
 13 20  4  0
 13 26  4  0
 14 19  4  0
 17 18  4  0
 17 24  4  0
 19 23  4  0
 20 24  4  0
 23 26  1  0
M  END
$$$$

 Created by Python create_sdf_string function

 26 30  0  0  0  0  0  0  0  0999 V2000
   10.0084   -1.8019   23.4945 C   0  0  0  0  0  0  0  0  0  0  0  0
   10.0005   -4.2520   16.5631 C   0  0  0  0  0  0  0  0  0  0  0  0
   10.2759   -4.0036   17.8845 C   0  0  0  0  0  0  0  0  0  0  0  0
    8.5652    1.5478   25.3778 N   0  0  0  0  0  0  0  0  0  0  0  0
    6.8048   -7.5457   17.8752 C   0  0  0  0  0  0  0  0  0  0  0  0
    6.1721   -8.2186   15.9886 N   0  0  0  0  0  0  0  0  0  0  0  0
   11.1764   -2.6600   19.5604 C   0  0  0  0  0  0  0  0  0  0  0  0
    9.5491   -0.6380   24.1912 C   0  0  0  0  0  0  0  0  0  0  0  0
    7.5337   -6.9256   16.9519 C   0  0  0  0  0  0  0  0  0  0  0  0
    9.6782    0.5671   23.5143 C   0  0  0  0  0  0  0  0  0  0  0  0
    8.4532    0.3482   26.0821 C   0  0  0  0  0  0  0  0  0  0  0  0
   10.4239   -1.7677   22.2230 N   0  0  0  0  0  0  0  0  0  0  0  0
    9.9468   -4.5953   20.1709 C   0  0  0  0  0  0  0  0  0  0  0  0
   10.0366   -3.0590   23.9864 N   0  0  0  0  0  0  0  0  0  0  0  0
    7.1191   -7.3636   15.7739 C   0  0  0  0  0  0  0  0  0  0  0  0
    5.9612   -8.3203   17.2732 N   0  0  0  0  0  0  0  0  0  0  0  0
    8.5296   -5.9814   17.1841 C   0  0  0  0  0  0  0  0  0  0  0  0
    9.1527   -5.2118   16.2116 C   0  0  0  0  0  0  0  0  0  0  0  0
   10.3364   -3.8368   22.9255 O   0  0  0  0  0  0  0  0  0  0  0  0
    9.6947   -4.8407   18.8534 C   0  0  0  0  0  0  0  0  0  0  0  0
    9.1596    1.7042   24.1381 C   0  0  0  0  0  0  0  0  0  0  0  0
   11.0456   -2.9774   18.2694 N   0  0  0  0  0  0  0  0  0  0  0  0
   10.4788   -3.0457   21.8593 C   0  0  0  0  0  0  0  0  0  0  0  0
    8.8693   -5.8099   18.4657 N   0  0  0  0  0  0  0  0  0  0  0  0
    8.9892   -0.7926   25.4573 C   0  0  0  0  0  0  0  0  0  0  0  0
   10.5677   -3.4462   20.5323 C   0  0  0  0  0  0  0  0  0  0  0  0
  1  8  1  0
  1 12  4  0
  1 14  4  0
  2  3  4  0
  2 18  4  0
  3 20  4  0
  3 22  4  0
  4 11  4  0
  4 21  4  0
  5  9  4  0
  5 16  4  0
  6 15  4  0
  6 16  4  0
  7 22  4  0
  7 26  4  0
  8 10  4  0
  8 25  4  0
  9 15  4  0
  9 17  1  0
 10 21  4  0
 11 25  4  0
 12 23  4  0
 13 20  4  0
 13 26  4  0
 14 19  4  0
 17 18  4  0
 17 24  4  0
 19 23  4  0
 20 24  4  0
 23 26  1  0
M  END
$$$$

 Created by Python create_sdf_string function

 26 30  0  0  0  0  0  0  0  0999 V2000
   10.0084   -1.8019   23.4945 C   0  0  0  0  0  0  0  0  0  0  0  0
   10.0005   -4.2520   16.5631 C   0  0  0  0  0  0  0  0  0  0  0  0
   10.2759   -4.0036   17.8845 C   0  0  0  0  0  0  0  0  0  0  0  0
    8.5652    1.5478   25.3778 N   0  0  0  0  0  0  0  0  0  0  0  0
    6.8048   -7.5457   17.8752 C   0  0  0  0  0  0  0  0  0  0  0  0
    6.1721   -8.2186   15.9886 N   0  0  0  0  0  0  0  0  0  0  0  0
   11.1764   -2.6600   19.5604 C   0  0  0  0  0  0  0  0  0  0  0  0
    9.5491   -0.6380   24.1912 C   0  0  0  0  0  0  0  0  0  0  0  0
    7.5337   -6.9256   16.9519 C   0  0  0  0  0  0  0  0  0  0  0  0
    9.6782    0.5671   23.5143 C   0  0  0  0  0  0  0  0  0  0  0  0
    8.4532    0.3482   26.0821 C   0  0  0  0  0  0  0  0  0  0  0  0
   10.4239   -1.7677   22.2230 N   0  0  0  0  0  0  0  0  0  0  0  0
    9.9468   -4.5953   20.1709 C   0  0  0  0  0  0  0  0  0  0  0  0
   10.0366   -3.0590   23.9864 N   0  0  0  0  0  0  0  0  0  0  0  0
    7.1191   -7.3636   15.7739 C   0  0  0  0  0  0  0  0  0  0  0  0
    5.9612   -8.3203   17.2732 N   0  0  0  0  0  0  0  0  0  0  0  0
    8.5296   -5.9814   17.1841 C   0  0  0  0  0  0  0  0  0  0  0  0
    9.1527   -5.2118   16.2116 C   0  0  0  0  0  0  0  0  0  0  0  0
   10.3364   -3.8368   22.9255 O   0  0  0  0  0  0  0  0  0  0  0  0
    9.6947   -4.8407   18.8534 C   0  0  0  0  0  0  0  0  0  0  0  0
    9.1596    1.7042   24.1381 C   0  0  0  0  0  0  0  0  0  0  0  0
   11.0456   -2.9774   18.2694 N   0  0  0  0  0  0  0  0  0  0  0  0
   10.4788   -3.0457   21.8593 C   0  0  0  0  0  0  0  0  0  0  0  0
    8.8693   -5.8099   18.4657 N   0  0  0  0  0  0  0  0  0  0  0  0
    8.9892   -0.7926   25.4573 C   0  0  0  0  0  0  0  0  0  0  0  0
   10.5677   -3.4462   20.5323 C   0  0  0  0  0  0  0  0  0  0  0  0
  1  8  1  0
  1 12  4  0
  1 14  4  0
  2  3  4  0
  2 18  4  0
  3 20  4  0
  3 22  4  0
  4 11  4  0
  4 21  4  0
  5  9  4  0
  5 16  4  0
  6 15  4  0
  6 16  4  0
  7 22  4  0
  7 26  4  0
  8 10  4  0
  8 25  4  0
  9 15  4  0
  9 17  1  0
 10 21  4  0
 11 25  4  0
 12 23  4  0
 13 20  4  0
 13 26  4  0
 14 19  4  0
 17 18  4  0
 17 24  4  0
 19 23  4  0
 20 24  4  0
 23 26  1  0
M  END
$$$$

 Created by Python create_sdf_string function

 26 30  0  0  0  0  0  0  0  0999 V2000
   10.0084   -1.8019   23.4945 C   0  0  0  0  0  0  0  0  0  0  0  0
   10.0005   -4.2520   16.5631 C   0  0  0  0  0  0  0  0  0  0  0  0
   10.2759   -4.0036   17.8845 C   0  0  0  0  0  0  0  0  0  0  0  0
    8.5652    1.5478   25.3778 N   0  0  0  0  0  0  0  0  0  0  0  0
    6.8048   -7.5457   17.8752 C   0  0  0  0  0  0  0  0  0  0  0  0
    6.1721   -8.2186   15.9886 N   0  0  0  0  0  0  0  0  0  0  0  0
   11.1764   -2.6600   19.5604 C   0  0  0  0  0  0  0  0  0  0  0  0
    9.5491   -0.6380   24.1912 C   0  0  0  0  0  0  0  0  0  0  0  0
    7.5337   -6.9256   16.9519 C   0  0  0  0  0  0  0  0  0  0  0  0
    9.6782    0.5671   23.5143 C   0  0  0  0  0  0  0  0  0  0  0  0
    8.4532    0.3482   26.0821 C   0  0  0  0  0  0  0  0  0  0  0  0
   10.4239   -1.7677   22.2230 N   0  0  0  0  0  0  0  0  0  0  0  0
    9.9468   -4.5953   20.1709 C   0  0  0  0  0  0  0  0  0  0  0  0
   10.0366   -3.0590   23.9864 N   0  0  0  0  0  0  0  0  0  0  0  0
    7.1191   -7.3636   15.7739 C   0  0  0  0  0  0  0  0  0  0  0  0
    5.9612   -8.3203   17.2732 N   0  0  0  0  0  0  0  0  0  0  0  0
    8.5296   -5.9814   17.1841 C   0  0  0  0  0  0  0  0  0  0  0  0
    9.1527   -5.2118   16.2116 C   0  0  0  0  0  0  0  0  0  0  0  0
   10.3364   -3.8368   22.9255 O   0  0  0  0  0  0  0  0  0  0  0  0
    9.6947   -4.8407   18.8534 C   0  0  0  0  0  0  0  0  0  0  0  0
    9.1596    1.7042   24.1381 C   0  0  0  0  0  0  0  0  0  0  0  0
   11.0456   -2.9774   18.2694 N   0  0  0  0  0  0  0  0  0  0  0  0
   10.4788   -3.0457   21.8593 C   0  0  0  0  0  0  0  0  0  0  0  0
    8.8693   -5.8099   18.4657 N   0  0  0  0  0  0  0  0  0  0  0  0
    8.9892   -0.7926   25.4573 C   0  0  0  0  0  0  0  0  0  0  0  0
   10.5677   -3.4462   20.5323 C   0  0  0  0  0  0  0  0  0  0  0  0
  1  8  1  0
  1 12  4  0
  1 14  4  0
  2  3  4  0
  2 18  4  0
  3 20  4  0
  3 22  4  0
  4 11  4  0
  4 21  4  0
  5  9  4  0
  5 16  4  0
  6 15  4  0
  6 16  4  0
  7 22  4  0
  7 26  4  0
  8 10  4  0
  8 25  4  0
  9 15  4  0
  9 17  1  0
 10 21  4  0
 11 25  4  0
 12 23  4  0
 13 20  4  0
 13 26  4  0
 14 19  4  0
 17 18  4  0
 17 24  4  0
 19 23  4  0
 20 24  4  0
 23 26  1  0
M  END
$$$$

 Created by Python create_sdf_string function

 26 30  0  0  0  0  0  0  0  0999 V2000
   10.0084   -1.8019   23.4945 C   0  0  0  0  0  0  0  0  0  0  0  0
   10.0005   -4.2520   16.5631 C   0  0  0  0  0  0  0  0  0  0  0  0
   10.2759   -4.0036   17.8845 C   0  0  0  0  0  0  0  0  0  0  0  0
    8.5652    1.5478   25.3778 N   0  0  0  0  0  0  0  0  0  0  0  0
    6.8048   -7.5457   17.8752 C   0  0  0  0  0  0  0  0  0  0  0  0
    6.1721   -8.2186   15.9886 N   0  0  0  0  0  0  0  0  0  0  0  0
   11.1764   -2.6600   19.5604 C   0  0  0  0  0  0  0  0  0  0  0  0
    9.5491   -0.6380   24.1912 C   0  0  0  0  0  0  0  0  0  0  0  0
    7.5337   -6.9256   16.9519 C   0  0  0  0  0  0  0  0  0  0  0  0
    9.6782    0.5671   23.5143 C   0  0  0  0  0  0  0  0  0  0  0  0
    8.4532    0.3482   26.0821 C   0  0  0  0  0  0  0  0  0  0  0  0
   10.4239   -1.7677   22.2230 N   0  0  0  0  0  0  0  0  0  0  0  0
    9.9468   -4.5953   20.1709 C   0  0  0  0  0  0  0  0  0  0  0  0
   10.0366   -3.0590   23.9864 N   0  0  0  0  0  0  0  0  0  0  0  0
    7.1191   -7.3636   15.7739 C   0  0  0  0  0  0  0  0  0  0  0  0
    5.9612   -8.3203   17.2732 N   0  0  0  0  0  0  0  0  0  0  0  0
    8.5296   -5.9814   17.1841 C   0  0  0  0  0  0  0  0  0  0  0  0
    9.1527   -5.2118   16.2116 C   0  0  0  0  0  0  0  0  0  0  0  0
   10.3364   -3.8368   22.9255 O   0  0  0  0  0  0  0  0  0  0  0  0
    9.6947   -4.8407   18.8534 C   0  0  0  0  0  0  0  0  0  0  0  0
    9.1596    1.7042   24.1381 C   0  0  0  0  0  0  0  0  0  0  0  0
   11.0456   -2.9774   18.2694 N   0  0  0  0  0  0  0  0  0  0  0  0
   10.4788   -3.0457   21.8593 C   0  0  0  0  0  0  0  0  0  0  0  0
    8.8693   -5.8099   18.4657 N   0  0  0  0  0  0  0  0  0  0  0  0
    8.9892   -0.7926   25.4573 C   0  0  0  0  0  0  0  0  0  0  0  0
   10.5677   -3.4462   20.5323 C   0  0  0  0  0  0  0  0  0  0  0  0
  1  8  1  0
  1 12  4  0
  1 14  4  0
  2  3  4  0
  2 18  4  0
  3 20  4  0
  3 22  4  0
  4 11  4  0
  4 21  4  0
  5  9  4  0
  5 16  4  0
  6 15  4  0
  6 16  4  0
  7 22  4  0
  7 26  4  0
  8 10  4  0
  8 25  4  0
  9 15  4  0
  9 17  1  0
 10 21  4  0
 11 25  4  0
 12 23  4  0
 13 20  4  0
 13 26  4  0
 14 19  4  0
 17 18  4  0
 17 24  4  0
 19 23  4  0
 20 24  4  0
 23 26  1  0
M  END
$$$$

 Created by Python create_sdf_string function

 26 30  0  0  0  0  0  0  0  0999 V2000
   10.0084   -1.8019   23.4945 C   0  0  0  0  0  0  0  0  0  0  0  0
   10.0005   -4.2520   16.5631 C   0  0  0  0  0  0  0  0  0  0  0  0
   10.2759   -4.0036   17.8845 C   0  0  0  0  0  0  0  0  0  0  0  0
    8.5652    1.5478   25.3778 N   0  0  0  0  0  0  0  0  0  0  0  0
    6.8048   -7.5457   17.8752 C   0  0  0  0  0  0  0  0  0  0  0  0
    6.1721   -8.2186   15.9886 N   0  0  0  0  0  0  0  0  0  0  0  0
   11.1764   -2.6600   19.5604 C   0  0  0  0  0  0  0  0  0  0  0  0
    9.5491   -0.6380   24.1912 C   0  0  0  0  0  0  0  0  0  0  0  0
    7.5337   -6.9256   16.9519 C   0  0  0  0  0  0  0  0  0  0  0  0
    9.6782    0.5671   23.5143 C   0  0  0  0  0  0  0  0  0  0  0  0
    8.4532    0.3482   26.0821 C   0  0  0  0  0  0  0  0  0  0  0  0
   10.4239   -1.7677   22.2230 N   0  0  0  0  0  0  0  0  0  0  0  0
    9.9468   -4.5953   20.1709 C   0  0  0  0  0  0  0  0  0  0  0  0
   10.0366   -3.0590   23.9864 N   0  0  0  0  0  0  0  0  0  0  0  0
    7.1191   -7.3636   15.7739 C   0  0  0  0  0  0  0  0  0  0  0  0
    5.9612   -8.3203   17.2732 N   0  0  0  0  0  0  0  0  0  0  0  0
    8.5296   -5.9814   17.1841 C   0  0  0  0  0  0  0  0  0  0  0  0
    9.1527   -5.2118   16.2116 C   0  0  0  0  0  0  0  0  0  0  0  0
   10.3364   -3.8368   22.9255 O   0  0  0  0  0  0  0  0  0  0  0  0
    9.6947   -4.8407   18.8534 C   0  0  0  0  0  0  0  0  0  0  0  0
    9.1596    1.7042   24.1381 C   0  0  0  0  0  0  0  0  0  0  0  0
   11.0456   -2.9774   18.2694 N   0  0  0  0  0  0  0  0  0  0  0  0
   10.4788   -3.0457   21.8593 C   0  0  0  0  0  0  0  0  0  0  0  0
    8.8693   -5.8099   18.4657 N   0  0  0  0  0  0  0  0  0  0  0  0
    8.9892   -0.7926   25.4573 C   0  0  0  0  0  0  0  0  0  0  0  0
   10.5677   -3.4462   20.5323 C   0  0  0  0  0  0  0  0  0  0  0  0
  1  8  1  0
  1 12  4  0
  1 14  4  0
  2  3  4  0
  2 18  4  0
  3 20  4  0
  3 22  4  0
  4 11  4  0
  4 21  4  0
  5  9  4  0
  5 16  4  0
  6 15  4  0
  6 16  4  0
  7 22  4  0
  7 26  4  0
  8 10  4  0
  8 25  4  0
  9 15  4  0
  9 17  1  0
 10 21  4  0
 11 25  4  0
 12 23  4  0
 13 20  4  0
 13 26  4  0
 14 19  4  0
 17 18  4  0
 17 24  4  0
 19 23  4  0
 20 24  4  0
 23 26  1  0
M  END
$$$$

 Created by Python create_sdf_string function

 26 30  0  0  0  0  0  0  0  0999 V2000
   10.0084   -1.8019   23.4945 C   0  0  0  0  0  0  0  0  0  0  0  0
   10.0005   -4.2520   16.5631 C   0  0  0  0  0  0  0  0  0  0  0  0
   10.2759   -4.0036   17.8845 C   0  0  0  0  0  0  0  0  0  0  0  0
    8.5652    1.5478   25.3778 N   0  0  0  0  0  0  0  0  0  0  0  0
    6.8048   -7.5457   17.8752 C   0  0  0  0  0  0  0  0  0  0  0  0
    6.1721   -8.2186   15.9886 N   0  0  0  0  0  0  0  0  0  0  0  0
   11.1764   -2.6600   19.5604 C   0  0  0  0  0  0  0  0  0  0  0  0
    9.5491   -0.6380   24.1912 C   0  0  0  0  0  0  0  0  0  0  0  0
    7.5337   -6.9256   16.9519 C   0  0  0  0  0  0  0  0  0  0  0  0
    9.6782    0.5671   23.5143 C   0  0  0  0  0  0  0  0  0  0  0  0
    8.4532    0.3482   26.0821 C   0  0  0  0  0  0  0  0  0  0  0  0
   10.4239   -1.7677   22.2230 N   0  0  0  0  0  0  0  0  0  0  0  0
    9.9468   -4.5953   20.1709 C   0  0  0  0  0  0  0  0  0  0  0  0
   10.0366   -3.0590   23.9864 N   0  0  0  0  0  0  0  0  0  0  0  0
    7.1191   -7.3636   15.7739 C   0  0  0  0  0  0  0  0  0  0  0  0
    5.9612   -8.3203   17.2732 N   0  0  0  0  0  0  0  0  0  0  0  0
    8.5296   -5.9814   17.1841 C   0  0  0  0  0  0  0  0  0  0  0  0
    9.1527   -5.2118   16.2116 C   0  0  0  0  0  0  0  0  0  0  0  0
   10.3364   -3.8368   22.9255 O   0  0  0  0  0  0  0  0  0  0  0  0
    9.6947   -4.8407   18.8534 C   0  0  0  0  0  0  0  0  0  0  0  0
    9.1596    1.7042   24.1381 C   0  0  0  0  0  0  0  0  0  0  0  0
   11.0456   -2.9774   18.2694 N   0  0  0  0  0  0  0  0  0  0  0  0
   10.4788   -3.0457   21.8593 C   0  0  0  0  0  0  0  0  0  0  0  0
    8.8693   -5.8099   18.4657 N   0  0  0  0  0  0  0  0  0  0  0  0
    8.9892   -0.7926   25.4573 C   0  0  0  0  0  0  0  0  0  0  0  0
   10.5677   -3.4462   20.5323 C   0  0  0  0  0  0  0  0  0  0  0  0
  1  8  1  0
  1 12  4  0
  1 14  4  0
  2  3  4  0
  2 18  4  0
  3 20  4  0
  3 22  4  0
  4 11  4  0
  4 21  4  0
  5  9  4  0
  5 16  4  0
  6 15  4  0
  6 16  4  0
  7 22  4  0
  7 26  4  0
  8 10  4  0
  8 25  4  0
  9 15  4  0
  9 17  1  0
 10 21  4  0
 11 25  4  0
 12 23  4  0
 13 20  4  0
 13 26  4  0
 14 19  4  0
 17 18  4  0
 17 24  4  0
 19 23  4  0
 20 24  4  0
 23 26  1  0
M  END
$$$$

 Created by Python create_sdf_string function

 26 30  0  0  0  0  0  0  0  0999 V2000
   10.0084   -1.8019   23.4945 C   0  0  0  0  0  0  0  0  0  0  0  0
   10.0005   -4.2520   16.5631 C   0  0  0  0  0  0  0  0  0  0  0  0
   10.2759   -4.0036   17.8845 C   0  0  0  0  0  0  0  0  0  0  0  0
    8.5652    1.5478   25.3778 N   0  0  0  0  0  0  0  0  0  0  0  0
    6.8048   -7.5457   17.8752 C   0  0  0  0  0  0  0  0  0  0  0  0
    6.1721   -8.2186   15.9886 N   0  0  0  0  0  0  0  0  0  0  0  0
   11.1764   -2.6600   19.5604 C   0  0  0  0  0  0  0  0  0  0  0  0
    9.5491   -0.6380   24.1912 C   0  0  0  0  0  0  0  0  0  0  0  0
    7.5337   -6.9256   16.9519 C   0  0  0  0  0  0  0  0  0  0  0  0
    9.6782    0.5671   23.5143 C   0  0  0  0  0  0  0  0  0  0  0  0
    8.4532    0.3482   26.0821 C   0  0  0  0  0  0  0  0  0  0  0  0
   10.4239   -1.7677   22.2230 N   0  0  0  0  0  0  0  0  0  0  0  0
    9.9468   -4.5953   20.1709 C   0  0  0  0  0  0  0  0  0  0  0  0
   10.0366   -3.0590   23.9864 N   0  0  0  0  0  0  0  0  0  0  0  0
    7.1191   -7.3636   15.7739 C   0  0  0  0  0  0  0  0  0  0  0  0
    5.9612   -8.3203   17.2732 N   0  0  0  0  0  0  0  0  0  0  0  0
    8.5296   -5.9814   17.1841 C   0  0  0  0  0  0  0  0  0  0  0  0
    9.1527   -5.2118   16.2116 C   0  0  0  0  0  0  0  0  0  0  0  0
   10.3364   -3.8368   22.9255 O   0  0  0  0  0  0  0  0  0  0  0  0
    9.6947   -4.8407   18.8534 C   0  0  0  0  0  0  0  0  0  0  0  0
    9.1596    1.7042   24.1381 C   0  0  0  0  0  0  0  0  0  0  0  0
   11.0456   -2.9774   18.2694 N   0  0  0  0  0  0  0  0  0  0  0  0
   10.4788   -3.0457   21.8593 C   0  0  0  0  0  0  0  0  0  0  0  0
    8.8693   -5.8099   18.4657 N   0  0  0  0  0  0  0  0  0  0  0  0
    8.9892   -0.7926   25.4573 C   0  0  0  0  0  0  0  0  0  0  0  0
   10.5677   -3.4462   20.5323 C   0  0  0  0  0  0  0  0  0  0  0  0
  1  8  1  0
  1 12  4  0
  1 14  4  0
  2  3  4  0
  2 18  4  0
  3 20  4  0
  3 22  4  0
  4 11  4  0
  4 21  4  0
  5  9  4  0
  5 16  4  0
  6 15  4  0
  6 16  4  0
  7 22  4  0
  7 26  4  0
  8 10  4  0
  8 25  4  0
  9 15  4  0
  9 17  1  0
 10 21  4  0
 11 25  4  0
 12 23  4  0
 13 20  4  0
 13 26  4  0
 14 19  4  0
 17 18  4  0
 17 24  4  0
 19 23  4  0
 20 24  4  0
 23 26  1  0
M  END
$$$$

 Created by Python create_sdf_string function

 26 30  0  0  0  0  0  0  0  0999 V2000
   10.0084   -1.8019   23.4945 C   0  0  0  0  0  0  0  0  0  0  0  0
   10.0005   -4.2520   16.5631 C   0  0  0  0  0  0  0  0  0  0  0  0
   10.2759   -4.0036   17.8845 C   0  0  0  0  0  0  0  0  0  0  0  0
    8.5652    1.5478   25.3778 N   0  0  0  0  0  0  0  0  0  0  0  0
    6.8048   -7.5457   17.8752 C   0  0  0  0  0  0  0  0  0  0  0  0
    6.1721   -8.2186   15.9886 N   0  0  0  0  0  0  0  0  0  0  0  0
   11.1764   -2.6600   19.5604 C   0  0  0  0  0  0  0  0  0  0  0  0
    9.5491   -0.6380   24.1912 C   0  0  0  0  0  0  0  0  0  0  0  0
    7.5337   -6.9256   16.9519 C   0  0  0  0  0  0  0  0  0  0  0  0
    9.6782    0.5671   23.5143 C   0  0  0  0  0  0  0  0  0  0  0  0
    8.4532    0.3482   26.0821 C   0  0  0  0  0  0  0  0  0  0  0  0
   10.4239   -1.7677   22.2230 N   0  0  0  0  0  0  0  0  0  0  0  0
    9.9468   -4.5953   20.1709 C   0  0  0  0  0  0  0  0  0  0  0  0
   10.0366   -3.0590   23.9864 N   0  0  0  0  0  0  0  0  0  0  0  0
    7.1191   -7.3636   15.7739 C   0  0  0  0  0  0  0  0  0  0  0  0
    5.9612   -8.3203   17.2732 N   0  0  0  0  0  0  0  0  0  0  0  0
    8.5296   -5.9814   17.1841 C   0  0  0  0  0  0  0  0  0  0  0  0
    9.1527   -5.2118   16.2116 C   0  0  0  0  0  0  0  0  0  0  0  0
   10.3364   -3.8368   22.9255 O   0  0  0  0  0  0  0  0  0  0  0  0
    9.6947   -4.8407   18.8534 C   0  0  0  0  0  0  0  0  0  0  0  0
    9.1596    1.7042   24.1381 C   0  0  0  0  0  0  0  0  0  0  0  0
   11.0456   -2.9774   18.2694 N   0  0  0  0  0  0  0  0  0  0  0  0
   10.4788   -3.0457   21.8593 C   0  0  0  0  0  0  0  0  0  0  0  0
    8.8693   -5.8099   18.4657 N   0  0  0  0  0  0  0  0  0  0  0  0
    8.9892   -0.7926   25.4573 C   0  0  0  0  0  0  0  0  0  0  0  0
   10.5677   -3.4462   20.5323 C   0  0  0  0  0  0  0  0  0  0  0  0
  1  8  1  0
  1 12  4  0
  1 14  4  0
  2  3  4  0
  2 18  4  0
  3 20  4  0
  3 22  4  0
  4 11  4  0
  4 21  4  0
  5  9  4  0
  5 16  4  0
  6 15  4  0
  6 16  4  0
  7 22  4  0
  7 26  4  0
  8 10  4  0
  8 25  4  0
  9 15  4  0
  9 17  1  0
 10 21  4  0
 11 25  4  0
 12 23  4  0
 13 20  4  0
 13 26  4  0
 14 19  4  0
 17 18  4  0
 17 24  4  0
 19 23  4  0
 20 24  4  0
 23 26  1  0
M  END
$$$$

 Created by Python create_sdf_string function

 26 30  0  0  0  0  0  0  0  0999 V2000
   10.0084   -1.8019   23.4945 C   0  0  0  0  0  0  0  0  0  0  0  0
   10.0005   -4.2520   16.5631 C   0  0  0  0  0  0  0  0  0  0  0  0
   10.2759   -4.0036   17.8845 C   0  0  0  0  0  0  0  0  0  0  0  0
    8.5652    1.5478   25.3778 N   0  0  0  0  0  0  0  0  0  0  0  0
    6.8048   -7.5457   17.8752 C   0  0  0  0  0  0  0  0  0  0  0  0
    6.1721   -8.2186   15.9886 N   0  0  0  0  0  0  0  0  0  0  0  0
   11.1764   -2.6600   19.5604 C   0  0  0  0  0  0  0  0  0  0  0  0
    9.5491   -0.6380   24.1912 C   0  0  0  0  0  0  0  0  0  0  0  0
    7.5337   -6.9256   16.9519 C   0  0  0  0  0  0  0  0  0  0  0  0
    9.6782    0.5671   23.5143 C   0  0  0  0  0  0  0  0  0  0  0  0
    8.4532    0.3482   26.0821 C   0  0  0  0  0  0  0  0  0  0  0  0
   10.4239   -1.7677   22.2230 N   0  0  0  0  0  0  0  0  0  0  0  0
    9.9468   -4.5953   20.1709 C   0  0  0  0  0  0  0  0  0  0  0  0
   10.0366   -3.0590   23.9864 N   0  0  0  0  0  0  0  0  0  0  0  0
    7.1191   -7.3636   15.7739 C   0  0  0  0  0  0  0  0  0  0  0  0
    5.9612   -8.3203   17.2732 N   0  0  0  0  0  0  0  0  0  0  0  0
    8.5296   -5.9814   17.1841 C   0  0  0  0  0  0  0  0  0  0  0  0
    9.1527   -5.2118   16.2116 C   0  0  0  0  0  0  0  0  0  0  0  0
   10.3364   -3.8368   22.9255 O   0  0  0  0  0  0  0  0  0  0  0  0
    9.6947   -4.8407   18.8534 C   0  0  0  0  0  0  0  0  0  0  0  0
    9.1596    1.7042   24.1381 C   0  0  0  0  0  0  0  0  0  0  0  0
   11.0456   -2.9774   18.2694 N   0  0  0  0  0  0  0  0  0  0  0  0
   10.4788   -3.0457   21.8593 C   0  0  0  0  0  0  0  0  0  0  0  0
    8.8693   -5.8099   18.4657 N   0  0  0  0  0  0  0  0  0  0  0  0
    8.9892   -0.7926   25.4573 C   0  0  0  0  0  0  0  0  0  0  0  0
   10.5677   -3.4462   20.5323 C   0  0  0  0  0  0  0  0  0  0  0  0
  1  8  1  0
  1 12  4  0
  1 14  4  0
  2  3  4  0
  2 18  4  0
  3 20  4  0
  3 22  4  0
  4 11  4  0
  4 21  4  0
  5  9  4  0
  5 16  4  0
  6 15  4  0
  6 16  4  0
  7 22  4  0
  7 26  4  0
  8 10  4  0
  8 25  4  0
  9 15  4  0
  9 17  1  0
 10 21  4  0
 11 25  4  0
 12 23  4  0
 13 20  4  0
 13 26  4  0
 14 19  4  0
 17 18  4  0
 17 24  4  0
 19 23  4  0
 20 24  4  0
 23 26  1  0
M  END
$$$$

 Created by Python create_sdf_string function

 26 30  0  0  0  0  0  0  0  0999 V2000
   10.0084   -1.8019   23.4945 C   0  0  0  0  0  0  0  0  0  0  0  0
   10.0005   -4.2520   16.5631 C   0  0  0  0  0  0  0  0  0  0  0  0
   10.2759   -4.0036   17.8845 C   0  0  0  0  0  0  0  0  0  0  0  0
    8.5652    1.5478   25.3778 N   0  0  0  0  0  0  0  0  0  0  0  0
    6.8048   -7.5457   17.8752 C   0  0  0  0  0  0  0  0  0  0  0  0
    6.1721   -8.2186   15.9886 N   0  0  0  0  0  0  0  0  0  0  0  0
   11.1764   -2.6600   19.5604 C   0  0  0  0  0  0  0  0  0  0  0  0
    9.5491   -0.6380   24.1912 C   0  0  0  0  0  0  0  0  0  0  0  0
    7.5337   -6.9256   16.9519 C   0  0  0  0  0  0  0  0  0  0  0  0
    9.6782    0.5671   23.5143 C   0  0  0  0  0  0  0  0  0  0  0  0
    8.4532    0.3482   26.0821 C   0  0  0  0  0  0  0  0  0  0  0  0
   10.4239   -1.7677   22.2230 N   0  0  0  0  0  0  0  0  0  0  0  0
    9.9468   -4.5953   20.1709 C   0  0  0  0  0  0  0  0  0  0  0  0
   10.0366   -3.0590   23.9864 N   0  0  0  0  0  0  0  0  0  0  0  0
    7.1191   -7.3636   15.7739 C   0  0  0  0  0  0  0  0  0  0  0  0
    5.9612   -8.3203   17.2732 N   0  0  0  0  0  0  0  0  0  0  0  0
    8.5296   -5.9814   17.1841 C   0  0  0  0  0  0  0  0  0  0  0  0
    9.1527   -5.2118   16.2116 C   0  0  0  0  0  0  0  0  0  0  0  0
   10.3364   -3.8368   22.9255 O   0  0  0  0  0  0  0  0  0  0  0  0
    9.6947   -4.8407   18.8534 C   0  0  0  0  0  0  0  0  0  0  0  0
    9.1596    1.7042   24.1381 C   0  0  0  0  0  0  0  0  0  0  0  0
   11.0456   -2.9774   18.2694 N   0  0  0  0  0  0  0  0  0  0  0  0
   10.4788   -3.0457   21.8593 C   0  0  0  0  0  0  0  0  0  0  0  0
    8.8693   -5.8099   18.4657 N   0  0  0  0  0  0  0  0  0  0  0  0
    8.9892   -0.7926   25.4573 C   0  0  0  0  0  0  0  0  0  0  0  0
   10.5677   -3.4462   20.5323 C   0  0  0  0  0  0  0  0  0  0  0  0
  1  8  1  0
  1 12  4  0
  1 14  4  0
  2  3  4  0
  2 18  4  0
  3 20  4  0
  3 22  4  0
  4 11  4  0
  4 21  4  0
  5  9  4  0
  5 16  4  0
  6 15  4  0
  6 16  4  0
  7 22  4  0
  7 26  4  0
  8 10  4  0
  8 25  4  0
  9 15  4  0
  9 17  1  0
 10 21  4  0
 11 25  4  0
 12 23  4  0
 13 20  4  0
 13 26  4  0
 14 19  4  0
 17 18  4  0
 17 24  4  0
 19 23  4  0
 20 24  4  0
 23 26  1  0
M  END
$$$$

 Created by Python create_sdf_string function

 26 30  0  0  0  0  0  0  0  0999 V2000
   10.0084   -1.8019   23.4945 C   0  0  0  0  0  0  0  0  0  0  0  0
   10.0005   -4.2520   16.5631 C   0  0  0  0  0  0  0  0  0  0  0  0
   10.2759   -4.0036   17.8845 C   0  0  0  0  0  0  0  0  0  0  0  0
    8.5652    1.5478   25.3778 N   0  0  0  0  0  0  0  0  0  0  0  0
    6.8048   -7.5457   17.8752 C   0  0  0  0  0  0  0  0  0  0  0  0
    6.1721   -8.2186   15.9886 N   0  0  0  0  0  0  0  0  0  0  0  0
   11.1764   -2.6600   19.5604 C   0  0  0  0  0  0  0  0  0  0  0  0
    9.5491   -0.6380   24.1912 C   0  0  0  0  0  0  0  0  0  0  0  0
    7.5337   -6.9256   16.9519 C   0  0  0  0  0  0  0  0  0  0  0  0
    9.6782    0.5671   23.5143 C   0  0  0  0  0  0  0  0  0  0  0  0
    8.4532    0.3482   26.0821 C   0  0  0  0  0  0  0  0  0  0  0  0
   10.4239   -1.7677   22.2230 N   0  0  0  0  0  0  0  0  0  0  0  0
    9.9468   -4.5953   20.1709 C   0  0  0  0  0  0  0  0  0  0  0  0
   10.0366   -3.0590   23.9864 N   0  0  0  0  0  0  0  0  0  0  0  0
    7.1191   -7.3636   15.7739 C   0  0  0  0  0  0  0  0  0  0  0  0
    5.9612   -8.3203   17.2732 N   0  0  0  0  0  0  0  0  0  0  0  0
    8.5296   -5.9814   17.1841 C   0  0  0  0  0  0  0  0  0  0  0  0
    9.1527   -5.2118   16.2116 C   0  0  0  0  0  0  0  0  0  0  0  0
   10.3364   -3.8368   22.9255 O   0  0  0  0  0  0  0  0  0  0  0  0
    9.6947   -4.8407   18.8534 C   0  0  0  0  0  0  0  0  0  0  0  0
    9.1596    1.7042   24.1381 C   0  0  0  0  0  0  0  0  0  0  0  0
   11.0456   -2.9774   18.2694 N   0  0  0  0  0  0  0  0  0  0  0  0
   10.4788   -3.0457   21.8593 C   0  0  0  0  0  0  0  0  0  0  0  0
    8.8693   -5.8099   18.4657 N   0  0  0  0  0  0  0  0  0  0  0  0
    8.9892   -0.7926   25.4573 C   0  0  0  0  0  0  0  0  0  0  0  0
   10.5677   -3.4462   20.5323 C   0  0  0  0  0  0  0  0  0  0  0  0
  1  8  1  0
  1 12  4  0
  1 14  4  0
  2  3  4  0
  2 18  4  0
  3 20  4  0
  3 22  4  0
  4 11  4  0
  4 21  4  0
  5  9  4  0
  5 16  4  0
  6 15  4  0
  6 16  4  0
  7 22  4  0
  7 26  4  0
  8 10  4  0
  8 25  4  0
  9 15  4  0
  9 17  1  0
 10 21  4  0
 11 25  4  0
 12 23  4  0
 13 20  4  0
 13 26  4  0
 14 19  4  0
 17 18  4  0
 17 24  4  0
 19 23  4  0
 20 24  4  0
 23 26  1  0
M  END
$$$$

 Created by Python create_sdf_string function

 26 30  0  0  0  0  0  0  0  0999 V2000
   10.0084   -1.8019   23.4945 C   0  0  0  0  0  0  0  0  0  0  0  0
   10.0005   -4.2520   16.5631 C   0  0  0  0  0  0  0  0  0  0  0  0
   10.2759   -4.0036   17.8845 C   0  0  0  0  0  0  0  0  0  0  0  0
    8.5652    1.5478   25.3778 N   0  0  0  0  0  0  0  0  0  0  0  0
    6.8048   -7.5457   17.8752 C   0  0  0  0  0  0  0  0  0  0  0  0
    6.1721   -8.2186   15.9886 N   0  0  0  0  0  0  0  0  0  0  0  0
   11.1764   -2.6600   19.5604 C   0  0  0  0  0  0  0  0  0  0  0  0
    9.5491   -0.6380   24.1912 C   0  0  0  0  0  0  0  0  0  0  0  0
    7.5337   -6.9256   16.9519 C   0  0  0  0  0  0  0  0  0  0  0  0
    9.6782    0.5671   23.5143 C   0  0  0  0  0  0  0  0  0  0  0  0
    8.4532    0.3482   26.0821 C   0  0  0  0  0  0  0  0  0  0  0  0
   10.4239   -1.7677   22.2230 N   0  0  0  0  0  0  0  0  0  0  0  0
    9.9468   -4.5953   20.1709 C   0  0  0  0  0  0  0  0  0  0  0  0
   10.0366   -3.0590   23.9864 N   0  0  0  0  0  0  0  0  0  0  0  0
    7.1191   -7.3636   15.7739 C   0  0  0  0  0  0  0  0  0  0  0  0
    5.9612   -8.3203   17.2732 N   0  0  0  0  0  0  0  0  0  0  0  0
    8.5296   -5.9814   17.1841 C   0  0  0  0  0  0  0  0  0  0  0  0
    9.1527   -5.2118   16.2116 C   0  0  0  0  0  0  0  0  0  0  0  0
   10.3364   -3.8368   22.9255 O   0  0  0  0  0  0  0  0  0  0  0  0
    9.6947   -4.8407   18.8534 C   0  0  0  0  0  0  0  0  0  0  0  0
    9.1596    1.7042   24.1381 C   0  0  0  0  0  0  0  0  0  0  0  0
   11.0456   -2.9774   18.2694 N   0  0  0  0  0  0  0  0  0  0  0  0
   10.4788   -3.0457   21.8593 C   0  0  0  0  0  0  0  0  0  0  0  0
    8.8693   -5.8099   18.4657 N   0  0  0  0  0  0  0  0  0  0  0  0
    8.9892   -0.7926   25.4573 C   0  0  0  0  0  0  0  0  0  0  0  0
   10.5677   -3.4462   20.5323 C   0  0  0  0  0  0  0  0  0  0  0  0
  1  8  1  0
  1 12  4  0
  1 14  4  0
  2  3  4  0
  2 18  4  0
  3 20  4  0
  3 22  4  0
  4 11  4  0
  4 21  4  0
  5  9  4  0
  5 16  4  0
  6 15  4  0
  6 16  4  0
  7 22  4  0
  7 26  4  0
  8 10  4  0
  8 25  4  0
  9 15  4  0
  9 17  1  0
 10 21  4  0
 11 25  4  0
 12 23  4  0
 13 20  4  0
 13 26  4  0
 14 19  4  0
 17 18  4  0
 17 24  4  0
 19 23  4  0
 20 24  4  0
 23 26  1  0
M  END
$$$$

 Created by Python create_sdf_string function

 26 30  0  0  0  0  0  0  0  0999 V2000
   10.0084   -1.8019   23.4945 C   0  0  0  0  0  0  0  0  0  0  0  0
   10.0005   -4.2520   16.5631 C   0  0  0  0  0  0  0  0  0  0  0  0
   10.2759   -4.0036   17.8845 C   0  0  0  0  0  0  0  0  0  0  0  0
    8.5652    1.5478   25.3778 N   0  0  0  0  0  0  0  0  0  0  0  0
    6.8048   -7.5457   17.8752 C   0  0  0  0  0  0  0  0  0  0  0  0
    6.1721   -8.2186   15.9886 N   0  0  0  0  0  0  0  0  0  0  0  0
   11.1764   -2.6600   19.5604 C   0  0  0  0  0  0  0  0  0  0  0  0
    9.5491   -0.6380   24.1912 C   0  0  0  0  0  0  0  0  0  0  0  0
    7.5337   -6.9256   16.9519 C   0  0  0  0  0  0  0  0  0  0  0  0
    9.6782    0.5671   23.5143 C   0  0  0  0  0  0  0  0  0  0  0  0
    8.4532    0.3482   26.0821 C   0  0  0  0  0  0  0  0  0  0  0  0
   10.4239   -1.7677   22.2230 N   0  0  0  0  0  0  0  0  0  0  0  0
    9.9468   -4.5953   20.1709 C   0  0  0  0  0  0  0  0  0  0  0  0
   10.0366   -3.0590   23.9864 N   0  0  0  0  0  0  0  0  0  0  0  0
    7.1191   -7.3636   15.7739 C   0  0  0  0  0  0  0  0  0  0  0  0
    5.9612   -8.3203   17.2732 N   0  0  0  0  0  0  0  0  0  0  0  0
    8.5296   -5.9814   17.1841 C   0  0  0  0  0  0  0  0  0  0  0  0
    9.1527   -5.2118   16.2116 C   0  0  0  0  0  0  0  0  0  0  0  0
   10.3364   -3.8368   22.9255 O   0  0  0  0  0  0  0  0  0  0  0  0
    9.6947   -4.8407   18.8534 C   0  0  0  0  0  0  0  0  0  0  0  0
    9.1596    1.7042   24.1381 C   0  0  0  0  0  0  0  0  0  0  0  0
   11.0456   -2.9774   18.2694 N   0  0  0  0  0  0  0  0  0  0  0  0
   10.4788   -3.0457   21.8593 C   0  0  0  0  0  0  0  0  0  0  0  0
    8.8693   -5.8099   18.4657 N   0  0  0  0  0  0  0  0  0  0  0  0
    8.9892   -0.7926   25.4573 C   0  0  0  0  0  0  0  0  0  0  0  0
   10.5677   -3.4462   20.5323 C   0  0  0  0  0  0  0  0  0  0  0  0
  1  8  1  0
  1 12  4  0
  1 14  4  0
  2  3  4  0
  2 18  4  0
  3 20  4  0
  3 22  4  0
  4 11  4  0
  4 21  4  0
  5  9  4  0
  5 16  4  0
  6 15  4  0
  6 16  4  0
  7 22  4  0
  7 26  4  0
  8 10  4  0
  8 25  4  0
  9 15  4  0
  9 17  1  0
 10 21  4  0
 11 25  4  0
 12 23  4  0
 13 20  4  0
 13 26  4  0
 14 19  4  0
 17 18  4  0
 17 24  4  0
 19 23  4  0
 20 24  4  0
 23 26  1  0
M  END
$$$$

 Created by Python create_sdf_string function

 26 30  0  0  0  0  0  0  0  0999 V2000
   10.0084   -1.8019   23.4945 C   0  0  0  0  0  0  0  0  0  0  0  0
   10.0005   -4.2520   16.5631 C   0  0  0  0  0  0  0  0  0  0  0  0
   10.2759   -4.0036   17.8845 C   0  0  0  0  0  0  0  0  0  0  0  0
    8.5652    1.5478   25.3778 N   0  0  0  0  0  0  0  0  0  0  0  0
    6.8048   -7.5457   17.8752 C   0  0  0  0  0  0  0  0  0  0  0  0
    6.1721   -8.2186   15.9886 N   0  0  0  0  0  0  0  0  0  0  0  0
   11.1764   -2.6600   19.5604 C   0  0  0  0  0  0  0  0  0  0  0  0
    9.5491   -0.6380   24.1912 C   0  0  0  0  0  0  0  0  0  0  0  0
    7.5337   -6.9256   16.9519 C   0  0  0  0  0  0  0  0  0  0  0  0
    9.6782    0.5671   23.5143 C   0  0  0  0  0  0  0  0  0  0  0  0
    8.4532    0.3482   26.0821 C   0  0  0  0  0  0  0  0  0  0  0  0
   10.4239   -1.7677   22.2230 N   0  0  0  0  0  0  0  0  0  0  0  0
    9.9468   -4.5953   20.1709 C   0  0  0  0  0  0  0  0  0  0  0  0
   10.0366   -3.0590   23.9864 N   0  0  0  0  0  0  0  0  0  0  0  0
    7.1191   -7.3636   15.7739 C   0  0  0  0  0  0  0  0  0  0  0  0
    5.9612   -8.3203   17.2732 N   0  0  0  0  0  0  0  0  0  0  0  0
    8.5296   -5.9814   17.1841 C   0  0  0  0  0  0  0  0  0  0  0  0
    9.1527   -5.2118   16.2116 C   0  0  0  0  0  0  0  0  0  0  0  0
   10.3364   -3.8368   22.9255 O   0  0  0  0  0  0  0  0  0  0  0  0
    9.6947   -4.8407   18.8534 C   0  0  0  0  0  0  0  0  0  0  0  0
    9.1596    1.7042   24.1381 C   0  0  0  0  0  0  0  0  0  0  0  0
   11.0456   -2.9774   18.2694 N   0  0  0  0  0  0  0  0  0  0  0  0
   10.4788   -3.0457   21.8593 C   0  0  0  0  0  0  0  0  0  0  0  0
    8.8693   -5.8099   18.4657 N   0  0  0  0  0  0  0  0  0  0  0  0
    8.9892   -0.7926   25.4573 C   0  0  0  0  0  0  0  0  0  0  0  0
   10.5677   -3.4462   20.5323 C   0  0  0  0  0  0  0  0  0  0  0  0
  1  8  1  0
  1 12  4  0
  1 14  4  0
  2  3  4  0
  2 18  4  0
  3 20  4  0
  3 22  4  0
  4 11  4  0
  4 21  4  0
  5  9  4  0
  5 16  4  0
  6 15  4  0
  6 16  4  0
  7 22  4  0
  7 26  4  0
  8 10  4  0
  8 25  4  0
  9 15  4  0
  9 17  1  0
 10 21  4  0
 11 25  4  0
 12 23  4  0
 13 20  4  0
 13 26  4  0
 14 19  4  0
 17 18  4  0
 17 24  4  0
 19 23  4  0
 20 24  4  0
 23 26  1  0
M  END
$$$$

 Created by Python create_sdf_string function

 26 30  0  0  0  0  0  0  0  0999 V2000
   10.0084   -1.8019   23.4945 C   0  0  0  0  0  0  0  0  0  0  0  0
   10.0005   -4.2520   16.5631 C   0  0  0  0  0  0  0  0  0  0  0  0
   10.2759   -4.0036   17.8845 C   0  0  0  0  0  0  0  0  0  0  0  0
    8.5652    1.5478   25.3778 N   0  0  0  0  0  0  0  0  0  0  0  0
    6.8048   -7.5457   17.8752 C   0  0  0  0  0  0  0  0  0  0  0  0
    6.1721   -8.2186   15.9886 N   0  0  0  0  0  0  0  0  0  0  0  0
   11.1764   -2.6600   19.5604 C   0  0  0  0  0  0  0  0  0  0  0  0
    9.5491   -0.6380   24.1912 C   0  0  0  0  0  0  0  0  0  0  0  0
    7.5337   -6.9256   16.9519 C   0  0  0  0  0  0  0  0  0  0  0  0
    9.6782    0.5671   23.5143 C   0  0  0  0  0  0  0  0  0  0  0  0
    8.4532    0.3482   26.0821 C   0  0  0  0  0  0  0  0  0  0  0  0
   10.4239   -1.7677   22.2230 N   0  0  0  0  0  0  0  0  0  0  0  0
    9.9468   -4.5953   20.1709 C   0  0  0  0  0  0  0  0  0  0  0  0
   10.0366   -3.0590   23.9864 N   0  0  0  0  0  0  0  0  0  0  0  0
    7.1191   -7.3636   15.7739 C   0  0  0  0  0  0  0  0  0  0  0  0
    5.9612   -8.3203   17.2732 N   0  0  0  0  0  0  0  0  0  0  0  0
    8.5296   -5.9814   17.1841 C   0  0  0  0  0  0  0  0  0  0  0  0
    9.1527   -5.2118   16.2116 C   0  0  0  0  0  0  0  0  0  0  0  0
   10.3364   -3.8368   22.9255 O   0  0  0  0  0  0  0  0  0  0  0  0
    9.6947   -4.8407   18.8534 C   0  0  0  0  0  0  0  0  0  0  0  0
    9.1596    1.7042   24.1381 C   0  0  0  0  0  0  0  0  0  0  0  0
   11.0456   -2.9774   18.2694 N   0  0  0  0  0  0  0  0  0  0  0  0
   10.4788   -3.0457   21.8593 C   0  0  0  0  0  0  0  0  0  0  0  0
    8.8693   -5.8099   18.4657 N   0  0  0  0  0  0  0  0  0  0  0  0
    8.9892   -0.7926   25.4573 C   0  0  0  0  0  0  0  0  0  0  0  0
   10.5677   -3.4462   20.5323 C   0  0  0  0  0  0  0  0  0  0  0  0
  1  8  1  0
  1 12  4  0
  1 14  4  0
  2  3  4  0
  2 18  4  0
  3 20  4  0
  3 22  4  0
  4 11  4  0
  4 21  4  0
  5  9  4  0
  5 16  4  0
  6 15  4  0
  6 16  4  0
  7 22  4  0
  7 26  4  0
  8 10  4  0
  8 25  4  0
  9 15  4  0
  9 17  1  0
 10 21  4  0
 11 25  4  0
 12 23  4  0
 13 20  4  0
 13 26  4  0
 14 19  4  0
 17 18  4  0
 17 24  4  0
 19 23  4  0
 20 24  4  0
 23 26  1  0
M  END
$$$$

 Created by Python create_sdf_string function

 26 30  0  0  0  0  0  0  0  0999 V2000
   10.0084   -1.8019   23.4945 C   0  0  0  0  0  0  0  0  0  0  0  0
   10.0005   -4.2520   16.5631 C   0  0  0  0  0  0  0  0  0  0  0  0
   10.2759   -4.0036   17.8845 C   0  0  0  0  0  0  0  0  0  0  0  0
    8.5652    1.5478   25.3778 N   0  0  0  0  0  0  0  0  0  0  0  0
    6.8048   -7.5457   17.8752 C   0  0  0  0  0  0  0  0  0  0  0  0
    6.1721   -8.2186   15.9886 N   0  0  0  0  0  0  0  0  0  0  0  0
   11.1764   -2.6600   19.5604 C   0  0  0  0  0  0  0  0  0  0  0  0
    9.5491   -0.6380   24.1912 C   0  0  0  0  0  0  0  0  0  0  0  0
    7.5337   -6.9256   16.9519 C   0  0  0  0  0  0  0  0  0  0  0  0
    9.6782    0.5671   23.5143 C   0  0  0  0  0  0  0  0  0  0  0  0
    8.4532    0.3482   26.0821 C   0  0  0  0  0  0  0  0  0  0  0  0
   10.4239   -1.7677   22.2230 N   0  0  0  0  0  0  0  0  0  0  0  0
    9.9468   -4.5953   20.1709 C   0  0  0  0  0  0  0  0  0  0  0  0
   10.0366   -3.0590   23.9864 N   0  0  0  0  0  0  0  0  0  0  0  0
    7.1191   -7.3636   15.7739 C   0  0  0  0  0  0  0  0  0  0  0  0
    5.9612   -8.3203   17.2732 N   0  0  0  0  0  0  0  0  0  0  0  0
    8.5296   -5.9814   17.1841 C   0  0  0  0  0  0  0  0  0  0  0  0
    9.1527   -5.2118   16.2116 C   0  0  0  0  0  0  0  0  0  0  0  0
   10.3364   -3.8368   22.9255 O   0  0  0  0  0  0  0  0  0  0  0  0
    9.6947   -4.8407   18.8534 C   0  0  0  0  0  0  0  0  0  0  0  0
    9.1596    1.7042   24.1381 C   0  0  0  0  0  0  0  0  0  0  0  0
   11.0456   -2.9774   18.2694 N   0  0  0  0  0  0  0  0  0  0  0  0
   10.4788   -3.0457   21.8593 C   0  0  0  0  0  0  0  0  0  0  0  0
    8.8693   -5.8099   18.4657 N   0  0  0  0  0  0  0  0  0  0  0  0
    8.9892   -0.7926   25.4573 C   0  0  0  0  0  0  0  0  0  0  0  0
   10.5677   -3.4462   20.5323 C   0  0  0  0  0  0  0  0  0  0  0  0
  1  8  1  0
  1 12  4  0
  1 14  4  0
  2  3  4  0
  2 18  4  0
  3 20  4  0
  3 22  4  0
  4 11  4  0
  4 21  4  0
  5  9  4  0
  5 16  4  0
  6 15  4  0
  6 16  4  0
  7 22  4  0
  7 26  4  0
  8 10  4  0
  8 25  4  0
  9 15  4  0
  9 17  1  0
 10 21  4  0
 11 25  4  0
 12 23  4  0
 13 20  4  0
 13 26  4  0
 14 19  4  0
 17 18  4  0
 17 24  4  0
 19 23  4  0
 20 24  4  0
 23 26  1  0
M  END
$$$$

 Created by Python create_sdf_string function

 26 30  0  0  0  0  0  0  0  0999 V2000
   10.0084   -1.8019   23.4945 C   0  0  0  0  0  0  0  0  0  0  0  0
   10.0005   -4.2520   16.5631 C   0  0  0  0  0  0  0  0  0  0  0  0
   10.2759   -4.0036   17.8845 C   0  0  0  0  0  0  0  0  0  0  0  0
    8.5652    1.5478   25.3778 N   0  0  0  0  0  0  0  0  0  0  0  0
    6.8048   -7.5457   17.8752 C   0  0  0  0  0  0  0  0  0  0  0  0
    6.1721   -8.2186   15.9886 N   0  0  0  0  0  0  0  0  0  0  0  0
   11.1764   -2.6600   19.5604 C   0  0  0  0  0  0  0  0  0  0  0  0
    9.5491   -0.6380   24.1912 C   0  0  0  0  0  0  0  0  0  0  0  0
    7.5337   -6.9256   16.9519 C   0  0  0  0  0  0  0  0  0  0  0  0
    9.6782    0.5671   23.5143 C   0  0  0  0  0  0  0  0  0  0  0  0
    8.4532    0.3482   26.0821 C   0  0  0  0  0  0  0  0  0  0  0  0
   10.4239   -1.7677   22.2230 N   0  0  0  0  0  0  0  0  0  0  0  0
    9.9468   -4.5953   20.1709 C   0  0  0  0  0  0  0  0  0  0  0  0
   10.0366   -3.0590   23.9864 N   0  0  0  0  0  0  0  0  0  0  0  0
    7.1191   -7.3636   15.7739 C   0  0  0  0  0  0  0  0  0  0  0  0
    5.9612   -8.3203   17.2732 N   0  0  0  0  0  0  0  0  0  0  0  0
    8.5296   -5.9814   17.1841 C   0  0  0  0  0  0  0  0  0  0  0  0
    9.1527   -5.2118   16.2116 C   0  0  0  0  0  0  0  0  0  0  0  0
   10.3364   -3.8368   22.9255 O   0  0  0  0  0  0  0  0  0  0  0  0
    9.6947   -4.8407   18.8534 C   0  0  0  0  0  0  0  0  0  0  0  0
    9.1596    1.7042   24.1381 C   0  0  0  0  0  0  0  0  0  0  0  0
   11.0456   -2.9774   18.2694 N   0  0  0  0  0  0  0  0  0  0  0  0
   10.4788   -3.0457   21.8593 C   0  0  0  0  0  0  0  0  0  0  0  0
    8.8693   -5.8099   18.4657 N   0  0  0  0  0  0  0  0  0  0  0  0
    8.9892   -0.7926   25.4573 C   0  0  0  0  0  0  0  0  0  0  0  0
   10.5677   -3.4462   20.5323 C   0  0  0  0  0  0  0  0  0  0  0  0
  1  8  1  0
  1 12  4  0
  1 14  4  0
  2  3  4  0
  2 18  4  0
  3 20  4  0
  3 22  4  0
  4 11  4  0
  4 21  4  0
  5  9  4  0
  5 16  4  0
  6 15  4  0
  6 16  4  0
  7 22  4  0
  7 26  4  0
  8 10  4  0
  8 25  4  0
  9 15  4  0
  9 17  1  0
 10 21  4  0
 11 25  4  0
 12 23  4  0
 13 20  4  0
 13 26  4  0
 14 19  4  0
 17 18  4  0
 17 24  4  0
 19 23  4  0
 20 24  4  0
 23 26  1  0
M  END
$$$$

 Created by Python create_sdf_string function

 26 30  0  0  0  0  0  0  0  0999 V2000
   10.0084   -1.8019   23.4945 C   0  0  0  0  0  0  0  0  0  0  0  0
   10.0005   -4.2520   16.5631 C   0  0  0  0  0  0  0  0  0  0  0  0
   10.2759   -4.0036   17.8845 C   0  0  0  0  0  0  0  0  0  0  0  0
    8.5652    1.5478   25.3778 N   0  0  0  0  0  0  0  0  0  0  0  0
    6.8048   -7.5457   17.8752 C   0  0  0  0  0  0  0  0  0  0  0  0
    6.1721   -8.2186   15.9886 N   0  0  0  0  0  0  0  0  0  0  0  0
   11.1764   -2.6600   19.5604 C   0  0  0  0  0  0  0  0  0  0  0  0
    9.5491   -0.6380   24.1912 C   0  0  0  0  0  0  0  0  0  0  0  0
    7.5337   -6.9256   16.9519 C   0  0  0  0  0  0  0  0  0  0  0  0
    9.6782    0.5671   23.5143 C   0  0  0  0  0  0  0  0  0  0  0  0
    8.4532    0.3482   26.0821 C   0  0  0  0  0  0  0  0  0  0  0  0
   10.4239   -1.7677   22.2230 N   0  0  0  0  0  0  0  0  0  0  0  0
    9.9468   -4.5953   20.1709 C   0  0  0  0  0  0  0  0  0  0  0  0
   10.0366   -3.0590   23.9864 N   0  0  0  0  0  0  0  0  0  0  0  0
    7.1191   -7.3636   15.7739 C   0  0  0  0  0  0  0  0  0  0  0  0
    5.9612   -8.3203   17.2732 N   0  0  0  0  0  0  0  0  0  0  0  0
    8.5296   -5.9814   17.1841 C   0  0  0  0  0  0  0  0  0  0  0  0
    9.1527   -5.2118   16.2116 C   0  0  0  0  0  0  0  0  0  0  0  0
   10.3364   -3.8368   22.9255 O   0  0  0  0  0  0  0  0  0  0  0  0
    9.6947   -4.8407   18.8534 C   0  0  0  0  0  0  0  0  0  0  0  0
    9.1596    1.7042   24.1381 C   0  0  0  0  0  0  0  0  0  0  0  0
   11.0456   -2.9774   18.2694 N   0  0  0  0  0  0  0  0  0  0  0  0
   10.4788   -3.0457   21.8593 C   0  0  0  0  0  0  0  0  0  0  0  0
    8.8693   -5.8099   18.4657 N   0  0  0  0  0  0  0  0  0  0  0  0
    8.9892   -0.7926   25.4573 C   0  0  0  0  0  0  0  0  0  0  0  0
   10.5677   -3.4462   20.5323 C   0  0  0  0  0  0  0  0  0  0  0  0
  1  8  1  0
  1 12  4  0
  1 14  4  0
  2  3  4  0
  2 18  4  0
  3 20  4  0
  3 22  4  0
  4 11  4  0
  4 21  4  0
  5  9  4  0
  5 16  4  0
  6 15  4  0
  6 16  4  0
  7 22  4  0
  7 26  4  0
  8 10  4  0
  8 25  4  0
  9 15  4  0
  9 17  1  0
 10 21  4  0
 11 25  4  0
 12 23  4  0
 13 20  4  0
 13 26  4  0
 14 19  4  0
 17 18  4  0
 17 24  4  0
 19 23  4  0
 20 24  4  0
 23 26  1  0
M  END
$$$$

 Created by Python create_sdf_string function

 26 30  0  0  0  0  0  0  0  0999 V2000
   10.0084   -1.8019   23.4945 C   0  0  0  0  0  0  0  0  0  0  0  0
   10.0005   -4.2520   16.5631 C   0  0  0  0  0  0  0  0  0  0  0  0
   10.2759   -4.0036   17.8845 C   0  0  0  0  0  0  0  0  0  0  0  0
    8.5652    1.5478   25.3778 N   0  0  0  0  0  0  0  0  0  0  0  0
    6.8048   -7.5457   17.8752 C   0  0  0  0  0  0  0  0  0  0  0  0
    6.1721   -8.2186   15.9886 N   0  0  0  0  0  0  0  0  0  0  0  0
   11.1764   -2.6600   19.5604 C   0  0  0  0  0  0  0  0  0  0  0  0
    9.5491   -0.6380   24.1912 C   0  0  0  0  0  0  0  0  0  0  0  0
    7.5337   -6.9256   16.9519 C   0  0  0  0  0  0  0  0  0  0  0  0
    9.6782    0.5671   23.5143 C   0  0  0  0  0  0  0  0  0  0  0  0
    8.4532    0.3482   26.0821 C   0  0  0  0  0  0  0  0  0  0  0  0
   10.4239   -1.7677   22.2230 N   0  0  0  0  0  0  0  0  0  0  0  0
    9.9468   -4.5953   20.1709 C   0  0  0  0  0  0  0  0  0  0  0  0
   10.0366   -3.0590   23.9864 N   0  0  0  0  0  0  0  0  0  0  0  0
    7.1191   -7.3636   15.7739 C   0  0  0  0  0  0  0  0  0  0  0  0
    5.9612   -8.3203   17.2732 N   0  0  0  0  0  0  0  0  0  0  0  0
    8.5296   -5.9814   17.1841 C   0  0  0  0  0  0  0  0  0  0  0  0
    9.1527   -5.2118   16.2116 C   0  0  0  0  0  0  0  0  0  0  0  0
   10.3364   -3.8368   22.9255 O   0  0  0  0  0  0  0  0  0  0  0  0
    9.6947   -4.8407   18.8534 C   0  0  0  0  0  0  0  0  0  0  0  0
    9.1596    1.7042   24.1381 C   0  0  0  0  0  0  0  0  0  0  0  0
   11.0456   -2.9774   18.2694 N   0  0  0  0  0  0  0  0  0  0  0  0
   10.4788   -3.0457   21.8593 C   0  0  0  0  0  0  0  0  0  0  0  0
    8.8693   -5.8099   18.4657 N   0  0  0  0  0  0  0  0  0  0  0  0
    8.9892   -0.7926   25.4573 C   0  0  0  0  0  0  0  0  0  0  0  0
   10.5677   -3.4462   20.5323 C   0  0  0  0  0  0  0  0  0  0  0  0
  1  8  1  0
  1 12  4  0
  1 14  4  0
  2  3  4  0
  2 18  4  0
  3 20  4  0
  3 22  4  0
  4 11  4  0
  4 21  4  0
  5  9  4  0
  5 16  4  0
  6 15  4  0
  6 16  4  0
  7 22  4  0
  7 26  4  0
  8 10  4  0
  8 25  4  0
  9 15  4  0
  9 17  1  0
 10 21  4  0
 11 25  4  0
 12 23  4  0
 13 20  4  0
 13 26  4  0
 14 19  4  0
 17 18  4  0
 17 24  4  0
 19 23  4  0
 20 24  4  0
 23 26  1  0
M  END
$$$$

 Created by Python create_sdf_string function

 26 30  0  0  0  0  0  0  0  0999 V2000
   10.0084   -1.8019   23.4945 C   0  0  0  0  0  0  0  0  0  0  0  0
   10.0005   -4.2520   16.5631 C   0  0  0  0  0  0  0  0  0  0  0  0
   10.2759   -4.0036   17.8845 C   0  0  0  0  0  0  0  0  0  0  0  0
    8.5652    1.5478   25.3778 N   0  0  0  0  0  0  0  0  0  0  0  0
    6.8048   -7.5457   17.8752 C   0  0  0  0  0  0  0  0  0  0  0  0
    6.1721   -8.2186   15.9886 N   0  0  0  0  0  0  0  0  0  0  0  0
   11.1764   -2.6600   19.5604 C   0  0  0  0  0  0  0  0  0  0  0  0
    9.5491   -0.6380   24.1912 C   0  0  0  0  0  0  0  0  0  0  0  0
    7.5337   -6.9256   16.9519 C   0  0  0  0  0  0  0  0  0  0  0  0
    9.6782    0.5671   23.5143 C   0  0  0  0  0  0  0  0  0  0  0  0
    8.4532    0.3482   26.0821 C   0  0  0  0  0  0  0  0  0  0  0  0
   10.4239   -1.7677   22.2230 N   0  0  0  0  0  0  0  0  0  0  0  0
    9.9468   -4.5953   20.1709 C   0  0  0  0  0  0  0  0  0  0  0  0
   10.0366   -3.0590   23.9864 N   0  0  0  0  0  0  0  0  0  0  0  0
    7.1191   -7.3636   15.7739 C   0  0  0  0  0  0  0  0  0  0  0  0
    5.9612   -8.3203   17.2732 N   0  0  0  0  0  0  0  0  0  0  0  0
    8.5296   -5.9814   17.1841 C   0  0  0  0  0  0  0  0  0  0  0  0
    9.1527   -5.2118   16.2116 C   0  0  0  0  0  0  0  0  0  0  0  0
   10.3364   -3.8368   22.9255 O   0  0  0  0  0  0  0  0  0  0  0  0
    9.6947   -4.8407   18.8534 C   0  0  0  0  0  0  0  0  0  0  0  0
    9.1596    1.7042   24.1381 C   0  0  0  0  0  0  0  0  0  0  0  0
   11.0456   -2.9774   18.2694 N   0  0  0  0  0  0  0  0  0  0  0  0
   10.4788   -3.0457   21.8593 C   0  0  0  0  0  0  0  0  0  0  0  0
    8.8693   -5.8099   18.4657 N   0  0  0  0  0  0  0  0  0  0  0  0
    8.9892   -0.7926   25.4573 C   0  0  0  0  0  0  0  0  0  0  0  0
   10.5677   -3.4462   20.5323 C   0  0  0  0  0  0  0  0  0  0  0  0
  1  8  1  0
  1 12  4  0
  1 14  4  0
  2  3  4  0
  2 18  4  0
  3 20  4  0
  3 22  4  0
  4 11  4  0
  4 21  4  0
  5  9  4  0
  5 16  4  0
  6 15  4  0
  6 16  4  0
  7 22  4  0
  7 26  4  0
  8 10  4  0
  8 25  4  0
  9 15  4  0
  9 17  1  0
 10 21  4  0
 11 25  4  0
 12 23  4  0
 13 20  4  0
 13 26  4  0
 14 19  4  0
 17 18  4  0
 17 24  4  0
 19 23  4  0
 20 24  4  0
 23 26  1  0
M  END
$$$$

 Created by Python create_sdf_string function

 26 30  0  0  0  0  0  0  0  0999 V2000
   10.0084   -1.8019   23.4945 C   0  0  0  0  0  0  0  0  0  0  0  0
   10.0005   -4.2520   16.5631 C   0  0  0  0  0  0  0  0  0  0  0  0
   10.2759   -4.0036   17.8845 C   0  0  0  0  0  0  0  0  0  0  0  0
    8.5652    1.5478   25.3778 N   0  0  0  0  0  0  0  0  0  0  0  0
    6.8048   -7.5457   17.8752 C   0  0  0  0  0  0  0  0  0  0  0  0
    6.1721   -8.2186   15.9886 N   0  0  0  0  0  0  0  0  0  0  0  0
   11.1764   -2.6600   19.5604 C   0  0  0  0  0  0  0  0  0  0  0  0
    9.5491   -0.6380   24.1912 C   0  0  0  0  0  0  0  0  0  0  0  0
    7.5337   -6.9256   16.9519 C   0  0  0  0  0  0  0  0  0  0  0  0
    9.6782    0.5671   23.5143 C   0  0  0  0  0  0  0  0  0  0  0  0
    8.4532    0.3482   26.0821 C   0  0  0  0  0  0  0  0  0  0  0  0
   10.4239   -1.7677   22.2230 N   0  0  0  0  0  0  0  0  0  0  0  0
    9.9468   -4.5953   20.1709 C   0  0  0  0  0  0  0  0  0  0  0  0
   10.0366   -3.0590   23.9864 N   0  0  0  0  0  0  0  0  0  0  0  0
    7.1191   -7.3636   15.7739 C   0  0  0  0  0  0  0  0  0  0  0  0
    5.9612   -8.3203   17.2732 N   0  0  0  0  0  0  0  0  0  0  0  0
    8.5296   -5.9814   17.1841 C   0  0  0  0  0  0  0  0  0  0  0  0
    9.1527   -5.2118   16.2116 C   0  0  0  0  0  0  0  0  0  0  0  0
   10.3364   -3.8368   22.9255 O   0  0  0  0  0  0  0  0  0  0  0  0
    9.6947   -4.8407   18.8534 C   0  0  0  0  0  0  0  0  0  0  0  0
    9.1596    1.7042   24.1381 C   0  0  0  0  0  0  0  0  0  0  0  0
   11.0456   -2.9774   18.2694 N   0  0  0  0  0  0  0  0  0  0  0  0
   10.4788   -3.0457   21.8593 C   0  0  0  0  0  0  0  0  0  0  0  0
    8.8693   -5.8099   18.4657 N   0  0  0  0  0  0  0  0  0  0  0  0
    8.9892   -0.7926   25.4573 C   0  0  0  0  0  0  0  0  0  0  0  0
   10.5677   -3.4462   20.5323 C   0  0  0  0  0  0  0  0  0  0  0  0
  1  8  1  0
  1 12  4  0
  1 14  4  0
  2  3  4  0
  2 18  4  0
  3 20  4  0
  3 22  4  0
  4 11  4  0
  4 21  4  0
  5  9  4  0
  5 16  4  0
  6 15  4  0
  6 16  4  0
  7 22  4  0
  7 26  4  0
  8 10  4  0
  8 25  4  0
  9 15  4  0
  9 17  1  0
 10 21  4  0
 11 25  4  0
 12 23  4  0
 13 20  4  0
 13 26  4  0
 14 19  4  0
 17 18  4  0
 17 24  4  0
 19 23  4  0
 20 24  4  0
 23 26  1  0
M  END
